data_mof_unit_24069.cif
_audit_creation_date              2012-12-10T18:18:17-0500
_audit_creation_method            fapswitch 2.2
_symmetry_space_group_name_H-M    P1
_symmetry_Int_Tables_number       1
_space_group_crystal_system       triclinic
_cell_length_a                    14.009852
_cell_length_b                    15.014019
_cell_length_c                    15.575674
_cell_angle_alpha                 89.898673
_cell_angle_beta                  67.495748
_cell_angle_gamma                 90.013586
_cell_volume                      3026.76330556

loop_
_atom_site_label
_atom_site_type_symbol
_atom_type_description
_atom_site_fract_x
_atom_site_fract_y
_atom_site_fract_z
_atom_type_partial_charge
C1    C     C_R   0.500056 0.673546 0.499844 0.902741
C2    C     C_R   0.500138 0.769421 0.499679 -0.078130
C3    C     C_R   0.414225 0.184780 0.497341 -0.263548
C4    C     C_R   0.585763 0.815207 0.502694 -0.263542
C5    C     C_R   0.413646 0.092650 0.497176 0.119744
C6    C     C_R   0.586333 0.907335 0.502877 0.119912
C7    C     C_R   0.499938 0.046330 0.500142 0.060803
C8    C     C_R   0.500039 0.953656 0.499914 0.060840
C9    C     C_R   0.586134 0.092669 0.503325 0.119426
C10   C     C_R   0.413844 0.907316 0.496728 0.119454
C11   C     C_R   0.328381 0.046243 0.494014 -0.220830
C12   C     C_R   0.499944 0.326450 0.500157 0.898327
C13   C     C_R   0.671592 0.953741 0.506052 -0.221145
C14   C     C_R   0.328485 0.953703 0.493779 -0.220297
C15   C     C_R   0.671487 0.046281 0.506287 -0.220341
C16   C     C_R   0.435555 0.499871 0.676139 0.875211
C17   C     C_R   0.564514 0.499370 0.323926 0.874358
C18   C     C_R   0.180985 0.436133 0.548939 -0.078075
C19   C     C_R   0.818340 0.564960 0.452630 -0.081739
C20   C     C_R   0.221977 0.564911 0.452664 -0.071219
C21   C     C_R   0.777211 0.436409 0.549236 -0.068939
C22   C     C_R   0.121250 0.567426 0.452896 0.002215
C23   C     C_R   0.374663 0.501387 0.106929 -0.238756
C24   C     C_R   0.876910 0.435566 0.551423 0.006657
C25   C     C_R   0.049639 0.501564 0.502272 0.086756
C26   C     C_R   0.948321 0.501747 0.502504 0.084533
C27   C     C_R   0.079417 0.435289 0.551083 0.014319
C28   C     C_R   0.918871 0.567487 0.452906 0.014724
C29   C     C_R   0.090824 0.633483 0.404525 -0.226290
C30   C     C_R   0.906908 0.370202 0.600772 -0.215315
C31   C     C_R   0.990609 0.633368 0.404329 -0.209388
C32   C     C_R   0.007283 0.370052 0.600587 -0.212704
C33   C     C_R   0.395223 0.502202 0.777470 -0.062276
C34   C     C_R   0.611023 0.558689 0.902005 -0.238247
C35   C     C_R   0.604873 0.505198 0.222880 -0.061679
C36   C     C_R   0.256908 0.497741 0.928723 -0.215672
C37   C     C_R   0.733539 0.552241 0.076249 -0.214971
C38   C     C_R   0.289772 0.498967 0.832168 -0.192425
C39   C     C_R   0.704633 0.535194 0.170812 -0.193639
C40   C     C_R   0.466320 0.508526 0.819497 -0.253802
C41   C     C_R   0.536249 0.489461 0.179836 -0.247382
C42   C     C_R   0.435332 0.515312 0.915509 0.084511
C43   C     C_R   0.558396 0.516329 0.088414 0.084601
C44   C     C_R   0.329234 0.502545 0.971928 0.122654
C45   C     C_R   0.298735 0.493228 0.069040 0.078402
C46   C     C_R   0.660999 0.544354 0.033570 0.120037
C47   C     C_R   0.509548 0.528819 0.955385 0.024589
C48   C     C_R   0.480723 0.514489 0.050948 0.027373
C49   C     C_3   0.186730 0.470119 0.129916 -0.431491
C50   C     C_3   0.166423 0.439538 0.229686 -0.348797
C51   C     C_3   0.056144 0.405019 0.278185 -0.849085
C52   C     C_3   0.798786 0.592054 0.877621 -0.427935
C53   C     C_3   0.822658 0.605850 0.773410 -0.349794
C54   C     C_3   0.937043 0.625883 0.719678 -0.854224
C55   C     C_R   0.687988 0.564980 0.938591 0.079469
C56   C     C_R   0.585441 0.184799 0.503427 -0.260980
C57   C     C_R   0.414545 0.815188 0.496608 -0.260263
C58   C     C_R   0.499855 0.230569 0.500340 -0.077663
H1    H     H_    0.205245 0.386004 0.586364 0.130086
H2    H     H_    0.547219 0.503925 0.776041 0.158916
H3    H     H_    0.759316 0.547173 0.203344 0.150889
H4    H     H_    0.233175 0.494994 0.800573 0.153611
H5    H     H_    0.174706 0.493050 0.968467 0.131365
H6    H     H_    0.811774 0.574839 0.038463 0.131272
H7    H     H_    0.348951 0.501529 0.181236 0.144755
H8    H     H_    0.629500 0.581802 0.832224 0.145084
H9    H     H_    0.651544 0.220672 0.505931 0.158918
H10   H     H_    0.348442 0.779316 0.494100 0.158798
H11   H     H_    0.348070 0.220637 0.494957 0.159402
H12   H     H_    0.794335 0.614686 0.414618 0.129440
H13   H     H_    0.651921 0.779349 0.505073 0.159119
H14   H     H_    0.261880 0.081472 0.491718 0.144702
H15   H     H_    0.738091 0.918510 0.508353 0.144528
H16   H     H_    0.262055 0.918457 0.491319 0.144626
H17   H     H_    0.737915 0.081525 0.508751 0.144590
H18   H     H_    0.999710 0.458501 0.282640 0.265174
H19   H     H_    0.042232 0.347528 0.239702 0.253583
H20   H     H_    0.044165 0.382424 0.349444 0.255689
H21   H     H_    0.220619 0.385017 0.228483 0.225251
H22   H     H_    0.177814 0.496211 0.270346 0.233422
H23   H     H_    0.278269 0.614757 0.414794 0.135523
H24   H     H_    0.137122 0.528640 0.132453 0.198508
H25   H     H_    0.162485 0.414108 0.096188 0.206846
H26   H     H_    0.960707 0.685585 0.748694 0.256214
H27   H     H_    0.984994 0.568094 0.723076 0.263065
H28   H     H_    0.950930 0.639226 0.645732 0.257537
H29   H     H_    0.802538 0.544744 0.743672 0.232235
H30   H     H_    0.777138 0.662964 0.763931 0.221234
H31   H     H_    0.817398 0.654891 0.905597 0.199832
H32   H     H_    0.851375 0.538930 0.883328 0.204243
H33   H     H_    0.721073 0.386298 0.586711 0.133347
H34   H     H_    0.144836 0.684694 0.366100 0.142998
H35   H     H_    0.852928 0.318935 0.639122 0.141355
H36   H     H_    0.969402 0.684529 0.365803 0.139224
H37   H     H_    0.028606 0.318702 0.638844 0.140108
H38   H     H_    0.464581 0.456618 0.220146 0.151237
N1    N     N_R   0.249980 0.499930 0.499960 -0.097727
N2    N     N_R   0.750020 0.500070 0.500040 -0.097371
O1    O     O_R   0.419720 0.632140 0.499980 -0.625750
O2    O     O_R   0.580280 0.367860 0.500020 -0.626499
O3    O     O_R   0.580270 0.632160 0.499970 -0.627574
O4    O     O_R   0.419730 0.367840 0.500030 -0.628660
O5    O     O_R   0.373870 0.499980 0.632250 -0.614999
O6    O     O_R   0.626130 0.500020 0.367750 -0.615031
O7    O     O_R   0.534420 0.500000 0.632240 -0.621561
O8    O     O_R   0.465580 0.500000 0.367760 -0.618427
Zn1   Zn    Zn3+2 0.392800 0.499980 0.500010 0.938217
Zn2   Zn    Zn3+2 0.607200 0.500020 0.499990 0.937580

loop_
_geom_bond_atom_site_label_1
_geom_bond_atom_site_label_2
_ccdc_geom_bond_type
C15   H17   S    
C23   C45   A    
C22   C29   A    
C2    C4    A    
C50   H21   S    
C1    O1    A    
C54   H26   S    
C2    C57   A    
C7    C8    A    
C53   C54   S    
C44   C45   A    
C40   H2    S    
C14   H16   S    
C3    H11   S    
C17   O6    A    
C24   C26   A    
C5    C11   A    
C30   H35   S    
C11   C14   A    
C41   H38   S    
O8    Zn1   S    
N2    Zn2   S    
C1    C2    S    
C52   H32   S    
C20   N1    A    
C22   C25   A    
C46   C55   A    
C18   N1    A    
C36   H5    S    
C43   C48   A    
C52   C55   S    
C12   C58   S    
O3    Zn2   S    
C40   C42   A    
C34   C55   A    
C20   H23   S    
C41   C43   A    
C34   H8    S    
C52   H31   S    
C42   C44   A    
C19   N2    A    
C39   H3    S    
O7    Zn2   S    
O2    Zn2   S    
C33   C40   A    
C10   C57   A    
C51   H18   S    
C4    C6    A    
C10   C14   A    
C54   H28   S    
C11   H14   S    
C6    C8    A    
C25   C26   A    
C49   H24   S    
C35   C39   A    
C51   H19   S    
C12   O4    A    
C16   C33   S    
C16   O5    A    
C47   C48   A    
C45   C49   S    
C50   C51   S    
O4    Zn1   S    
C53   H29   S    
C9    C56   A    
C19   C28   A    
C16   O7    A    
C8    C10   A    
C13   H15   S    
C13   C15   A    
C36   C44   A    
C57   H10   S    
C56   H9    S    
C1    O3    A    
O6    Zn2   S    
C37   H6    S    
C52   C53   S    
C5    C7    A    
C21   H33   S    
C7    C9    A    
C23   C48   A    
C27   C32   A    
C28   C31   A    
C18   C27   A    
C20   C22   A    
C3    C5    A    
C50   H22   S    
C54   H27   S    
C25   C27   A    
C31   H36   S    
O1    Zn1   S    
C26   C28   A    
C33   C38   A    
C49   H25   S    
C36   C38   A    
C9    C15   A    
C51   H20   S    
C29   C31   A    
C17   O8    A    
C6    C13   A    
C30   C32   A    
C21   N2    A    
C23   H7    S    
C56   C58   A    
C53   H30   S    
C42   C47   A    
C29   H34   S    
C35   C41   A    
C43   C46   A    
C24   C30   A    
C12   O2    A    
N1    Zn1   S    
C3    C58   A    
C18   H1    S    
C32   H37   S    
C37   C39   A    
C49   C50   S    
C21   C24   A    
C19   H12   S    
O5    Zn1   S    
C34   C47   A    
C17   C35   S    
C37   C46   A    
C4    H13   S    
C38   H4    S    
