data_mof_unit_18704.cif
_audit_creation_date              2012-12-11T16:22:51-0500
_audit_creation_method            fapswitch 2.2
_symmetry_space_group_name_H-M    P1
_symmetry_Int_Tables_number       1
_space_group_crystal_system       triclinic
_cell_length_a                    16.870921
_cell_length_b                    16.853132
_cell_length_c                    19.56312
_cell_angle_alpha                 117.870753
_cell_angle_beta                  62.651123
_cell_angle_gamma                 100.571713
_cell_volume                      4364.05276255

loop_
_atom_site_label
_atom_site_type_symbol
_atom_type_description
_atom_site_fract_x
_atom_site_fract_y
_atom_site_fract_z
_atom_type_partial_charge
C1    C     C_R   0.022712 0.760025 0.028095 -0.124592
C2    C     C_R   0.246902 0.554431 0.828471 -0.130149
C3    C     C_R   0.194460 0.436517 0.035898 -0.086950
C4    C     C_R   0.763108 0.423554 0.164286 0.430900
C5    C     C_R   0.033540 0.326693 0.751148 -0.128282
C6    C     C_R   0.275349 0.445362 0.973746 0.081010
C7    C     C_R   0.022691 0.240533 0.744646 0.028687
C8    C     C_R   0.253800 0.508537 0.746570 0.040172
C9    C     C_R   0.989690 0.232877 0.042090 0.072119
C10   C     C_R   0.056170 0.860675 0.458441 -0.159638
C11   C     C_R   0.032197 0.801515 0.393414 -0.169842
C12   C     C_R   0.762170 0.450369 0.243012 -0.065581
C13   C     C_R   0.080306 0.796364 0.310884 0.139342
C14   C     C_R   0.157498 0.845648 0.292504 -0.161010
C15   C     C_R   0.181718 0.905066 0.357902 -0.174401
C16   C     C_R   0.814466 0.513151 0.915683 -0.134315
C17   C     C_R   0.128199 0.916413 0.442212 0.114541
C18   C     C_R   0.129783 0.081046 0.511233 -0.152166
C19   C     C_R   0.097257 0.159673 0.586050 -0.165023
C20   C     C_R   0.064877 0.158788 0.665797 0.137889
C21   C     C_R   0.073679 0.079584 0.669067 -0.153539
C22   C     C_R   0.106418 0.000493 0.593772 -0.175764
C23   C     C_R   0.738598 0.466832 0.941373 0.035694
C24   C     C_R   0.129689 0.999903 0.514801 0.109685
C25   C     C_R   0.541987 0.396765 0.383963 -0.092888
C26   C     C_R   0.608215 0.417641 0.320029 -0.150225
C27   C     C_R   0.696877 0.423392 0.308267 0.172656
C28   C     C_R   0.004297 0.661140 0.242467 -0.119167
C29   C     C_R   0.720743 0.405458 0.359458 -0.181658
C30   C     C_R   0.654781 0.387126 0.425624 -0.176968
C31   C     C_R   0.565151 0.386119 0.440226 0.038443
C32   C     C_R   0.488065 0.499020 0.586479 -0.169282
C33   C     C_R   0.408281 0.531930 0.659018 -0.181636
C34   C     C_R   0.048878 0.738980 0.245317 0.036027
C35   C     C_R   0.337427 0.474651 0.671215 0.130330
C36   C     C_R   0.349301 0.382544 0.615524 -0.140343
C37   C     C_R   0.430181 0.349089 0.543959 -0.093489
C38   C     C_R   0.497357 0.408586 0.526923 0.079693
C39   C     C_R   0.669899 0.442334 0.909630 0.127116
C40   C     C_R   0.747313 0.436185 0.992132 -0.094482
C41   C     C_R   0.362201 0.397396 0.932882 0.059784
C42   C     C_R   0.459156 0.321536 0.946527 -0.265556
C43   C     C_R   0.374947 0.331541 0.953172 -0.075922
C44   C     C_R   0.437610 0.430257 0.883528 -0.267474
C45   C     C_R   0.261001 0.514711 0.960699 -0.124280
C46   C     C_R   0.520019 0.423061 0.879698 0.189855
C47   C     C_R   0.529362 0.372951 0.916537 0.164436
C48   C     C_R   0.605893 0.380394 0.928519 -0.251996
C49   C     C_R   0.663695 0.485592 0.865794 -0.166961
C50   C     C_R   0.589714 0.474524 0.849345 -0.220793
C51   C     C_R   0.805751 0.184758 0.182638 0.200841
C52   C     C_R   0.073668 0.739379 0.167122 -0.136801
C53   C     C_R   0.927273 0.863548 0.028043 0.128225
C54   C     C_R   0.848737 0.952772 0.007691 -0.210666
C55   C     C_R   0.887780 0.871171 0.981626 -0.167915
C56   C     C_R   0.970532 0.248011 0.827018 -0.102594
C57   C     C_R   0.928128 0.940066 0.100770 -0.269161
C58   C     C_R   0.888496 0.022193 0.127724 0.190934
C59   C     C_R   0.847974 0.028412 0.080991 0.160376
C60   C     C_R   0.806729 0.110027 0.108987 -0.274036
C61   C     C_R   0.846153 0.178925 0.228564 -0.203290
C62   C     C_R   0.887494 0.098074 0.201374 -0.218716
C63   C     C_R   0.839650 0.495867 0.242201 -0.209420
C64   C     C_R   0.943672 0.690839 0.951569 -0.127983
C65   C     C_R   0.964239 0.775335 0.002585 0.054511
C66   C     C_2   0.448704 0.396522 0.395111 1.020513
C67   C     C_R   0.169771 0.481223 0.751626 -0.134459
C68   C     C_2   0.304774 0.269820 0.976806 0.972475
C69   C     C_R   0.027640 0.313964 0.074925 -0.069805
C70   C     C_R   0.950290 0.245863 0.999303 -0.094937
Cl1   Cl    Cl    0.710243 0.328419 0.115874 -0.752627
H1    H     H_    0.054058 0.809897 0.066689 0.096531
H2    H     H_    0.972583 0.763947 0.409282 0.112800
H3    H     H_    0.197514 0.840512 0.228611 0.113766
H4    H     H_    0.238107 0.946989 0.344019 0.123782
H5    H     H_    0.146146 0.082594 0.451472 0.123184
H6    H     H_    0.092467 0.219454 0.580751 0.114835
H7    H     H_    0.052436 0.077780 0.729587 0.116415
H8    H     H_    0.106919 0.938568 0.597675 0.119528
H9    H     H_    0.589797 0.432957 0.281083 0.183481
H10   H     H_    0.789367 0.409010 0.350459 0.110848
H11   H     H_    0.672440 0.381323 0.469863 0.126921
H12   H     H_    0.947154 0.193757 0.845205 0.092874
H13   H     H_    0.539994 0.545410 0.573292 0.131577
H14   H     H_    0.836720 0.534393 0.865668 0.088257
H15   H     H_    0.400385 0.602570 0.703340 0.121202
H16   H     H_    0.295719 0.337058 0.626833 0.124946
H17   H     H_    0.437461 0.279058 0.498214 0.145247
H18   H     H_    0.611154 0.343178 0.958783 0.136809
H19   H     H_    0.712821 0.532197 0.848636 0.115519
H20   H     H_    0.469053 0.276697 0.967794 0.178874
H21   H     H_    0.583523 0.512530 0.819971 0.126798
H22   H     H_    0.431718 0.471454 0.857164 0.123366
H23   H     H_    0.151396 0.452741 0.699122 0.100128
H24   H     H_    0.775196 0.116157 0.074236 0.163139
H25   H     H_    0.988341 0.631765 0.285790 0.090030
H26   H     H_    0.845182 0.237215 0.285442 0.126755
H27   H     H_    0.818439 0.956488 0.970903 0.130931
H28   H     H_    0.918152 0.094728 0.238054 0.133521
H29   H     H_    0.886912 0.814029 0.924881 0.115444
H30   H     H_    0.957415 0.935491 0.137892 0.121544
H31   H     H_    0.706713 0.388153 0.013707 0.167585
H32   H     H_    0.119926 0.783639 0.142826 0.090298
H33   H     H_    0.866125 0.515312 0.288542 0.119135
H34   H     H_    0.054014 0.331483 0.120939 0.088484
H35   H     H_    0.900503 0.676546 0.920430 0.093281
H36   H     H_    0.310159 0.546321 0.923812 0.091447
H37   H     H_    0.355708 0.452079 0.390949 0.328629
H38   H     H_    0.251331 0.195914 0.043068 0.323903
H39   H     H_    0.905262 0.200371 0.975092 0.116857
H40   H     H_    0.298086 0.593186 0.846976 0.088151
H41   H     H_    0.181381 0.394599 0.067395 0.105201
H42   H     H_    0.066057 0.345390 0.699448 0.089187
H43   H     H_    0.012721 0.868899 0.522951 0.117136
N1    N     N_R   0.034930 0.670790 0.995440 -0.041671
N2    N     N_R   0.867000 0.509260 0.948460 -0.043791
N3    N     N_R   0.003780 0.616410 0.165900 -0.037933
N4    N     N_R   0.825670 0.461520 0.995440 -0.041434
N5    N     N_R   0.045120 0.664150 0.118920 -0.039225
N6    N     N_R   0.884940 0.497570 0.165910 -0.059099
N7    N     N_R   0.985840 0.628110 0.948460 -0.041693
N8    N     N_R   0.174330 0.538480 0.004560 -0.044594
N9    N     N_R   0.954880 0.335850 0.881080 -0.036608
N10   N     N_R   0.115060 0.502430 0.834090 -0.038420
N11   N     N_R   0.014160 0.371890 0.051540 -0.048388
N12   N     N_R   0.965070 0.329210 0.004560 -0.040526
N13   N     N_R   0.164150 0.545120 0.881070 -0.036595
N14   N     N_R   0.133000 0.490740 0.051540 -0.049760
N15   N     N_R   0.996220 0.383590 0.834100 -0.041757
N16   N     N_R   0.835850 0.454880 0.118930 -0.074832
Ni1   Ni    Ni4+2 0.103690 0.603690 0.000000 0.213667
Ni2   Ni    Ni4+2 0.896310 0.396310 0.000000 0.263863
Ni3   Ni    Ni4+2 0.991110 0.505800 0.892250 0.214290
Ni4   Ni    Ni4+2 0.008890 0.494200 0.107750 0.210137
O1    O     O_2   0.398048 0.339533 0.411626 -0.653931
O2    O     O_R   0.420030 0.459524 0.382745 -0.800454
O3    O     O_2   0.251609 0.243726 0.945028 -0.647918
O4    O     O_R   0.301672 0.238302 0.032585 -0.801145

loop_
_geom_bond_atom_site_label_1
_geom_bond_atom_site_label_2
_ccdc_geom_bond_type
N11   Ni4   S    
C25   C31   A    
C40   N4    A    
C52   H32   S    
C58   C62   A    
N1    N7    A    
C6    C45   A    
N9    Ni2   S    
C27   C29   A    
C37   H17   S    
C68   O4    S    
C35   C36   A    
C51   C61   A    
C49   H19   S    
C3    C6    A    
C67   N10   A    
N1    Ni1   S    
C26   C27   A    
C29   C30   A    
N10   Ni3   S    
N6    N16   A    
C14   H3    S    
C36   C37   A    
C9    C69   A    
C22   H8    S    
H37   O2    S    
C28   N3    A    
N3    N5    A    
C30   C31   A    
C10   C17   A    
C64   N7    A    
C42   H20   S    
C19   H6    S    
C44   H22   S    
C70   H39   S    
C46   C47   A    
C19   C20   A    
C43   C68   S    
C6    C41   S    
C21   H7    S    
C67   H23   S    
N5    Ni1   S    
C18   C24   A    
C32   C38   A    
C4    C12   A    
C53   C65   S    
C10   H43   S    
C2    N13   A    
C70   N12   A    
C5    N15   A    
C69   N11   A    
C59   C60   A    
C21   C22   A    
N9    N15   A    
C41   C43   A    
C68   O3    D    
C7    C56   A    
N3    Ni4   S    
C16   N2    A    
C44   C46   A    
C54   C59   A    
C53   C55   A    
C36   H16   S    
C32   H13   S    
C2    C8    A    
C2    H40   S    
C1    H1    S    
C12   C27   S    
C17   C24   S    
C56   N9    A    
C9    C70   A    
C11   H2    S    
C5    C7    A    
C12   C63   A    
C69   H34   S    
C3    N14   A    
C18   C19   A    
C4    N16   A    
N2    Ni3   S    
C25   C26   A    
C40   H31   S    
C26   H9    S    
C66   O1    D    
H38   O4    S    
C8    C35   S    
C30   H11   S    
N16   Ni2   S    
C33   H15   S    
C60   H24   S    
C29   H10   S    
C37   C38   A    
N14   Ni4   S    
C1    C65   A    
C47   C48   A    
N12   Ni2   S    
C3    H41   S    
N10   N13   A    
N15   Ni3   S    
C50   H21   S    
C39   C49   A    
C7    C20   S    
C16   C23   A    
C48   H18   S    
N11   N12   A    
C41   C44   A    
C22   C24   A    
C42   C43   A    
N8    Ni1   S    
C56   H12   S    
C15   H4    S    
C15   C17   A    
C54   C55   A    
C53   C57   A    
C5    H42   S    
C61   H26   S    
C25   C66   S    
C63   H33   S    
C64   H35   S    
C55   H29   S    
C45   N8    A    
C57   H30   S    
C46   C50   A    
C34   C52   A    
C31   C38   S    
C28   H25   S    
C64   C65   A    
C58   C59   A    
C13   C34   S    
C32   C33   A    
C63   N6    A    
C11   C13   A    
C57   C58   A    
C16   H14   S    
C23   C39   S    
C33   C35   A    
N2    N4    A    
C66   O2    S    
N6    Ni4   S    
C42   C47   A    
N8    N14   A    
C61   C62   A    
N13   Ni1   S    
N4    Ni2   S    
C10   C11   A    
C28   C34   A    
C62   H28   S    
C52   N5    A    
C45   H36   S    
C20   C21   A    
C8    C67   A    
C49   C50   A    
C14   C15   A    
C54   H27   S    
C51   C60   A    
C1    N1    A    
N7    Ni3   S    
C13   C14   A    
C4    Cl1   S    
C23   C40   A    
C18   H5    S    
C39   C48   A    
