data_mof_unit_65769.cif
_audit_creation_date              2012-12-10T18:54:01-0500
_audit_creation_method            fapswitch 2.2
_symmetry_space_group_name_H-M    P1
_symmetry_Int_Tables_number       1
_space_group_crystal_system       triclinic
_cell_length_a                    19.468157
_cell_length_b                    19.469406
_cell_length_c                    19.388133
_cell_angle_alpha                 85.367105
_cell_angle_beta                  95.333078
_cell_angle_gamma                 90.156326
_cell_volume                      7292.94834034

loop_
_atom_site_label
_atom_site_type_symbol
_atom_type_description
_atom_site_fract_x
_atom_site_fract_y
_atom_site_fract_z
_atom_type_partial_charge
C1    C     C_R   0.311887 0.492236 0.492163 0.786774
C2    C     C_2   0.466486 0.979942 0.501961 -0.241533
C3    C     C_2   0.522865 0.018724 0.512105 -0.238498
C4    C     C_R   0.688175 0.508187 0.507167 0.792699
C5    C     C_R   0.512624 0.236904 0.511640 0.005032
C6    C     C_R   0.762917 0.514856 0.505689 -0.000901
C7    C     C_R   0.797225 0.474453 0.462839 -0.204453
C8    C     C_R   0.867527 0.481819 0.458647 -0.161827
C9    C     C_R   0.904977 0.529167 0.497909 0.204889
C10   C     C_R   0.870834 0.570698 0.539651 -0.177370
C11   C     C_R   0.800066 0.563329 0.543921 -0.197443
C12   C     C_R   0.472260 0.905126 0.500237 0.206014
C13   C     C_R   0.124781 0.541246 0.456813 -0.158647
C14   C     C_R   0.196173 0.543718 0.456894 -0.210696
C15   C     C_R   0.205123 0.430723 0.520008 -0.197214
C16   C     C_R   0.508982 0.492320 0.689037 0.789819
C17   C     C_R   0.133760 0.427906 0.519093 -0.181168
C18   C     C_R   0.093421 0.483607 0.488810 0.204746
C19   C     C_2   0.979810 0.535191 0.495940 -0.240156
C20   C     C_2   0.018567 0.479584 0.490207 -0.238438
C21   C     C_R   0.236764 0.488836 0.489307 0.004713
C22   C     C_R   0.483388 0.504575 0.235671 0.003385
C23   C     C_R   0.426224 0.870735 0.455229 -0.178993
C24   C     C_R   0.507927 0.446883 0.206414 -0.192606
C25   C     C_R   0.502748 0.444461 0.134846 -0.109830
C26   C     C_R   0.474848 0.500572 0.091673 0.240957
C27   C     C_R   0.446823 0.556599 0.120474 -0.144680
C28   C     C_R   0.490866 0.506812 0.311126 0.789792
C29   C     C_R   0.451084 0.558678 0.192458 -0.199950
C30   C     C_R   0.574263 0.526575 0.871296 -0.127036
C31   C     C_R   0.567470 0.527899 0.799364 -0.194149
C32   C     C_R   0.471557 0.448246 0.804016 -0.194610
C33   C     C_R   0.478209 0.447227 0.876272 -0.168710
C34   C     C_R   0.432912 0.799925 0.451386 -0.199967
C35   C     C_R   0.529374 0.486804 0.910134 0.138301
C36   C     C_2   0.476899 0.501739 0.016341 -0.350849
C37   C     C_2   0.534756 0.489043 0.986046 -0.064923
C38   C     C_R   0.515790 0.489173 0.765083 -0.002941
C39   C     C_R   0.508553 0.311975 0.508463 0.785780
C40   C     C_R   0.491388 0.688227 0.492206 0.792905
C41   C     C_R   0.485264 0.762979 0.493308 -0.000249
C42   C     C_R   0.530334 0.797538 0.539309 -0.207468
C43   C     C_R   0.523666 0.867920 0.543044 -0.162939
C44   C     C_2   0.604565 0.483154 0.024982 0.909318
C45   C     C_R   0.463921 0.125162 0.540865 -0.159275
C46   C     C_R   0.460996 0.196537 0.540269 -0.210627
C47   C     C_R   0.568111 0.205059 0.485283 -0.195868
C48   C     C_R   0.571442 0.133703 0.486705 -0.180720
C49   C     C_R   0.518763 0.093576 0.513138 0.204666
H1    H     H_    0.570538 0.770192 0.572972 0.164554
H2    H     H_    0.003696 0.584886 0.503374 0.151571
H3    H     H_    0.892382 0.450807 0.424169 0.135456
H4    H     H_    0.417981 0.220087 0.561284 0.159646
H5    H     H_    0.110061 0.382797 0.543206 0.131153
H6    H     H_    0.531292 0.403658 0.238820 0.158622
H7    H     H_    0.602624 0.559644 0.770661 0.164246
H8    H     H_    0.431545 0.417767 0.778724 0.160310
H9    H     H_    0.424036 0.599614 0.087311 0.132704
H10   H     H_    0.613642 0.557815 0.896585 0.139876
H11   H     H_    0.430908 0.603150 0.214190 0.157423
H12   H     H_    0.614437 0.109829 0.465914 0.131832
H13   H     H_    0.429046 0.514195 0.984259 0.158883
H14   H     H_    0.522512 0.399838 0.112997 0.128929
H15   H     H_    0.608964 0.235242 0.463660 0.160825
H16   H     H_    0.443416 0.415836 0.905802 0.138140
H17   H     H_    0.573885 0.995506 0.515249 0.151812
H18   H     H_    0.385926 0.898839 0.422375 0.131056
H19   H     H_    0.423725 0.094823 0.563441 0.133315
H20   H     H_    0.397024 0.774163 0.416086 0.160652
H21   H     H_    0.415863 0.003793 0.490662 0.151261
H22   H     H_    0.558390 0.893012 0.579950 0.134309
H23   H     H_    0.769745 0.437405 0.431955 0.166499
H24   H     H_    0.669885 0.512184 0.104297 0.342795
H25   H     H_    0.219588 0.588845 0.432555 0.159739
H26   H     H_    0.235483 0.387424 0.544642 0.159149
H27   H     H_    0.995325 0.428735 0.490979 0.151644
H28   H     H_    0.899115 0.607892 0.569719 0.131664
H29   H     H_    0.094250 0.583988 0.431289 0.133732
H30   H     H_    0.774505 0.595655 0.576702 0.161250
O1    O     O_3   0.500000 0.500000 0.500000 -0.479989
O2    O     O_R   0.467830 0.341070 0.546160 -0.647051
O3    O     O_R   0.450560 0.655630 0.450550 -0.648482
O4    O     O_R   0.545840 0.347670 0.467560 -0.650054
O5    O     O_R   0.535760 0.655640 0.535740 -0.649596
O6    O     O_2   0.648655 0.447167 0.004558 -0.630332
O7    O     O_R   0.620753 0.520433 0.083014 -0.791911
O8    O     O_R   0.545870 0.536170 0.656040 -0.650266
O9    O     O_R   0.450550 0.545430 0.340370 -0.646818
O10   O     O_R   0.347960 0.451240 0.536460 -0.648611
O11   O     O_R   0.655630 0.467150 0.467130 -0.647185
O12   O     O_R   0.340780 0.536140 0.450970 -0.647672
O13   O     O_R   0.655640 0.545460 0.545430 -0.649026
O14   O     O_R   0.467850 0.451260 0.656340 -0.643590
O15   O     O_R   0.535740 0.467130 0.347260 -0.643634
Zn1   Zn    Zn3+2 0.558310 0.558310 0.558290 0.966214
Zn2   Zn    Zn3+2 0.446830 0.436990 0.558720 0.965764
Zn3   Zn    Zn3+2 0.558290 0.446420 0.446420 0.967605
Zn4   Zn    Zn3+2 0.436570 0.558290 0.436570 0.966527

loop_
_geom_bond_atom_site_label_1
_geom_bond_atom_site_label_2
_ccdc_geom_bond_type
C15   H26   S    
C1    C21   S    
C22   C29   A    
O1    Zn3   S    
C27   C29   A    
C41   C42   A    
C40   O5    A    
C19   C20   D    
C2    C12   S    
C3    C49   S    
C33   H16   S    
C7    C8    A    
C45   C46   A    
C24   H6    S    
C5    C47   A    
C12   C23   A    
C16   O14   A    
C30   C35   A    
C14   H25   S    
C14   C21   A    
C36   C37   D    
C35   C37   S    
C12   C43   A    
C30   C31   A    
C44   O7    S    
C20   H27   S    
C28   O15   A    
C25   H14   S    
C23   H18   S    
C9    C19   S    
C8    C9    A    
O8    Zn1   S    
C28   O9    A    
C16   O8    A    
C1    O10   A    
C32   C38   A    
C31   H7    S    
O1    Zn2   S    
C9    C10   A    
C8    H3    S    
O11   Zn3   S    
C1    O12   A    
C22   C28   S    
C13   C14   A    
O3    Zn4   S    
C34   C41   A    
C32   H8    S    
C36   H13   S    
C10   H28   S    
C4    O11   A    
C40   O3    A    
C24   C25   A    
C39   O2    A    
C4    C6    S    
C6    C11   A    
O2    Zn2   S    
O15   Zn3   S    
C25   C26   A    
O13   Zn1   S    
O5    Zn1   S    
C47   C48   A    
C29   H11   S    
C45   C49   A    
C23   C34   A    
C30   H10   S    
C45   H19   S    
C17   C18   A    
C26   C27   A    
O1    Zn1   S    
C34   H20   S    
C11   H30   S    
C42   H1    S    
C13   C18   A    
C26   C36   S    
C40   C41   S    
O14   Zn2   S    
C5    C39   S    
C22   C24   A    
C3    H17   S    
C42   C43   A    
C44   O6    D    
C7    H23   S    
C15   C17   A    
C13   H29   S    
C48   C49   A    
C43   H22   S    
O1    Zn4   S    
C27   H9    S    
C47   H15   S    
C6    C7    A    
C5    C46   A    
C31   C38   A    
C32   C33   A    
O10   Zn2   S    
C2    C3    D    
C39   O4    A    
C48   H12   S    
C37   C44   S    
C46   H4    S    
C33   C35   A    
C18   C20   S    
O12   Zn4   S    
H24   O7    S    
C10   C11   A    
C19   H2    S    
C15   C21   A    
O4    Zn3   S    
C2    H21   S    
C17   H5    S    
O9    Zn4   S    
C16   C38   S    
C4    O13   A    
