data_mof_unit_60500.cif
_audit_creation_date              2012-10-26T19:17:36-0400
_audit_creation_method            fapswitch 2.2
_symmetry_space_group_name_H-M    P1
_symmetry_Int_Tables_number       1
_space_group_crystal_system       triclinic
_cell_length_a                    14.3326
_cell_length_b                    15.949409
_cell_length_c                    16.88465
_cell_angle_alpha                 95.937347
_cell_angle_beta                  93.586599
_cell_angle_gamma                 91.874918
_cell_volume                      3828.56047592

loop_
_atom_site_label
_atom_site_type_symbol
_atom_type_description
_atom_site_fract_x
_atom_site_fract_y
_atom_site_fract_z
_atom_type_partial_charge
C1    C     C_R   0.508859 0.489705 0.348447 0.552233
C2    C     C_R   0.553631 0.158998 0.534991 -0.012455
C3    C     C_R   0.506760 0.891432 0.521279 0.146849
C4    C     C_R   0.493237 0.108568 0.478722 0.146847
C5    C     C_R   0.566555 0.850249 0.572619 0.080643
C6    C     C_R   0.433440 0.149751 0.427384 0.080648
C7    C     C_R   0.570292 0.760947 0.564210 0.211857
C8    C     C_R   0.429705 0.239053 0.435792 0.211860
C9    C     C_R   0.331102 0.500250 0.499864 0.551971
C10   C     C_R   0.668898 0.499750 0.500136 0.551966
C11   C     C_1   0.228816 0.500716 0.499961 0.012652
C12   C     C_R   0.491141 0.510295 0.651553 0.552244
C13   C     C_1   0.771184 0.499284 0.500039 0.012651
C14   C     C_1   0.143390 0.500620 0.499984 0.007964
C15   C     C_1   0.856610 0.499380 0.500016 0.007966
C16   C     C_1   0.042725 0.500209 0.499995 0.043008
C17   C     C_1   0.957275 0.499791 0.500004 0.043009
C18   C     C_R   0.530713 0.484373 0.261849 -0.046617
C19   C     C_R   0.469285 0.515627 0.738151 -0.046619
C20   C     C_R   0.558137 0.558272 0.226382 -0.025588
C21   C     C_R   0.441875 0.441727 0.773622 -0.025598
C22   C     C_R   0.568631 0.553501 0.143060 0.037010
C23   C     C_R   0.528098 0.402558 0.129826 -0.013739
C24   C     C_R   0.431372 0.446501 0.856944 0.036998
C25   C     C_R   0.541741 0.477967 0.094970 0.180059
C26   C     C_R   0.458246 0.522043 0.905030 0.180047
C27   C     C_2   0.421404 0.360037 0.723978 0.345241
C28   C     C_2   0.578636 0.639956 0.276031 0.345218
C29   C     C_2   0.385313 0.376871 0.895398 0.343171
C30   C     C_2   0.614702 0.623129 0.104615 0.343190
C31   C     C_2   0.517796 0.320299 0.078546 0.261098
C32   C     C_2   0.482174 0.679709 0.921444 0.261065
C33   C     C_2   0.529597 0.323981 0.249356 0.274664
C34   C     C_R   0.471879 0.597449 0.870168 -0.013734
C35   C     C_2   0.470373 0.676018 0.750634 0.274665
C36   C     C_2   0.625583 0.118415 0.582972 0.314949
C37   C     C_2   0.374420 0.881584 0.417023 0.314950
C38   C     C_R   0.526796 0.405126 0.213622 -0.050342
C39   C     C_R   0.473184 0.594877 0.786373 -0.050343
C40   C     C_R   0.448859 0.751583 0.460063 0.223524
C41   C     C_R   0.551144 0.248416 0.539934 0.223528
C42   C     C_R   0.446370 0.841001 0.465007 -0.012452
Cu1   Cu    Cu3+1 0.495850 0.415220 0.496180 1.054501
Cu2   Cu    Cu3+1 0.504150 0.584780 0.503820 1.054501
H1    H     H_    0.373970 0.356895 0.670969 0.117960
H2    H     H_    0.329634 0.926954 0.446402 0.142279
H3    H     H_    0.626051 0.643079 0.329050 0.117985
H4    H     H_    0.390280 0.376984 0.959639 0.152813
H5    H     H_    0.609649 0.623074 0.040381 0.152873
H6    H     H_    0.478451 0.267507 0.097315 0.112739
H7    H     H_    0.521518 0.732492 0.902673 0.112737
H8    H     H_    0.476147 0.274730 0.231963 0.119735
H9    H     H_    0.523813 0.725277 0.768029 0.119734
H10   H     H_    0.670364 0.073041 0.553592 0.142278
I1    I     I_    0.652934 0.317673 0.623665 -0.122673
I2    I     I_    0.347075 0.682326 0.376327 -0.122708
I3    I     I_    0.648791 0.925136 0.665506 -0.148466
I4    I     I_    0.351199 0.074864 0.334500 -0.148473
I5    I     I_    0.673744 0.705724 0.637661 -0.242146
I6    I     I_    0.326250 0.294276 0.362344 -0.242161
N1    N     N_2   0.531136 0.476394 0.010794 -0.216644
N2    N     N_2   0.468856 0.523621 0.989207 -0.216690
N3    N     N_R   0.510380 0.712130 0.509560 -0.245257
N4    N     N_R   0.489620 0.287870 0.490440 -0.245261
N5    N     N_2   0.505463 0.982476 0.531513 -0.202683
N6    N     N_2   0.494534 0.017524 0.468487 -0.202681
O1    O     O_R   0.496120 0.420530 0.382500 -0.438634
O2    O     O_2   0.541283 0.703946 0.258726 -0.385341
O3    O     O_2   0.335767 0.321472 0.856922 -0.438522
O4    O     O_2   0.664357 0.678454 0.143086 -0.438568
O5    O     O_2   0.554944 0.309901 0.015308 -0.417612
O6    O     O_2   0.445029 0.690112 0.984686 -0.417657
O7    O     O_2   0.594447 0.310424 0.296146 -0.451229
O8    O     O_2   0.405525 0.689564 0.703838 -0.451240
O9    O     O_2   0.632390 0.132219 0.655625 -0.389699
O10   O     O_2   0.367620 0.867782 0.344370 -0.389710
O11   O     O_R   0.503880 0.579470 0.617500 -0.438637
O12   O     O_R   0.503120 0.563720 0.388950 -0.504607
O13   O     O_R   0.496880 0.436280 0.611050 -0.504601
O14   O     O_R   0.372550 0.428390 0.496770 -0.480683
O15   O     O_R   0.627450 0.571610 0.503230 -0.480684
O16   O     O_R   0.379550 0.571580 0.503220 -0.453924
O17   O     O_R   0.620450 0.428420 0.496780 -0.453930
O18   O     O_2   0.458805 0.296065 0.741272 -0.385273

loop_
_geom_bond_atom_site_label_1
_geom_bond_atom_site_label_2
_ccdc_geom_bond_type
C35   O8    D    
C35   H9    S    
Cu1   O17   S    
C6    I4    S    
C35   C39   S    
C3    C42   A    
C33   H8    S    
C1    C18   S    
C40   N3    A    
Cu2   O11   S    
C28   O2    D    
C24   C26   A    
Cu2   O16   S    
C11   C14   T    
C2    C41   A    
Cu1   O13   S    
C12   O13   A    
C10   O17   A    
C37   C42   S    
C24   C29   S    
C41   I1    S    
C26   C34   A    
C16   C17   T    
C40   I2    S    
C22   C25   A    
C9    O16   A    
C27   H1    S    
C40   C42   A    
C21   C27   S    
C1    O12   A    
C3    N5    S    
C7    I5    S    
C30   O4    D    
Cu1   N4    S    
C29   O3    D    
Cu2   N3    S    
C29   H4    S    
C34   C39   A    
C4    C6    A    
Cu2   O15   S    
C5    C7    A    
C6    C8    A    
C20   C28   S    
Cu1   O14   S    
C9    O14   A    
C23   C31   S    
C2    C4    A    
Cu1   Cu2   S    
C32   H7    S    
C36   O9    D    
C12   O11   A    
C25   N1    S    
C9    C11   S    
C7    N3    A    
C19   C39   A    
C8    N4    A    
C28   H3    S    
C33   O7    D    
C30   H5    S    
C20   C22   A    
C13   C15   T    
C14   C16   S    
C31   H6    S    
C2    C36   S    
C15   C17   S    
C27   O18   D    
C22   C30   S    
C19   C21   A    
C37   O10   D    
C3    C5    A    
C10   C13   S    
C23   C38   A    
C10   O15   A    
C33   C38   S    
C5    I3    S    
Cu2   O12   S    
C26   N2    S    
C8    I6    S    
C4    N6    S    
C12   C19   S    
C31   O5    D    
C1    O1    A    
C18   C20   A    
C23   C25   A    
C18   C38   A    
N1    N2    D    
C36   H10   S    
Cu1   O1    S    
N5    N6    D    
C21   C24   A    
C41   N4    A    
C37   H2    S    
C32   C34   S    
C32   O6    D    
