data_mof_unit_10677.cif
_audit_creation_date              2013-03-05T16:42:23-0500
_audit_creation_method            fapswitch 2.2
_symmetry_space_group_name_H-M    P1
_symmetry_Int_Tables_number       1
_space_group_crystal_system       triclinic
_cell_length_a                    10.090404
_cell_length_b                    10.795118
_cell_length_c                    15.479964
_cell_angle_alpha                 90.659045
_cell_angle_beta                  72.917301
_cell_angle_gamma                 87.735971
_cell_volume                      1610.06644615

loop_
_atom_site_label
_atom_site_type_symbol
_atom_site_description
_atom_site_fract_x
_atom_site_fract_y
_atom_site_fract_z
_atom_type_partial_charge
O1    O     O_R   0.385310 0.683210 0.499990 -0.607250
O2    O     O_R   0.614650 0.683240 0.500000 -0.632454
C1    C     C_R   0.499528 0.739260 0.497051 0.933393
O3    O     O_R   0.319830 0.499970 0.632240 -0.555757
O4    O     O_R   0.549170 0.500000 0.632250 -0.571636
C2    C     C_R   0.415595 0.489705 0.673910 0.925727
Zn1   Zn    Zn3+2 0.346870 0.499980 0.499990 0.994776
Zn2   Zn    Zn3+2 0.653130 0.500020 0.500010 1.000746
O5    O     O_R   0.385350 0.316760 0.500000 -0.626792
O6    O     O_R   0.614690 0.316790 0.500010 -0.618289
O7    O     O_R   0.450830 0.500000 0.367750 -0.635406
O8    O     O_R   0.680170 0.500030 0.367760 -0.631737
C3    C     C_R   0.503585 0.261010 0.497667 0.843142
C4    C     C_R   0.584412 0.500812 0.325700 0.873864
C5    C     C_R   0.376316 0.442406 0.767169 -0.058801
C6    C     C_R   0.631909 0.486738 0.226922 -0.127949
C7    C     C_R   0.235459 0.312534 0.883644 -0.127688
C8    C     C_R   0.255974 0.376319 0.802958 -0.171175
C9    C     C_R   0.472983 0.443852 0.814821 -0.181146
C10   C     C_R   0.455204 0.380689 0.894960 0.050567
C11   C     C_R   0.331013 0.320856 0.933165 0.184103
C12   C     C_R   0.553813 0.385107 0.942186 0.033402
C13   C     C_R   0.507674 0.377033 0.036307 0.090452
C14   C     C_R   0.385093 0.314827 0.075394 -0.213690
C15   C     C_R   0.304442 0.276399 0.021270 -0.101494
C16   C     C_R   0.696396 0.391141 0.898903 -0.120105
C17   C     C_R   0.788767 0.401455 0.949426 -0.099021
C18   C     C_R   0.737555 0.420880 0.043280 -0.018893
C19   C     C_R   0.592927 0.421111 0.086255 0.042240
C20   C     C_R   0.827773 0.440406 0.094801 0.367179
C21   C     C_R   0.775119 0.472475 0.185471 -0.285171
C22   C     C_R   0.539110 0.469979 0.175249 0.101692
H1    H     H_    0.217979 0.219632 0.050553 0.210341
H2    H     H_    0.848111 0.479406 0.224367 0.204517
H3    H     H_    0.898928 0.401221 0.914531 0.195723
H4    H     H_    0.144790 0.258319 0.906619 0.196825
H5    H     H_    0.180785 0.367956 0.766934 0.221756
H6    H     H_    0.557758 0.501351 0.792244 0.240632
H7    H     H_    0.356189 0.289915 0.145807 0.161568
H8    H     H_    0.737384 0.377923 0.826982 0.231735
C23   C     C_R   0.380013 0.944808 0.505104 0.016596
C24   C     C_R   0.501991 0.871404 0.487877 -0.078247
C25   C     C_R   0.630572 0.929225 0.459259 -0.208282
H9    H     H_    0.728008 0.875303 0.439291 0.171085
C26   C     C_R   0.634237 0.058353 0.460495 -0.193383
H10   H     H_    0.733266 0.101873 0.441012 0.164423
C27   C     C_R   0.509338 0.129049 0.490881 -0.051673
C28   C     C_R   0.385314 0.070381 0.509525 0.002374
C29   C     C_3   0.252305 0.090243 0.583310 -0.105109
C30   C     C_3   0.237766 0.950340 0.573621 0.440182
H11   H     H_    0.174218 0.149835 0.563627 0.195762
C31   C     C_R   0.909902 0.597341 0.535964 0.081830
N1    N     N_R   0.856900 0.500860 0.500610 -0.091633
C32   C     C_R   0.951031 0.410783 0.455344 -0.063336
H12   H     H_    0.915746 0.337840 0.419996 0.136251
C33   C     C_R   0.094380 0.411625 0.452834 0.273948
N2    N     N_R   0.142540 0.500820 0.500610 -0.073743
C34   C     C_R   0.049981 0.596685 0.536604 -0.063927
C35   C     C_3   0.012111 0.650325 0.630349 0.094078
C36   C     C_3   0.860593 0.654005 0.629603 0.329039
H13   H     H_    0.051147 0.741807 0.635521 0.160679
N3    N     N_R   0.968335 0.397093 0.062503 0.177140
O9    O     O_R   0.065631 0.467400 0.071215 -0.401316
O10   O     O_R   0.990481 0.277576 0.055614 -0.471879
C37   C     C_3   0.276086 0.134666 0.671817 -0.741198
H14   H     H_    0.352845 0.073517 0.691764 0.264690
H15   H     H_    0.317714 0.228027 0.662048 0.215743
H16   H     H_    0.176284 0.139609 0.726761 0.265547
N4    N     N_R   0.223595 0.883939 0.658364 0.225024
O11   O     O_R   0.112123 0.904331 0.726121 -0.365446
O12   O     O_R   0.326536 0.818499 0.671684 -0.405999
C38   C     C_3   0.125880 0.923043 0.527869 -1.018768
H17   H     H_    0.133076 0.984442 0.469608 0.232837
H18   H     H_    0.140007 0.826816 0.500337 0.249720
H19   H     H_    0.021963 0.940629 0.576924 0.266122
C39   C     C_3   0.188474 0.313170 0.393970 -0.897447
H20   H     H_    0.298387 0.334418 0.376930 0.288948
H21   H     H_    0.171609 0.222193 0.426752 0.226694
H22   H     H_    0.164458 0.305226 0.328567 0.207445
N5    N     N_R   0.042408 0.564763 0.695569 0.272560
O13   O     O_R   0.066568 0.609049 0.767714 -0.313433
O14   O     O_R   0.032704 0.445650 0.686682 -0.396411
C40   C     C_3   0.392303 0.526545 0.206789 -0.798653
H23   H     H_    0.352507 0.549761 0.149007 0.258335
H24   H     H_    0.321304 0.462306 0.250632 0.241915
H25   H     H_    0.389564 0.615765 0.243859 0.244118
N6    N     N_R   0.778074 0.575585 0.698676 0.232549
O15   O     O_R   0.749229 0.614730 0.782361 -0.395651
O16   O     O_R   0.773144 0.457777 0.681269 -0.406052
C41   C     C_3   0.791832 0.783937 0.631954 -0.884353
H26   H     H_    0.837438 0.832950 0.568181 0.211231
H27   H     H_    0.679225 0.776676 0.640702 0.283917
H28   H     H_    0.803997 0.839710 0.689656 0.275231

loop_
_geom_bond_atom_site_label_1
_geom_bond_atom_site_label_2
_geom_bond_distance
_ccdc_geom_bond_type
C5    C8    1.404531 A    
N6    O15   1.302930 A    
C1    C24   1.435653 S    
C33   C39   1.500354 S    
C38   H18   1.106098 S    
C23   C24   1.392526 A    
C9    C10   1.390844 A    
C39   H22   1.111263 S    
C29   H11   1.110415 S    
C41   H26   1.109333 S    
N1    C32   1.363470 A    
C6    C21   1.399638 A    
Zn1   O7    2.007320 S    
C16   C17   1.388267 A    
C29   C37   1.533566 S    
C13   C19   1.406732 A    
C18   C19   1.414775 A    
C8    H5    1.071235 S    
C39   H21   1.106774 S    
C19   C22   1.411450 A    
O3    Zn1   1.984294 S    
C20   C21   1.381417 A    
O7    C4    1.313856 A    
C14   H7    1.082423 S    
C33   N2    1.393551 A    
N4    O12   1.300656 A    
O5    C3    1.305490 A    
N3    O10   1.298447 A    
C31   C36   1.501563 S    
C2    C5    1.482799 S    
C27   C28   1.380277 A    
C37   H15   1.102130 S    
C13   C14   1.407918 A    
C7    H4    1.077940 S    
C30   C38   1.534365 S    
C35   C36   1.531259 S    
C38   H19   1.106948 S    
C36   N6    1.451444 S    
C26   C27   1.399805 A    
C32   C33   1.435911 A    
C35   H13   1.088245 S    
C14   C15   1.398420 A    
N5    O14   1.302191 A    
C3    C27   1.424839 S    
N5    O13   1.300814 A    
C17   H3    1.083682 S    
C34   C35   1.491516 S    
C26   H10   1.083262 S    
C7    C11   1.401733 A    
O1    C1    1.312012 A    
Zn2   N1    2.059247 S    
C5    C9    1.385439 A    
C25   H9    1.083102 S    
N3    O9    1.300910 A    
C9    H6    1.053786 S    
C41   H27   1.110147 S    
C40   H23   1.110115 S    
Zn2   O8    1.984291 S    
C37   H16   1.109905 S    
C7    C8    1.398630 A    
C21   H2    1.083721 S    
C39   H20   1.096282 S    
C25   C26   1.395957 A    
C31   C34   1.416128 A    
O3    C2    1.312062 A    
C28   C29   1.490923 S    
C40   H24   1.104167 S    
C10   C12   1.398943 A    
C29   C30   1.533015 S    
C20   N3    1.416285 S    
C4    C6    1.466015 S    
C24   C25   1.414871 A    
C23   C30   1.511977 S    
C31   N1    1.368638 A    
C41   H28   1.110548 S    
Zn1   O5    2.000535 S    
C22   C40   1.517364 S    
C11   C15   1.404534 A    
C32   H12   1.083002 S    
O1    Zn1   2.030642 S    
C30   N4    1.474665 S    
O2    Zn2   2.000535 S    
O8    C4    1.314031 A    
C38   H17   1.112228 S    
O6    C3    1.302869 A    
C35   N5    1.465046 S    
O4    Zn2   2.007320 S    
C36   C41   1.535319 S    
C6    C22   1.414024 A    
N6    O16   1.302853 A    
O2    C1    1.301334 A    
C16   H8    1.073363 S    
N2    C34   1.363206 A    
O4    C2    1.322009 A    
C18   C20   1.395373 A    
C23   C28   1.360473 A    
N4    O11   1.302226 A    
C40   H25   1.110659 S    
C10   C11   1.405225 A    
Zn2   O6    2.030642 S    
C37   H14   1.111652 S    
C12   C16   1.401832 A    
C17   C18   1.401833 A    
C12   C13   1.398137 A    
Zn1   N2    2.058634 S    
C15   H1    1.076330 S    
