data_mof_unit_61200.cif
_audit_creation_date              2012-12-10T19:36:10-0500
_audit_creation_method            fapswitch 2.2
_symmetry_space_group_name_H-M    P1
_symmetry_Int_Tables_number       1
_space_group_crystal_system       triclinic
_cell_length_a                    16.445552
_cell_length_b                    16.972889
_cell_length_c                    23.397027
_cell_angle_alpha                 91.460893
_cell_angle_beta                  93.969539
_cell_angle_gamma                 87.831
_cell_volume                      6508.7283647

loop_
_atom_site_label
_atom_site_type_symbol
_atom_type_description
_atom_site_fract_x
_atom_site_fract_y
_atom_site_fract_z
_atom_type_partial_charge
C1    C     C_R   0.488327 0.652084 0.500028 0.939543
C2    C     C_R   0.522439 0.430389 0.298083 0.134786
C3    C     C_R   0.482594 0.564807 0.763769 0.400603
C4    C     C_R   0.520126 0.428773 0.238445 0.450822
C5    C     C_R   0.507340 0.494649 0.791077 0.121684
C6    C     C_R   0.492936 0.497072 0.208344 -0.083949
C7    C     C_R   0.479887 0.737887 0.505384 -0.286811
C8    C     C_R   0.520204 0.262122 0.495222 -0.288217
C9    C     C_R   0.535586 0.777595 0.543415 0.323510
C10   C     C_R   0.464901 0.222068 0.457131 0.323689
C11   C     C_R   0.529836 0.860240 0.548342 0.340412
C12   C     C_R   0.511691 0.347934 0.500054 0.935122
C13   C     C_R   0.470376 0.139357 0.452939 0.341311
C14   C     C_R   0.464617 0.900971 0.519117 -0.134967
C15   C     C_R   0.535200 0.098895 0.482799 -0.134956
C16   C     C_R   0.500600 0.500877 0.610250 0.941359
C17   C     C_R   0.499393 0.499024 0.389752 0.930689
C18   C     C_R   0.403660 0.860952 0.486838 0.173200
C19   C     C_R   0.595909 0.139177 0.515124 0.172677
C20   C     C_R   0.412395 0.779785 0.477822 0.340156
C21   C     C_R   0.587300 0.220464 0.523483 0.337923
C22   C     C_2   0.468599 0.985606 0.513707 0.000853
C23   C     C_R   0.529895 0.426488 0.760414 0.434081
C24   C     C_2   0.531285 0.014318 0.488440 0.004105
C25   C     C_R   0.755872 0.461105 0.470576 0.568629
C26   C     C_R   0.244151 0.541655 0.527561 0.577377
C27   C     C_R   0.840691 0.465365 0.467289 -0.386381
C28   C     C_R   0.159781 0.536539 0.532381 -0.425458
C29   C     C_R   0.884693 0.519247 0.502141 -0.255139
C30   C     C_R   0.116713 0.477587 0.502090 0.037721
C31   C     C_R   0.843115 0.568117 0.541069 0.411181
C32   C     C_R   0.157636 0.425087 0.465953 0.422127
C33   C     C_R   0.758594 0.562597 0.542858 0.471412
C34   C     C_R   0.467961 0.566459 0.238041 0.491918
C35   C     C_R   0.242051 0.433049 0.460815 0.347959
C36   C     C_2   0.973543 0.526608 0.495337 0.304120
C37   C     C_2   0.029156 0.468088 0.510443 0.502909
C38   C     C_R   0.564872 0.518832 0.124554 0.555736
C39   C     C_R   0.436644 0.469635 0.874805 0.637982
C40   C     C_R   0.428218 0.474631 0.114539 0.542061
C41   C     C_R   0.573432 0.513395 0.884816 0.644687
C42   C     C_R   0.429485 0.472693 0.055020 -0.054712
C43   C     C_R   0.572570 0.514288 0.944360 -0.073163
C44   C     C_R   0.500447 0.494369 0.029809 -0.035297
C45   C     C_R   0.525623 0.427296 0.700311 0.291613
C46   C     C_R   0.501661 0.492491 0.969579 -0.036635
C47   C     C_R   0.569896 0.517962 0.064702 -0.092792
C48   C     C_R   0.432124 0.469146 0.934680 -0.107390
C49   C     C_R   0.361293 0.449277 0.020648 -0.160832
C50   C     C_R   0.640991 0.537105 0.978742 -0.166565
C51   C     C_R   0.361533 0.447105 0.961198 0.212510
C52   C     C_R   0.640752 0.539289 0.038193 0.219234
C53   C     C_R   0.472035 0.568037 0.297723 0.399097
C54   C     C_R   0.502042 0.498367 0.672250 -0.269329
C55   C     C_R   0.498010 0.499317 0.327723 -0.393240
C56   C     C_R   0.479527 0.566919 0.703495 0.001602
H1    H     H_    0.306811 0.432359 0.040041 0.214345
H2    H     H_    0.251429 0.630150 0.581842 0.342103
H3    H     H_    0.335676 0.401624 0.419940 0.414225
H4    H     H_    0.662787 0.598918 0.579484 0.400914
H5    H     H_    0.952493 0.400897 0.545556 0.345967
H6    H     H_    0.952519 0.630118 0.463015 0.374585
H7    H     H_    0.941695 0.614320 0.577361 0.347045
H8    H     H_    0.149758 0.334284 0.412818 0.395745
H9    H     H_    0.569492 0.316412 0.764595 0.404526
H10   H     H_    0.439316 0.626156 0.168465 0.344928
H11   H     H_    0.516842 0.360181 0.631359 0.316270
H12   H     H_    0.695569 0.553767 0.959352 0.213868
H13   H     H_    0.474774 0.638247 0.365024 0.300563
H14   H     H_    0.450794 0.676201 0.775014 0.376829
H15   H     H_    0.539411 0.365207 0.169167 0.353078
H16   H     H_    0.606165 0.763361 0.612876 0.374123
H17   H     H_    0.395370 0.235383 0.387076 0.370416
H18   H     H_    0.619453 0.303150 0.578521 0.359355
H19   H     H_    0.380191 0.698086 0.422065 0.355701
H20   H     H_    0.128269 0.576686 0.560852 0.195263
H21   H     H_    0.872187 0.427683 0.437225 0.214707
H22   H     H_    0.581525 0.976126 0.475263 0.171139
H23   H     H_    0.418328 0.023810 0.526817 0.170198
H24   H     H_    0.359607 0.126020 0.420366 0.362723
H25   H     H_    0.640898 0.873554 0.580350 0.365400
H26   H     H_    0.748447 0.377332 0.412475 0.341362
I1    I     I_    0.302554 0.923002 0.444337 -0.090524
I2    I     I_    0.696440 0.077464 0.558579 -0.098424
I3    I     I_    0.250167 0.409005 0.918891 -0.108441
I4    I     I_    0.752590 0.576146 0.080522 -0.107883
I5    I     I_    0.438909 0.671418 0.658760 -0.231124
I6    I     I_    0.563827 0.326220 0.341871 -0.132382
N1    N     N_R   0.495132 0.497270 0.147507 -0.363215
N2    N     N_R   0.506139 0.491819 0.851842 -0.302385
N3    N     N_R   0.716290 0.510230 0.507380 -0.214501
N4    N     N_R   0.283710 0.489770 0.492620 -0.187767
O1    O     O_R   0.422340 0.612130 0.497340 -0.560412
O2    O     O_2   0.372802 0.448918 0.839197 -0.492185
O3    O     O_2   0.360899 0.453933 0.139614 -0.505765
O4    O     O_2   0.640674 0.534331 0.859747 -0.511678
O5    O     O_3   0.412630 0.096217 0.421364 -0.718463
O6    O     O_3   0.587766 0.903107 0.579964 -0.719858
O7    O     O_3   0.711210 0.408676 0.436563 -0.678400
O8    O     O_3   0.288587 0.597214 0.558705 -0.673115
O9    O     O_3   0.280918 0.382432 0.423966 -0.716532
O10   O     O_3   0.720567 0.611397 0.581299 -0.651089
O11   O     O_3   0.008690 0.397241 0.532941 -0.710113
O12   O     O_R   0.577660 0.387870 0.502660 -0.567878
O13   O     O_3   0.000605 0.594836 0.472942 -0.740288
O14   O     O_3   0.881858 0.621752 0.578150 -0.666849
O15   O     O_3   0.113381 0.367756 0.436023 -0.687593
O16   O     O_3   0.553300 0.359755 0.791018 -0.707585
O17   O     O_3   0.441574 0.634885 0.210475 -0.646166
O18   O     O_3   0.542994 0.357868 0.670652 -0.746894
O19   O     O_3   0.451397 0.638471 0.324948 -0.665338
O20   O     O_3   0.461371 0.628739 0.798157 -0.711546
O21   O     O_3   0.545502 0.359747 0.211217 -0.681855
O22   O     O_3   0.593108 0.734251 0.576361 -0.711106
O23   O     O_R   0.561240 0.618700 0.502080 -0.595144
O24   O     O_3   0.408190 0.265158 0.423341 -0.709859
O25   O     O_3   0.644892 0.256373 0.560089 -0.667894
O26   O     O_3   0.354590 0.744208 0.441211 -0.658871
O27   O     O_R   0.438760 0.381300 0.497920 -0.584373
O28   O     O_R   0.430530 0.496740 0.581480 -0.568770
O29   O     O_R   0.569470 0.503260 0.418520 -0.561566
O30   O     O_R   0.569440 0.503310 0.586210 -0.639094
O31   O     O_R   0.430560 0.496690 0.413790 -0.637771
O32   O     O_2   0.628299 0.540610 0.160158 -0.483615
Zn1   Zn    Zn3+2 0.407250 0.495610 0.496840 1.047816
Zn2   Zn    Zn3+2 0.592750 0.504390 0.503160 1.040548

loop_
_geom_bond_atom_site_label_1
_geom_bond_atom_site_label_2
_ccdc_geom_bond_type
C23   C45   A    
N3    Zn2   S    
H24   O5    S    
C27   C29   A    
H26   O7    S    
C14   C18   A    
N4    Zn1   S    
C51   I3    S    
C20   O26   S    
H6    O13   S    
C15   C19   A    
C29   C36   S    
H17   O24   S    
C11   O6    S    
C9    O22   S    
C36   C37   D    
H5    O11   S    
C22   H23   S    
C12   O12   A    
C2    C55   A    
C16   O28   A    
C11   C14   A    
O31   Zn1   S    
C41   O4    S    
H25   O6    S    
C26   N4    A    
H16   O22   S    
C49   H1    S    
H15   O21   S    
C16   O30   A    
C21   O25   S    
C25   O7    S    
C48   C51   A    
C44   C46   A    
C49   C51   A    
C32   O15   S    
C50   C52   A    
C31   C33   A    
C2    I6    S    
C40   N1    A    
C17   C55   S    
H9    O16   S    
C5    N2    S    
C44   C47   A    
C35   N4    A    
C53   O19   S    
C40   C42   A    
C41   N2    A    
C41   C43   A    
H19   O26   S    
C42   C44   A    
H4    O10   S    
C17   O31   A    
C8    C21   A    
O1    Zn1   S    
C53   C55   A    
C54   C56   A    
C25   N3    A    
C33   O10   S    
H3    O9    S    
C32   C35   A    
C4    O21   S    
H2    O8    S    
C4    C6    A    
C37   O11   S    
C45   O18   S    
C56   I5    S    
C27   H21   S    
C6    C34   A    
C30   C37   S    
O30   Zn2   S    
C2    C4    A    
C39   O2    S    
C12   O27   A    
C9    C11   A    
C3    C56   A    
H11   O18   S    
C5    C23   A    
C3    O20   S    
C8    C12   S    
C18   I1    S    
H7    O14   S    
O23   Zn2   S    
C38   C47   A    
H14   O20   S    
O27   Zn1   S    
C17   O29   A    
C15   C24   S    
C45   C54   A    
C13   C15   A    
C31   O14   S    
C22   C24   D    
C40   O3    S    
C19   I2    S    
C28   H20   S    
C3    C5    A    
C10   O24   S    
H8    O15   S    
C24   H22   S    
C7    C9    A    
H18   O25   S    
C39   N2    A    
C19   C21   A    
C36   O13   S    
C1    C7    S    
C8    C10   A    
C35   O9    S    
C10   C13   A    
C43   C50   A    
C47   C52   A    
C25   C27   A    
C6    N1    S    
C26   C28   A    
C38   N1    A    
C14   C22   S    
C52   I4    S    
O29   Zn2   S    
C29   C31   A    
C30   C32   A    
H13   O19   S    
C23   O16   S    
C28   C30   A    
O28   Zn1   S    
C18   C20   A    
H10   O17   S    
C13   O5    S    
C43   C46   A    
C16   C54   S    
C42   C49   A    
C46   C48   A    
O12   Zn2   S    
C34   C53   A    
C1    O1    A    
C7    C20   A    
C34   O17   S    
C1    O23   A    
C50   H12   S    
C38   O32   S    
C26   O8    S    
C39   C48   A    
C33   N3    A    
