data_mof_unit_15866.cif
_audit_creation_date              2012-12-11T15:39:30-0500
_audit_creation_method            fapswitch 2.2
_symmetry_space_group_name_H-M    P1
_symmetry_Int_Tables_number       1
_space_group_crystal_system       triclinic
_cell_length_a                    14.352009
_cell_length_b                    14.790838
_cell_length_c                    33.188309
_cell_angle_alpha                 97.605302
_cell_angle_beta                  90.362426
_cell_angle_gamma                 118.907661
_cell_volume                      6092.97880434

loop_
_atom_site_label
_atom_site_type_symbol
_atom_type_description
_atom_site_fract_x
_atom_site_fract_y
_atom_site_fract_z
_atom_type_partial_charge
C1    C     C_R   0.616929 0.910248 0.437030 0.543440
C2    C     C_R   0.712262 0.437868 0.949196 0.533426
C3    C     C_R   0.753362 0.819787 0.765875 -0.115033
C4    C     C_R   0.746121 0.840911 0.726795 -0.115065
C5    C     C_R   0.685687 0.759563 0.694834 0.032406
C6    C     C_R   0.632872 0.655878 0.702959 -0.111682
C7    C     C_R   0.640009 0.634602 0.742462 -0.110233
C8    C     C_R   0.700518 0.716697 0.774229 0.032420
C9    C     C_R   0.571016 0.734867 0.632767 -0.119483
C10   C     C_R   0.553681 0.771005 0.598254 -0.126827
C11   C     C_R   0.739168 0.906227 0.604906 -0.128536
C12   C     C_3   0.520475 0.341507 0.337917 -0.401717
C13   C     C_R   0.743476 0.716448 0.945936 0.567557
C14   C     C_R   0.825565 0.423609 0.162320 -0.119149
C15   C     C_R   0.821001 0.437537 0.121701 -0.124850
C16   C     C_R   0.761555 0.334160 0.243506 -0.117226
C17   C     C_R   0.750991 0.319000 0.284133 -0.117822
C18   C     C_R   0.735791 0.388599 0.312729 0.028115
C19   C     C_R   0.739228 0.477667 0.301078 -0.115998
C20   C     C_R   0.748333 0.492101 0.260378 -0.117130
C21   C     C_R   0.756064 0.418571 0.231207 0.027142
C22   C     C_R   0.748588 0.425231 0.187722 0.030375
C23   C     C_R   0.600216 0.332687 0.364666 0.012814
C24   C     C_R   0.593827 0.205271 0.456508 0.543471
C25   C     C_R   0.567484 0.288546 0.400303 -0.105375
C26   C     C_R   0.740631 0.302519 0.413412 -0.135035
C27   C     C_R   0.774601 0.347581 0.378342 -0.137246
C28   C     C_R   0.704547 0.360671 0.353264 0.041732
C29   C     C_R   0.635798 0.269731 0.423974 0.007653
C30   C     C_R   0.245183 0.878437 0.393344 0.020031
C31   C     C_R   0.234178 0.960289 0.380696 -0.128544
C32   C     C_R   0.210606 0.958136 0.339574 -0.116122
C33   C     C_R   0.756774 0.869321 0.639195 -0.119102
C34   C     C_R   0.197017 0.873978 0.310704 0.039869
C35   C     C_R   0.200926 0.789133 0.323279 -0.113452
C36   C     C_R   0.295687 0.892854 0.434379 0.541619
C37   C     C_R   0.224670 0.791127 0.364380 -0.128698
C38   C     C_R   0.196636 0.808419 0.163058 -0.111761
C39   C     C_R   0.168368 0.786834 0.121205 -0.123577
C40   C     C_R   0.090279 0.900812 0.129639 -0.128139
C41   C     C_R   0.118128 0.921817 0.171610 -0.115095
C42   C     C_R   0.167839 0.872587 0.188483 0.039120
C43   C     C_1   0.178947 0.877958 0.231877 -0.030976
C44   C     C_R   0.671980 0.785574 0.654335 0.033304
C45   C     C_1   0.186437 0.877411 0.267971 -0.031138
C46   C     C_R   0.110695 0.829152 0.104346 0.021528
C47   C     C_R   0.637568 0.878462 0.395541 0.020171
C48   C     C_R   0.613909 0.904779 0.551558 0.543458
C49   C     C_R   0.552872 0.799852 0.368474 -0.130523
C50   C     C_R   0.565223 0.787546 0.326775 -0.117590
C51   C     C_R   0.662341 0.852963 0.311880 0.037673
C52   C     C_R   0.749283 0.926018 0.338850 -0.115796
C53   C     C_R   0.737155 0.938630 0.380523 -0.126243
C54   C     C_R   0.778682 0.920027 0.174758 -0.116417
C55   C     C_R   0.636751 0.859113 0.584742 0.019383
C56   C     C_R   0.793693 0.907064 0.133307 -0.129145
C57   C     C_R   0.618840 0.752240 0.121612 -0.126579
C58   C     C_R   0.603955 0.765559 0.162975 -0.116064
C59   C     C_R   0.685367 0.847182 0.189736 0.039289
C60   C     C_R   0.589771 0.199537 0.570853 0.541862
C61   C     C_1   0.677000 0.850176 0.232776 -0.034597
C62   C     C_1   0.670451 0.850851 0.268853 -0.034967
C63   C     C_R   0.715707 0.820341 0.106689 0.021945
C64   C     C_R   0.623827 0.251305 0.613608 0.019729
C65   C     C_R   0.559424 0.283506 0.636129 -0.129044
C66   C     C_R   0.052180 0.781348 0.063773 0.540607
C67   C     C_R   0.577022 0.309125 0.678513 -0.116601
C68   C     C_R   0.659153 0.303113 0.698742 0.041147
C69   C     C_R   0.728346 0.278550 0.676434 -0.113783
C70   C     C_R   0.711174 0.253216 0.634036 -0.129247
C71   C     C_R   0.762322 0.344442 0.845072 -0.093315
C72   C     C_R   0.288798 0.886708 0.548408 0.544729
C73   C     C_R   0.771024 0.369326 0.887489 -0.094989
C74   C     C_R   0.594567 0.353077 0.884578 -0.127795
C75   C     C_R   0.586072 0.328135 0.842206 -0.114761
C76   C     C_R   0.671501 0.327693 0.822375 0.033224
C77   C     C_R   0.744085 0.487130 0.066295 0.543307
C78   C     C_1   0.669187 0.318765 0.778824 -0.029114
C79   C     C_1   0.666153 0.312812 0.742327 -0.029452
C80   C     C_R   0.689311 0.378906 0.907502 0.011385
C81   C     C_R   0.066438 0.752649 0.907843 0.027575
C82   C     C_R   0.102538 0.851630 0.896430 -0.202228
C83   C     C_R   0.120721 0.865479 0.855965 -0.151493
C84   C     C_R   0.738439 0.451641 0.106017 0.021925
C85   C     C_R   0.103731 0.780649 0.826504 -0.027757
C86   C     C_R   0.075337 0.683779 0.838485 -0.078521
C87   C     C_R   0.057361 0.669683 0.878826 0.376159
C88   C     C_R   0.742986 0.789237 0.066412 0.553383
C89   C     C_R   0.157028 0.742673 0.758007 -0.112797
C90   C     C_R   0.159665 0.748383 0.716609 -0.110518
C91   C     C_R   0.115421 0.802325 0.699428 0.032207
C92   C     C_R   0.067776 0.850048 0.724271 -0.110518
C93   C     C_R   0.065210 0.844382 0.765853 -0.105312
C94   C     C_R   0.110005 0.790704 0.783001 0.035800
C95   C     C_R   0.174728 0.919506 0.646963 -0.120733
C96   C     C_R   0.657951 0.446492 0.131037 -0.123286
C97   C     C_R   0.218724 0.940628 0.609830 -0.128921
C98   C     C_R   0.166303 0.757444 0.590294 -0.128320
C99   C     C_R   0.021361 0.731900 0.947288 0.555126
C100  C     C_R   0.121679 0.736275 0.627266 -0.122131
C101  C     C_R   0.131364 0.818218 0.656751 0.032044
C102  C     C_R   0.220230 0.860691 0.582322 0.021994
C103  C     C_R   0.728041 0.701505 0.901127 0.018636
C104  C     C_R   0.629118 0.636004 0.878659 -0.121843
C105  C     C_R   0.619934 0.635103 0.836362 -0.114272
C106  C     C_R   0.709915 0.698344 0.816446 0.032668
C107  C     C_R   0.809568 0.755603 0.838681 -0.114544
C108  C     C_R   0.663490 0.434158 0.171607 -0.120712
C109  C     C_R   0.818092 0.758187 0.880412 -0.122055
Cr1   Cr    Cr6+3 0.424820 0.846020 0.489780 1.008726
Cr2   Cr    Cr6+3 0.657880 0.078580 0.505700 1.008673
Cr3   Cr    Cr6+3 0.417280 0.075360 0.504550 1.008037
Cr4   Cr    Cr6+3 0.903360 0.812540 0.006510 1.004185
Cr5   Cr    Cr6+3 0.914630 0.587050 0.006280 1.042348
Cr6   Cr    Cr6+3 0.673560 0.582680 0.008540 1.012648
F1    F     F_    0.022737 0.572650 0.888458 -0.644173
H1    H     H_    0.593432 0.457308 0.119939 0.130808
H2    H     H_    0.095442 0.971572 0.191095 0.105433
H3    H     H_    0.045073 0.933847 0.117639 0.124552
H4    H     H_    0.884157 0.441347 0.103095 0.124796
H5    H     H_    0.207401 0.024019 0.330123 0.104395
H6    H     H_    0.869318 0.960389 0.122763 0.120895
H7    H     H_    0.842022 0.983584 0.195381 0.103586
H8    H     H_    0.824924 0.976546 0.327496 0.106001
H9    H     H_    0.803892 0.999618 0.400610 0.126187
H10   H     H_    0.475105 0.752611 0.379051 0.125703
H11   H     H_    0.531312 0.709095 0.174376 0.104410
H12   H     H_    0.486329 0.263143 0.408250 0.126505
H13   H     H_    0.557288 0.684879 0.101813 0.122110
H14   H     H_    0.497647 0.730489 0.306004 0.105184
H15   H     H_    0.844876 0.388518 0.904226 0.180574
H16   H     H_    0.854249 0.367946 0.369679 0.109339
H17   H     H_    0.828633 0.343692 0.829900 0.130656
H18   H     H_    0.792368 0.274087 0.691914 0.107860
H19   H     H_    0.762219 0.228791 0.617621 0.127112
H20   H     H_    0.491742 0.283101 0.621318 0.123722
H21   H     H_    0.515235 0.314768 0.824800 0.107086
H22   H     H_    0.530241 0.359897 0.898948 0.130531
H23   H     H_    0.891279 0.415881 0.174347 0.105604
H24   H     H_    0.523434 0.328667 0.695622 0.100523
H25   H     H_    0.110808 0.916768 0.918329 0.130578
H26   H     H_    0.086410 0.657165 0.634019 0.105884
H27   H     H_    0.748668 0.249919 0.292840 0.112149
H28   H     H_    0.199840 0.713708 0.698275 0.105345
H29   H     H_    0.193537 0.702266 0.770622 0.104765
H30   H     H_    0.144830 0.941510 0.847470 0.122416
H31   H     H_    0.033570 0.892339 0.711580 0.099931
H32   H     H_    0.027743 0.881418 0.784465 0.093236
H33   H     H_    0.183222 0.983959 0.669311 0.102953
H34   H     H_    0.795025 0.289211 0.431271 0.125913
H35   H     H_    0.258984 0.020821 0.604184 0.126731
H36   H     H_    0.061213 0.617055 0.816207 0.127850
H37   H     H_    0.164388 0.694116 0.569100 0.124913
H38   H     H_    0.558719 0.589945 0.893876 0.125669
H39   H     H_    0.767562 0.276869 0.221330 0.108375
H40   H     H_    0.895247 0.808209 0.896887 0.136722
H41   H     H_    0.836125 0.908581 0.654690 0.100429
H42   H     H_    0.785066 0.921735 0.721992 0.101301
H43   H     H_    0.798628 0.884936 0.789953 0.104184
H44   H     H_    0.542090 0.589754 0.819735 0.104767
H45   H     H_    0.185140 0.731416 0.102494 0.126250
H46   H     H_    0.585982 0.591478 0.678846 0.100802
H47   H     H_    0.599118 0.554451 0.748137 0.102335
H48   H     H_    0.503858 0.670949 0.643810 0.101486
H49   H     H_    0.473749 0.732740 0.583315 0.128946
H50   H     H_    0.880517 0.802938 0.824069 0.106764
H51   H     H_    0.602251 0.433457 0.190704 0.106898
H52   H     H_    0.804996 0.973308 0.594877 0.123907
H53   H     H_    0.729919 0.533151 0.323072 0.111635
H54   H     H_    0.745724 0.558654 0.251345 0.113173
H55   H     H_    0.440242 0.307267 0.349839 0.114544
H56   H     H_    0.235369 0.770162 0.175861 0.107983
H57   H     H_    0.547035 0.424869 0.336463 0.127807
H58   H     H_    0.512054 0.299174 0.306706 0.145710
H59   H     H_    0.190136 0.723429 0.301092 0.107306
H60   H     H_    0.232951 0.727135 0.373035 0.123320
H61   H     H_    0.249729 0.028815 0.402164 0.123258
O1    O     O_R   0.318160 0.824460 0.443680 -0.521525
O2    O     O_R   0.668160 0.499860 0.053480 -0.518061
O3    O     O_R   0.689170 0.693840 0.050110 -0.495562
O4    O     O_R   0.525040 0.857250 0.449830 -0.502701
O5    O     O_R   0.803860 0.812940 0.962540 -0.508871
O6    O     O_R   0.982950 0.787950 0.964120 -0.544899
O7    O     O_R   0.007050 0.649970 0.960540 -0.436070
O8    O     O_R   0.807910 0.482370 0.965590 -0.490818
O9    O     O_R   0.643310 0.460980 0.963840 -0.526652
O10   O     O_R   0.666140 0.657800 0.967020 -0.497720
O11   O     O_3   0.830520 0.660760 0.007110 -0.268532
O12   O     O_R   0.645130 0.163230 0.552140 -0.502430
O13   O     O_R   0.684760 0.998800 0.456360 -0.518173
O14   O     O_R   0.647540 0.166310 0.470260 -0.499605
O15   O     O_R   0.500960 0.181750 0.467450 -0.521445
O16   O     O_R   0.331100 0.981120 0.457080 -0.501968
O17   O     O_R   0.315560 0.821140 0.532010 -0.520542
O18   O     O_R   0.522630 0.854180 0.531710 -0.501247
O19   O     O_R   0.682160 0.995480 0.544690 -0.519355
O20   O     O_R   0.498360 0.178430 0.555780 -0.519595
O21   O     O_R   0.328690 0.978040 0.538950 -0.501866
O22   O     O_3   0.499990 0.999990 0.500010 -0.233180
O23   O     O_R   0.828710 0.851830 0.052170 -0.514429
O24   O     O_R   0.005980 0.823990 0.047210 -0.502947
O25   O     O_R   0.031900 0.688850 0.050170 -0.516524
O26   O     O_R   0.830940 0.518420 0.048680 -0.499987

loop_
_geom_bond_atom_site_label_1
_geom_bond_atom_site_label_2
_ccdc_geom_bond_type
C48   C55   S    
C20   H54   S    
C54   H7    S    
C73   H15   S    
Cr2   O14   S    
C16   C21   A    
C13   O10   A    
C63   C88   S    
C41   C42   A    
C19   C20   A    
C69   H18   S    
C81   C82   A    
C57   C58   A    
C7    C8    A    
C47   C49   A    
Cr4   O6    S    
C85   C86   A    
C40   C46   A    
C49   H10   S    
C74   H22   S    
C12   C23   S    
C26   C27   A    
C93   C94   A    
Cr5   O8    S    
C31   H61   S    
C57   H13   S    
C35   C37   A    
C25   H12   S    
C76   C78   S    
C46   C66   S    
C72   O17   A    
C5    C6    A    
Cr5   O7    S    
C105  H44   S    
C106  C107  A    
Cr1   O1    S    
Cr5   O11   S    
C15   H4    S    
C93   H32   S    
C17   C18   A    
C34   C35   A    
C84   C96   A    
C89   C94   A    
C109  H40   S    
C36   O16   A    
C92   C93   A    
C50   H14   S    
Cr2   O22   S    
C24   C29   S    
C66   O24   A    
C73   C80   A    
C4    H42   S    
C6    H46   S    
Cr1   O4    S    
C16   C17   A    
C65   C67   A    
C13   O5    A    
Cr1   O17   S    
C68   C69   A    
Cr5   O25   S    
C57   C63   A    
C95   H33   S    
C64   C70   A    
C41   H2    S    
C13   C103  S    
C9    C10   A    
Cr3   O22   S    
C99   O6    A    
C97   C102  A    
C81   C87   A    
Cr2   O19   S    
C47   C53   A    
C1    O13   A    
C68   C79   S    
C70   H19   S    
C96   C108  A    
C107  H50   S    
C58   H11   S    
C74   C80   A    
C21   C22   S    
C48   O19   A    
C92   H31   S    
C3    H43   S    
C27   H16   S    
C107  C109  A    
C61   C62   T    
C51   C62   S    
C91   C101  S    
C82   H25   S    
C77   O26   A    
Cr3   O21   S    
C104  C105  A    
C33   H41   S    
C60   C64   S    
C88   O3    A    
C12   H55   S    
C54   C59   A    
C25   C29   A    
C54   C56   A    
C59   C61   S    
C74   C75   A    
C51   C52   A    
C96   H1    S    
C26   H34   S    
C18   C28   S    
C3    C8    A    
C75   H21   S    
C91   C92   A    
C71   C73   A    
Cr6   O9    S    
C1    O4    A    
C78   C79   T    
C18   C19   A    
C81   C99   S    
C77   C84   S    
C58   C59   A    
C98   C102  A    
Cr4   O11   S    
C7    H47   S    
C67   C68   A    
C30   C37   A    
C56   H6    S    
C9    H48   S    
C89   H29   S    
C75   C76   A    
C2    O9    A    
C67   H24   S    
C86   H36   S    
Cr3   O15   S    
C83   H30   S    
Cr6   O10   S    
C85   C94   S    
C31   C32   A    
C14   C15   A    
C11   C33   A    
C30   C31   A    
C16   H39   S    
C50   C51   A    
C97   H35   S    
C56   C63   A    
C36   O1    A    
C24   O15   A    
C34   C45   S    
C77   O2    A    
C23   C28   A    
C14   H23   S    
C10   C55   A    
C43   C45   T    
C87   F1    S    
C6    C7    A    
C53   H9    S    
C60   O20   A    
C26   C29   A    
C39   C46   A    
C40   C41   A    
C83   C85   A    
C108  H51   S    
C82   C83   A    
Cr4   O24   S    
C48   O18   A    
C11   H52   S    
C39   H45   S    
C42   C43   S    
C3    C4    A    
Cr4   O5    S    
Cr3   O20   S    
C103  C104  A    
C11   C55   A    
C52   C53   A    
C99   O7    A    
C9    C44   A    
Cr1   O22   S    
C86   C87   A    
C33   C44   A    
C32   H5    S    
C5    C44   S    
C1    C47   S    
C19   H53   S    
C4    C5    A    
C8    C106  S    
C71   C76   A    
C71   H17   S    
Cr6   O3    S    
C95   C97   A    
C38   H56   S    
C15   C84   A    
C17   H27   S    
C105  C106  A    
C98   C100  A    
C60   O12   A    
C30   C36   S    
C103  C109  A    
C35   H59   S    
C64   C65   A    
C14   C22   A    
C2    O8    A    
C100  H26   S    
C37   H60   S    
Cr6   O11   S    
C52   H8    S    
C88   O23   A    
C90   C91   A    
C38   C39   A    
C72   C102  S    
C10   H49   S    
C22   C108  A    
C100  C101  A    
Cr4   O23   S    
C24   O14   A    
C23   C25   A    
C69   C70   A    
Cr6   O2    S    
Cr3   O16   S    
C98   H37   S    
C65   H20   S    
C2    C80   S    
C72   O21   A    
C66   O25   A    
C38   C42   A    
C40   H3    S    
C20   C21   A    
Cr2   O13   S    
C49   C50   A    
Cr1   O18   S    
C12   H58   S    
Cr5   O26   S    
Cr2   O12   S    
C104  H38   S    
C89   C90   A    
C90   H28   S    
C95   C101  A    
C32   C34   A    
C12   H57   S    
C27   C28   A    
