data_mof_unit_8233.cif
_audit_creation_date              2012-12-10T17:37:15-0500
_audit_creation_method            fapswitch 2.2
_symmetry_space_group_name_H-M    P1
_symmetry_Int_Tables_number       1
_space_group_crystal_system       triclinic
_cell_length_a                    12.32758
_cell_length_b                    13.171186
_cell_length_c                    15.85674
_cell_angle_alpha                 77.803172
_cell_angle_beta                  101.180176
_cell_angle_gamma                 116.911762
_cell_volume                      2229.68777309

loop_
_atom_site_label
_atom_site_type_symbol
_atom_type_description
_atom_site_fract_x
_atom_site_fract_y
_atom_site_fract_z
_atom_type_partial_charge
C1    C     C_R   0.854557 0.286291 0.508163 0.779432
C2    C     C_3   0.999875 0.500054 0.916926 0.133373
C3    C     C_3   0.106833 0.579329 0.029768 -0.014957
C4    C     C_3   0.000774 0.499491 0.083273 0.132949
C5    C     C_3   0.016244 0.604364 0.956149 -0.203972
C6    C     C_3   0.908830 0.523359 0.010699 -0.149910
C7    C     C_1   0.999073 0.500017 0.825085 -0.053059
C8    C     C_1   0.000793 0.499443 0.175004 -0.052666
C9    C     C_R   0.280650 0.014803 0.369749 -0.184161
C10   C     C_R   0.228983 0.834620 0.465758 -0.052950
C11   C     C_R   0.813484 0.085277 0.567320 -0.239792
C12   C     C_R   0.999538 0.499812 0.659906 0.819835
C13   C     C_R   0.739174 0.968129 0.576191 -0.143063
C14   C     C_R   0.619043 0.925023 0.535513 0.182264
C15   C     C_R   0.569849 0.003571 0.489266 0.064554
C16   C     C_R   0.652684 0.120564 0.468251 0.042813
C17   C     C_R   0.442885 0.971892 0.462207 0.078038
C18   C     C_R   0.405196 0.047301 0.399382 0.162735
C19   C     C_R   0.492129 0.154359 0.367262 -0.233814
C20   C     C_R   0.613892 0.191302 0.401951 -0.185988
C21   C     C_R   0.351676 0.870870 0.499785 -0.250790
C22   C     C_R   0.193009 0.907689 0.401499 -0.189860
C23   C     C_R   0.145430 0.713613 0.487078 0.795621
C24   C     C_R   0.772722 0.162534 0.512656 -0.099384
C25   C     C_R   0.345730 0.328759 0.638308 -0.293743
C26   C     C_R   0.759492 0.644246 0.382384 0.077807
C27   C     C_R   0.661421 0.672964 0.354723 -0.246435
C28   C     C_R   0.556916 0.616873 0.397865 -0.198290
C29   C     C_R   0.549982 0.531981 0.470433 -0.009370
C30   C     C_R   0.652322 0.504416 0.495686 0.287019
C31   C     C_R   0.445918 0.473489 0.518755 -0.030704
C32   C     C_R   0.445678 0.387526 0.589808 0.172386
C33   C     C_R   0.545295 0.360804 0.612423 -0.277016
C34   C     C_R   0.000379 0.500074 0.340102 0.818617
C35   C     C_R   0.646411 0.418262 0.566718 -0.175697
C36   C     C_R   0.341602 0.496666 0.500465 0.028490
C37   C     C_R   0.246299 0.355616 0.616929 0.081867
C38   C     C_3   0.984482 0.395202 0.044069 -0.205015
C39   C     C_3   0.892529 0.419254 0.970026 -0.152277
C40   C     C_1   0.998976 0.499938 0.749514 -0.172318
C41   C     C_1   0.000759 0.499674 0.250524 -0.171890
C42   C     C_3   0.090728 0.476462 0.989686 -0.015172
Cu1   Cu    Cu3+1 0.098270 0.475420 0.519690 0.941319
Cu2   Cu    Cu3+1 0.901730 0.524580 0.480310 0.924631
H1    H     H_    0.803967 0.353459 0.944069 0.139538
H2    H     H_    0.374179 0.818295 0.555709 0.170153
H3    H     H_    0.904774 0.115268 0.601974 0.160340
H4    H     H_    0.776817 0.910086 0.613643 0.150624
H5    H     H_    0.677286 0.274803 0.374106 0.176735
H6    H     H_    0.168719 0.310661 0.654057 0.124662
H7    H     H_    0.545608 0.295047 0.666642 0.152745
H8    H     H_    0.344718 0.262721 0.692558 0.140274
H9    H     H_    0.334087 0.560938 0.448085 0.125630
H10   H     H_    0.840079 0.687826 0.348285 0.126249
H11   H     H_    0.971948 0.309768 0.081033 0.142937
H12   H     H_    0.483441 0.641987 0.373296 0.146029
H13   H     H_    0.666259 0.738645 0.299513 0.154130
H14   H     H_    0.718080 0.391988 0.589751 0.205512
H15   H     H_    0.833555 0.542359 0.020644 0.142702
H16   H     H_    0.029624 0.690046 0.919279 0.142814
H17   H     H_    0.098222 0.880676 0.374047 0.146112
H18   H     H_    0.465369 0.211480 0.317236 0.150034
H19   H     H_    0.251484 0.071124 0.320648 0.137076
N1    N     N_R   0.246280 0.438200 0.549540 -0.181776
N2    N     N_R   0.754330 0.561180 0.450980 -0.206804
O1    O     O_R   0.972510 0.318130 0.524770 -0.579053
O2    O     O_R   0.806530 0.359650 0.491510 -0.604781
O3    O     O_R   0.082970 0.479240 0.637550 -0.572008
O4    O     O_R   0.916990 0.520750 0.604290 -0.592958
O5    O     O_R   0.193470 0.640350 0.508490 -0.582915
O6    O     O_R   0.027490 0.681870 0.475230 -0.585923
O7    O     O_R   0.083010 0.479250 0.395710 -0.574075
O8    O     O_R   0.917030 0.520760 0.362450 -0.587941
C43   C     C_3   0.557496 0.797270 0.531655 -0.894479
H20   H     H_    0.519504 0.749285 0.593620 0.235973
H21   H     H_    0.485472 0.774818 0.475751 0.237696
H22   H     H_    0.625370 0.768259 0.521985 0.245625
C44   C     C_1   0.224066 0.666848 0.063419 0.228810
N3    N     N_1   0.316455 0.735780 0.090009 -0.286600
C45   C     C_1   0.190245 0.450779 0.977340 0.230276
N4    N     N_1   0.268693 0.430570 0.967568 -0.284824

loop_
_geom_bond_atom_site_label_1
_geom_bond_atom_site_label_2
_ccdc_geom_bond_type
C12   O4    A    
C3    C42   S    
C42   C45   S    
Cu1   O7    S    
C11   H3    S    
C19   C20   A    
C4    C8    S    
C28   H12   S    
C10   C22   A    
C12   O3    A    
C26   C27   A    
C29   C30   A    
C43   H21   S    
C30   C35   A    
C35   H14   S    
C14   C43   S    
C28   C29   A    
C38   C42   S    
C5    C6    S    
C9    C22   A    
C19   H18   S    
C15   C16   A    
C11   C24   A    
Cu2   O6    S    
C18   C19   A    
C36   H9    S    
C25   C37   A    
C2    C39   S    
C38   H11   S    
C2    C7    S    
Cu1   O3    S    
C43   H22   S    
C7    C40   T    
C39   H1    S    
C25   C32   A    
C16   C24   A    
C9    H19   S    
C13   C14   A    
C23   O5    A    
Cu2   N2    S    
C34   C41   S    
C26   H10   S    
Cu1   N1    S    
C1    O1    A    
C10   C21   A    
C43   H20   S    
C23   O6    A    
C8    C41   T    
C4    C6    S    
C27   H13   S    
C44   N3    T    
C17   C21   A    
C12   C40   S    
Cu1   Cu2   S    
C20   H5    S    
C31   C32   A    
C14   C15   A    
C16   C20   A    
C17   C18   A    
Cu2   O4    S    
C4    C38   S    
Cu1   O5    S    
C2    C5    S    
C3    C4    S    
C34   O7    A    
C37   N1    A    
C21   H2    S    
C15   C17   A    
C5    H16   S    
C6    C39   S    
C26   N2    A    
C6    H15   S    
C45   N4    T    
C3    C5    S    
C13   H4    S    
C1    O2    A    
C10   C23   S    
C33   H7    S    
C32   C33   A    
C25   H8    S    
C29   C31   A    
C22   H17   S    
C37   H6    S    
C11   C13   A    
C38   C39   S    
C2    C42   S    
Cu1   O1    S    
C33   C35   A    
Cu2   O8    S    
C30   N2    A    
C34   O8    A    
C9    C18   A    
C1    C24   S    
C27   C28   A    
C31   C36   A    
Cu2   O2    S    
C36   N1    A    
C3    C44   S    
