data_mof_unit_23983.cif
_audit_creation_date              2012-12-10T18:58:43-0500
_audit_creation_method            fapswitch 2.2
_symmetry_space_group_name_H-M    P1
_symmetry_Int_Tables_number       1
_space_group_crystal_system       triclinic
_cell_length_a                    10.654057
_cell_length_b                    9.774165
_cell_length_c                    17.574653
_cell_angle_alpha                 90.063952
_cell_angle_beta                  89.464921
_cell_angle_gamma                 89.439391
_cell_volume                      1829.9591558

loop_
_atom_site_label
_atom_site_type_symbol
_atom_type_description
_atom_site_fract_x
_atom_site_fract_y
_atom_site_fract_z
_atom_type_partial_charge
C1    C     C_R   0.260234 0.500786 0.500545 0.933891
C2    C     C_R   0.495702 0.499910 0.647567 0.873438
C3    C     C_R   0.872082 0.499697 0.498895 -0.142289
C4    C     C_R   0.127681 0.503272 0.501045 -0.139475
C5    C     C_R   0.589246 0.606347 0.843855 0.127783
C6    C     C_R   0.620686 0.375877 0.155469 0.130053
C7    C     C_R   0.538186 0.611640 0.144163 0.143947
C8    C     C_R   0.518190 0.367569 0.850466 0.154087
C9    C     C_R   0.530916 0.619653 0.772457 0.124054
C10   C     C_R   0.590206 0.374876 0.234130 0.103889
C11   C     C_R   0.507090 0.613843 0.222668 0.090132
C12   C     C_R   0.739720 0.499637 0.499070 0.922025
C13   C     C_R   0.483888 0.372677 0.773021 0.090116
C14   C     C_R   0.499315 0.498169 0.732128 -0.201714
C15   C     C_R   0.532693 0.495266 0.268452 -0.210332
C16   C     C_R   0.601913 0.071060 0.525196 -0.091443
C17   C     C_R   0.398859 0.928857 0.473675 -0.075079
C18   C     C_R   0.398820 0.073113 0.473726 -0.090363
C19   C     C_R   0.601529 0.926854 0.525771 -0.093053
C20   C     C_R   0.576509 0.482027 0.883424 -0.013777
C21   C     C_R   0.592092 0.492563 0.112022 -0.014608
C22   C     C_3   0.665406 0.723404 0.877918 -0.408846
C23   C     C_1   0.598111 0.481395 0.963365 -0.045188
C24   C     C_3   0.774170 0.764646 0.825583 -0.896338
C25   C     C_3   0.682886 0.252152 0.115977 -0.382835
C26   C     C_3   0.585836 0.145044 0.093491 -0.912837
C27   C     C_3   0.512085 0.735010 0.092433 -0.393387
C28   C     C_3   0.385324 0.723773 0.052842 -0.877422
C29   C     C_3   0.489173 0.243000 0.899835 -0.396496
C30   C     C_3   0.362375 0.260527 0.940327 -0.895816
C31   C     C_3   0.492484 0.762066 0.743933 -0.361743
C32   C     C_3   0.350372 0.773887 0.732932 -0.846083
C33   C     C_3   0.621761 0.244747 0.279874 -0.354604
C34   C     C_1   0.602360 0.484863 0.031041 -0.025330
C35   C     C_3   0.740194 0.260965 0.326904 -0.818909
C36   C     C_3   0.440675 0.741026 0.255239 -0.355281
C37   C     C_3   0.534034 0.848330 0.283128 -0.834245
C38   C     C_3   0.422036 0.247855 0.737019 -0.346096
C39   C     C_3   0.519372 0.142060 0.709066 -0.830832
C40   C     C_3   0.132658 0.439065 0.642126 -0.919730
C41   C     C_3   0.867309 0.596037 0.362798 -0.917169
C42   C     C_3   0.855652 0.418254 0.636045 -0.882307
C43   C     C_3   0.144245 0.584235 0.364121 -0.911491
C44   C     C_R   0.063436 0.466868 0.568386 0.161548
C45   C     C_R   0.936177 0.544961 0.433036 0.149942
C46   C     C_R   0.932810 0.460771 0.566525 0.143080
C47   C     C_R   0.066953 0.542895 0.433627 0.155023
C48   C     C_R   0.506164 0.499086 0.352324 0.875843
H1    H     H_    0.683104 0.125028 0.545542 0.130239
H2    H     H_    0.550146 0.086654 0.142859 0.245221
H3    H     H_    0.503921 0.195531 0.066957 0.281872
H4    H     H_    0.628527 0.071116 0.052541 0.244611
H5    H     H_    0.734530 0.283132 0.063742 0.201677
H6    H     H_    0.758320 0.206160 0.151023 0.197953
H7    H     H_    0.383114 0.632741 0.015180 0.268148
H8    H     H_    0.307838 0.715835 0.095169 0.249713
H9    H     H_    0.369061 0.816234 0.017473 0.246533
H10   H     H_    0.515632 0.833601 0.122926 0.209655
H11   H     H_    0.587383 0.745078 0.048813 0.193874
H12   H     H_    0.318406 0.874784 0.452350 0.131400
H13   H     H_    0.364718 0.347548 0.980912 0.267832
H14   H     H_    0.286713 0.279779 0.898566 0.255915
H15   H     H_    0.339692 0.165886 0.972297 0.246565
H16   H     H_    0.488948 0.145922 0.867860 0.206689
H17   H     H_    0.564707 0.226392 0.941724 0.213402
H18   H     H_    0.316444 0.701048 0.689534 0.269139
H19   H     H_    0.300894 0.753377 0.787604 0.248063
H20   H     H_    0.325591 0.879063 0.714150 0.243090
H21   H     H_    0.515106 0.843558 0.784889 0.198688
H22   H     H_    0.544740 0.791365 0.691800 0.223195
H23   H     H_    0.318236 0.128696 0.452494 0.136504
H24   H     H_    0.823472 0.269089 0.288759 0.232484
H25   H     H_    0.734516 0.353751 0.362246 0.277348
H26   H     H_    0.752715 0.170778 0.364559 0.246396
H27   H     H_    0.540816 0.207792 0.313539 0.221297
H28   H     H_    0.639011 0.153376 0.244923 0.198926
H29   H     H_    0.597339 0.806541 0.327205 0.285685
H30   H     H_    0.594103 0.885621 0.235895 0.228209
H31   H     H_    0.481701 0.937032 0.307569 0.231602
H32   H     H_    0.377687 0.789275 0.213141 0.194680
H33   H     H_    0.372645 0.714705 0.300509 0.208359
H34   H     H_    0.682234 0.871282 0.546853 0.137334
H35   H     H_    0.595396 0.190943 0.675723 0.271541
H36   H     H_    0.564402 0.087532 0.756876 0.222458
H37   H     H_    0.472649 0.065232 0.672761 0.248234
H38   H     H_    0.355520 0.198381 0.776965 0.192945
H39   H     H_    0.358982 0.277296 0.690048 0.214467
H40   H     H_    0.234442 0.458691 0.638664 0.216168
H41   H     H_    0.096078 0.507985 0.687632 0.242225
H42   H     H_    0.120250 0.330665 0.659195 0.240389
H43   H     H_    0.764000 0.598510 0.368350 0.238779
H44   H     H_    0.896322 0.702336 0.349744 0.249507
H45   H     H_    0.835156 0.674387 0.813046 0.265793
H46   H     H_    0.889478 0.528663 0.313499 0.239036
H47   H     H_    0.799856 0.326357 0.622352 0.238462
H48   H     H_    0.911421 0.391433 0.686693 0.242752
H49   H     H_    0.790884 0.502920 0.652982 0.227800
H50   H     H_    0.194186 0.680425 0.376918 0.235800
H51   H     H_    0.213755 0.502515 0.349890 0.222455
H52   H     H_    0.089543 0.602279 0.311914 0.244966
H53   H     H_    0.740104 0.808078 0.771253 0.252232
H54   H     H_    0.831386 0.843575 0.854173 0.249034
H55   H     H_    0.604614 0.812884 0.891852 0.193023
H56   H     H_    0.709358 0.694326 0.932521 0.211883
N1    N     N_R   0.500000 0.857200 0.500000 -0.074495
N2    N     N_R   0.500000 0.142800 0.500000 -0.070600
O1    O     O_R   0.316770 0.614620 0.500000 -0.623304
O2    O     O_R   0.683230 0.385380 0.500000 -0.628992
O3    O     O_R   0.683230 0.614620 0.500000 -0.623135
O4    O     O_R   0.316770 0.385380 0.500000 -0.622574
O5    O     O_R   0.500010 0.614710 0.389120 -0.610628
O6    O     O_R   0.499990 0.385290 0.610880 -0.604861
O7    O     O_R   0.499990 0.614710 0.610880 -0.609353
O8    O     O_R   0.500010 0.385290 0.389120 -0.611366
Zn1   Zn    Zn3+2 0.500000 0.653120 0.500000 0.927402
Zn2   Zn    Zn3+2 0.500000 0.346880 0.500000 0.925928

loop_
_geom_bond_atom_site_label_1
_geom_bond_atom_site_label_2
_ccdc_geom_bond_type
C35   H26   S    
C8    C13   A    
C43   H50   S    
C28   H8    S    
C7    C27   S    
C5    C20   A    
C28   H9    S    
C7    C11   A    
C37   H31   S    
C2    O6    A    
C8    C20   A    
C43   H52   S    
C38   H38   S    
C42   H48   S    
C8    C29   S    
C32   H18   S    
C36   C37   S    
C25   H5    S    
C39   H36   S    
C17   N1    A    
C10   C15   A    
C26   H2    S    
C38   C39   S    
C2    O7    A    
C6    C25   S    
C22   H56   S    
C24   H53   S    
C42   C46   S    
C3    C12   S    
C11   C15   A    
C33   H27   S    
C31   H22   S    
C5    C22   S    
C41   H46   S    
C13   C14   A    
C40   H41   S    
C19   H34   S    
C16   N2    A    
C32   H20   S    
C29   H16   S    
C30   H15   S    
C15   C48   S    
C12   O3    A    
C28   H7    S    
C44   C46   A    
C45   C47   A    
C42   H47   S    
C16   H1    S    
C36   H32   S    
C42   H49   S    
C12   O2    A    
C9    C31   S    
C21   C34   S    
C4    C44   A    
C25   C26   S    
C7    C21   A    
C6    C21   A    
C37   H29   S    
C3    C45   A    
C22   H55   S    
N2    Zn2   S    
C11   C36   S    
C9    C14   A    
C18   N2    A    
C5    C9    A    
C29   C30   S    
C26   H4    S    
C1    O4    A    
C33   H28   S    
C31   C32   S    
C20   C23   S    
C31   H21   S    
C36   H33   S    
C23   C34   T    
C41   H44   S    
C17   C18   A    
C25   H6    S    
O1    Zn1   S    
C13   C38   S    
C1    O1    A    
C32   H19   S    
C29   H17   S    
C19   N1    A    
C41   H43   S    
C35   H24   S    
C30   H14   S    
C22   C24   S    
C39   H37   S    
O4    Zn2   S    
O6    Zn2   S    
C48   O8    A    
C18   H23   S    
C35   H25   S    
N1    Zn1   S    
C43   H51   S    
C27   H10   S    
C6    C10   A    
O8    Zn2   S    
C37   H30   S    
C3    C46   A    
C38   H39   S    
C1    C4    S    
O2    Zn2   S    
C39   H35   S    
C27   H11   S    
C26   H3    S    
C40   H40   S    
C16   C19   A    
C33   C35   S    
C10   C33   S    
C24   H54   S    
C2    C14   S    
O3    Zn1   S    
C17   H12   S    
C40   C44   S    
C48   O5    A    
C30   H13   S    
C27   C28   S    
C41   C45   S    
O5    Zn1   S    
C40   H42   S    
C24   H45   S    
C43   C47   S    
O7    Zn1   S    
C4    C47   A    
