data_mof_unit_9491.cif
_audit_creation_date              2012-12-10T18:09:32-0500
_audit_creation_method            fapswitch 2.2
_symmetry_space_group_name_H-M    P1
_symmetry_Int_Tables_number       1
_space_group_crystal_system       triclinic
_cell_length_a                    15.337871
_cell_length_b                    15.095619
_cell_length_c                    9.405527
_cell_angle_alpha                 89.898018
_cell_angle_beta                  90.086664
_cell_angle_gamma                 89.940533
_cell_volume                      2177.69834698

loop_
_atom_site_label
_atom_site_type_symbol
_atom_type_description
_atom_site_fract_x
_atom_site_fract_y
_atom_site_fract_z
_atom_type_partial_charge
C1    C     C_R   0.120226 0.379798 0.500378 0.834098
C2    C     C_R   0.120205 0.620317 0.499936 0.822305
C3    C     C_R   0.620216 0.879788 0.500378 0.834109
C4    C     C_R   0.620198 0.120323 0.499936 0.822288
C5    C     C_3   0.090939 0.507323 0.084052 -0.189188
C6    C     C_3   0.090951 0.507020 0.916326 -0.189134
C7    C     C_3   0.590935 0.007559 0.084052 -0.189081
C8    C     C_3   0.590948 0.007199 0.916326 -0.189081
C9    C     C_R   0.881233 0.378751 0.499765 0.825762
C10   C     C_R   0.880760 0.620852 0.499837 0.820389
C11   C     C_R   0.381235 0.878749 0.499764 0.825759
C12   C     C_R   0.380767 0.120859 0.499836 0.820384
C13   C     C_3   0.834121 0.236002 0.605943 -0.397299
C14   C     C_3   0.801669 0.269138 0.348624 -0.388732
C15   C     C_3   0.811379 0.740501 0.642184 -0.396303
C16   C     C_3   0.823826 0.754200 0.375237 -0.396695
C17   C     C_3   0.334147 0.735977 0.605895 -0.397281
C18   C     C_3   0.301654 0.769155 0.348611 -0.388769
C19   C     C_3   0.311421 0.240542 0.642156 -0.396297
C20   C     C_3   0.323815 0.254186 0.375193 -0.396674
C21   C     C_3   0.262383 0.664643 0.606057 -0.509257
C22   C     C_3   0.233063 0.695224 0.350685 -0.418084
C23   C     C_3   0.240170 0.311737 0.642665 -0.474406
C24   C     C_3   0.253361 0.326311 0.378124 -0.447380
C25   C     C_3   0.762361 0.164667 0.606095 -0.509227
C26   C     C_3   0.733084 0.195201 0.350702 -0.418041
C27   C     C_3   0.740134 0.811701 0.642685 -0.474334
C28   C     C_3   0.753363 0.826315 0.378155 -0.447411
C29   C     C_3   0.724172 0.354218 0.540583 -0.484403
C30   C     C_3   0.721312 0.643859 0.478551 -0.504079
C31   C     C_3   0.224182 0.854202 0.540629 -0.484462
C32   C     C_3   0.221320 0.143868 0.478622 -0.504074
C33   C     C_3   0.811768 0.310657 0.499082 0.080288
C34   C     C_3   0.810825 0.688674 0.499603 0.094968
C35   C     C_3   0.311774 0.810651 0.499080 0.080306
C36   C     C_3   0.310837 0.188686 0.499601 0.094976
C37   C     C_3   0.188704 0.690228 0.499979 0.079807
C38   C     C_3   0.187741 0.308889 0.501374 0.101997
C39   C     C_3   0.688695 0.190236 0.499977 0.079764
C40   C     C_3   0.687726 0.808874 0.501371 0.101985
C41   C     C_3   0.147934 0.784094 0.535271 0.869398
C42   C     C_3   0.144414 0.214866 0.484559 0.845179
C43   C     C_3   0.647919 0.284117 0.535187 0.869342
C44   C     C_3   0.644401 0.714852 0.484503 0.845168
C45   C     C_3   0.950317 0.575189 0.083396 -0.191464
C46   C     C_3   0.950186 0.575084 0.916041 -0.188396
C47   C     C_3   0.963075 0.417462 0.083828 -0.193818
C48   C     C_3   0.962988 0.417461 0.916379 -0.192514
C49   C     C_3   0.450117 0.075067 0.083398 -0.191360
C50   C     C_3   0.450026 0.074985 0.916044 -0.188360
C51   C     C_3   0.463280 0.917345 0.083828 -0.193843
C52   C     C_3   0.463156 0.917367 0.916377 -0.192526
Cu1   Cu    Cu3+1 0.000100 0.500000 0.642410 0.914347
Cu2   Cu    Cu3+1 0.000100 0.500000 0.357590 0.912823
Cu3   Cu    Cu3+1 0.500100 1.000000 0.642410 0.914326
Cu4   Cu    Cu3+1 0.500100 0.000000 0.357590 0.912851
H1    H     H_    0.842766 0.262833 0.715058 0.170154
H2    H     H_    0.781324 0.320744 0.270564 0.175831
H3    H     H_    0.800270 0.694610 0.733044 0.164316
H4    H     H_    0.820931 0.719077 0.271322 0.174439
H5    H     H_    0.342822 0.762788 0.715015 0.170155
H6    H     H_    0.281304 0.820773 0.270575 0.175819
H7    H     H_    0.300335 0.194668 0.733048 0.164326
H8    H     H_    0.320885 0.219042 0.271298 0.174445
H9    H     H_    0.896984 0.205635 0.574748 0.203763
H10   H     H_    0.864931 0.241800 0.311573 0.174615
H11   H     H_    0.876108 0.772158 0.658794 0.187441
H12   H     H_    0.888863 0.784172 0.382890 0.187867
H13   H     H_    0.397001 0.705613 0.574646 0.203798
H14   H     H_    0.364910 0.741815 0.311534 0.174625
H15   H     H_    0.376152 0.272206 0.658710 0.187483
H16   H     H_    0.388859 0.284153 0.382774 0.187834
H17   H     H_    0.291575 0.600049 0.574331 0.165556
H18   H     H_    0.264863 0.630830 0.325071 0.155205
H19   H     H_    0.270631 0.378123 0.656415 0.163611
H20   H     H_    0.284715 0.392257 0.391987 0.154028
H21   H     H_    0.791561 0.100071 0.574399 0.165575
H22   H     H_    0.764893 0.130803 0.325138 0.155195
H23   H     H_    0.770598 0.878083 0.656468 0.163616
H24   H     H_    0.784708 0.892264 0.392044 0.154037
H25   H     H_    0.237168 0.654072 0.715164 0.168643
H26   H     H_    0.184585 0.707902 0.264858 0.205310
H27   H     H_    0.196623 0.300841 0.735584 0.200718
H28   H     H_    0.219459 0.327487 0.273464 0.205200
H29   H     H_    0.737135 0.154103 0.715196 0.168595
H30   H     H_    0.684622 0.207857 0.264839 0.205291
H31   H     H_    0.696572 0.800797 0.735585 0.200728
H32   H     H_    0.719476 0.827496 0.273481 0.205213
H33   H     H_    0.730121 0.389522 0.643139 0.137408
H34   H     H_    0.712281 0.408198 0.462192 0.141097
H35   H     H_    0.716806 0.587267 0.552756 0.095112
H36   H     H_    0.721677 0.611704 0.372098 0.161623
H37   H     H_    0.230151 0.889512 0.643177 0.137433
H38   H     H_    0.212269 0.908181 0.462243 0.141117
H39   H     H_    0.216827 0.087298 0.552873 0.095121
H40   H     H_    0.221663 0.111682 0.372193 0.161610
H41   H     H_    0.977264 0.639024 0.122831 0.146370
H42   H     H_    0.976662 0.638947 0.875920 0.152423
H43   H     H_    0.999857 0.359108 0.124057 0.160406
H44   H     H_    0.999537 0.358938 0.876542 0.150018
H45   H     H_    0.476887 0.138985 0.122870 0.146331
H46   H     H_    0.476403 0.138912 0.875973 0.152326
H47   H     H_    0.500239 0.859081 0.124021 0.160515
H48   H     H_    0.499814 0.858916 0.876500 0.150042
H49   H     H_    0.881691 0.571616 0.120983 0.138231
H50   H     H_    0.881480 0.571133 0.878643 0.134202
H51   H     H_    0.894719 0.409744 0.120724 0.136660
H52   H     H_    0.894561 0.409828 0.879272 0.138674
H53   H     H_    0.381480 0.071295 0.120959 0.138153
H54   H     H_    0.381330 0.070907 0.878598 0.134191
H55   H     H_    0.394939 0.909425 0.120751 0.136657
H56   H     H_    0.394729 0.909600 0.879310 0.138664
H57   H     H_    0.122362 0.569299 0.121626 0.135093
H58   H     H_    0.122793 0.568525 0.877869 0.129722
H59   H     H_    0.132094 0.451829 0.123530 0.140703
H60   H     H_    0.131787 0.451118 0.877877 0.138957
H61   H     H_    0.622188 0.069659 0.121555 0.135077
H62   H     H_    0.622690 0.068748 0.877827 0.129683
H63   H     H_    0.632258 0.952193 0.123600 0.140582
H64   H     H_    0.631884 0.951352 0.877918 0.138870
N1    N     N_3   0.001260 0.500000 0.143650 -0.112665
N2    N     N_3   0.001260 0.500000 0.856350 -0.112845
N3    N     N_3   0.501260 0.000000 0.143650 -0.112607
N4    N     N_3   0.501260 0.000000 0.856350 -0.112805
O1    O     O_R   0.091250 0.408820 0.620260 -0.590520
O2    O     O_R   0.091250 0.408820 0.379740 -0.581795
O3    O     O_R   0.091250 0.591180 0.620260 -0.584141
O4    O     O_R   0.091250 0.591180 0.379740 -0.598247
O5    O     O_R   0.591250 0.908820 0.620260 -0.590544
O6    O     O_R   0.591250 0.908820 0.379740 -0.581788
O7    O     O_R   0.591250 0.091180 0.620260 -0.584213
O8    O     O_R   0.591250 0.091180 0.379740 -0.598224
O9    O     O_R   0.908940 0.408800 0.620260 -0.594935
O10   O     O_R   0.908940 0.408800 0.379740 -0.597967
O11   O     O_R   0.908940 0.591200 0.620260 -0.596073
O12   O     O_R   0.908940 0.591200 0.379740 -0.599653
O13   O     O_R   0.408940 0.908800 0.620260 -0.594931
O14   O     O_R   0.408940 0.908800 0.379740 -0.597958
O15   O     O_R   0.408940 0.091200 0.620260 -0.596077
O16   O     O_R   0.408940 0.091200 0.379740 -0.599660
O17   O     O_3   0.092723 0.779319 0.658588 -0.623044
C53   C     C_3   0.132032 0.788249 0.794142 0.019577
H65   H     H_    0.203886 0.788639 0.795569 0.131935
H66   H     H_    0.112089 0.730702 0.859907 0.159793
C54   C     C_3   0.097945 0.871723 0.865949 -0.868463
H67   H     H_    0.025822 0.868609 0.875240 0.253052
H68   H     H_    0.126521 0.877655 0.974089 0.214474
H69   H     H_    0.115841 0.931213 0.802980 0.232694
O18   O     O_3   0.093975 0.805731 0.416645 -0.618432
C55   C     C_3   0.038997 0.879483 0.441628 0.108488
H70   H     H_    0.072673 0.934897 0.496112 0.118279
H71   H     H_    0.983215 0.859877 0.509580 0.172719
C56   C     C_3   0.005258 0.913036 0.299157 -0.903197
H72   H     H_    0.979090 0.857779 0.234269 0.257692
H73   H     H_    0.952680 0.962322 0.316984 0.202611
H74   H     H_    0.059387 0.943845 0.238486 0.250878
O19   O     O_3   0.080339 0.206576 0.596176 -0.625340
C57   C     C_3   0.089330 0.132819 0.687834 -0.000466
H75   H     H_    0.151797 0.136596 0.747509 0.155963
H76   H     H_    0.083855 0.069923 0.627487 0.131868
C58   C     C_3   0.016485 0.132463 0.797215 -0.842406
H77   H     H_    0.953230 0.117188 0.746004 0.237403
H78   H     H_    0.029350 0.079826 0.877033 0.214440
H79   H     H_    0.012701 0.197466 0.851776 0.251071
O20   O     O_3   0.101099 0.216321 0.350593 -0.611483
C59   C     C_3   0.044048 0.143927 0.332201 0.086996
H80   H     H_    0.983846 0.153694 0.395121 0.168740
H81   H     H_    0.074668 0.080366 0.364136 0.132332
C60   C     C_3   0.019335 0.138331 0.175961 -0.879137
H82   H     H_    0.078597 0.124980 0.111789 0.252175
H83   H     H_    0.971380 0.084519 0.158467 0.212291
H84   H     H_    0.989609 0.201586 0.140242 0.241731
O21   O     O_3   0.592666 0.279394 0.658458 -0.623060
C61   C     C_3   0.631934 0.288223 0.794039 0.019330
H85   H     H_    0.703784 0.288681 0.795540 0.131990
H86   H     H_    0.612010 0.230620 0.859635 0.159961
C62   C     C_3   0.597768 0.371579 0.865996 -0.868606
H87   H     H_    0.525646 0.368405 0.875205 0.253094
H88   H     H_    0.626310 0.377426 0.974155 0.214534
H89   H     H_    0.615639 0.431125 0.803203 0.232854
O22   O     O_3   0.594004 0.305740 0.416497 -0.618413
C63   C     C_3   0.539010 0.379492 0.441403 0.108533
H90   H     H_    0.572675 0.434930 0.495846 0.118251
H91   H     H_    0.483225 0.359902 0.509359 0.172738
C64   C     C_3   0.505274 0.412996 0.298899 -0.903184
H92   H     H_    0.479120 0.357711 0.234053 0.257692
H93   H     H_    0.452683 0.462276 0.316678 0.202602
H94   H     H_    0.559399 0.443804 0.238217 0.250870
O23   O     O_3   0.580319 0.706543 0.596106 -0.625363
C65   C     C_3   0.589304 0.632768 0.687730 -0.000488
H95   H     H_    0.651769 0.636531 0.747411 0.155969
H96   H     H_    0.583828 0.569885 0.627352 0.131901
C66   C     C_3   0.516457 0.632399 0.797106 -0.842490
H97   H     H_    0.453206 0.617118 0.745887 0.237425
H98   H     H_    0.529324 0.579761 0.876921 0.214432
H99   H     H_    0.512663 0.697397 0.851673 0.251092
O24   O     O_3   0.601091 0.716326 0.350531 -0.611494
C67   C     C_3   0.544061 0.643918 0.332086 0.087004
H100  H     H_    0.483862 0.653636 0.395042 0.168732
H101  H     H_    0.574709 0.580352 0.363936 0.132309
C68   C     C_3   0.519324 0.638377 0.175847 -0.879109
H102  H     H_    0.578588 0.625131 0.111617 0.252205
H103  H     H_    0.471428 0.584516 0.158309 0.212299
H104  H     H_    0.489511 0.701614 0.140230 0.241647

loop_
_geom_bond_atom_site_label_1
_geom_bond_atom_site_label_2
_ccdc_geom_bond_type
C16   C28   S    
C59   H81   S    
Cu3   Cu4   S    
C17   H13   S    
C65   H95   S    
C21   H17   S    
C3    O6    A    
C51   N3    S    
C68   H102  S    
C7    H61   S    
C19   H15   S    
Cu1   O11   S    
C52   H56   S    
C30   C44   S    
C54   H69   S    
C14   C33   S    
C29   H33   S    
C58   H77   S    
C8    H62   S    
C7    C8    S    
C4    O8    A    
O20   C59   S    
C13   H9    S    
O22   C63   S    
C13   C33   S    
Cu2   O2    S    
O19   C57   S    
Cu3   O15   S    
C23   H27   S    
C37   C41   S    
C25   H21   S    
C32   C36   S    
C11   O14   A    
C1    O1    A    
C38   C42   S    
C27   H23   S    
C19   C36   S    
C49   H45   S    
C5    C6    S    
Cu4   O16   S    
C26   C39   S    
C47   N1    S    
C41   O18   S    
C28   C40   S    
C51   H47   S    
Cu2   O10   S    
C29   C33   S    
C50   H54   S    
C47   H43   S    
C21   C37   S    
C16   H4    S    
C49   C50   S    
C63   H90   S    
C6    H58   S    
Cu1   O3    S    
C57   C58   S    
C17   H5    S    
C61   H85   S    
C20   H16   S    
C20   C24   S    
C65   H96   S    
C66   H98   S    
C55   C56   S    
C28   H32   S    
C24   C38   S    
C12   O16   A    
C67   H100  S    
C16   H12   S    
C12   C36   S    
C18   C35   S    
C15   C34   S    
C65   C66   S    
C42   O20   S    
C16   C34   S    
C9    O10   A    
C62   H89   S    
C46   H42   S    
Cu2   O12   S    
C44   O24   S    
C18   C22   S    
C5    H59   S    
C57   H76   S    
C68   H103  S    
C53   C54   S    
C13   C25   S    
O23   C65   S    
C48   H44   S    
C29   H34   S    
C58   H78   S    
C45   H49   S    
C54   H67   S    
C4    O7    A    
C61   H86   S    
C32   C42   S    
C14   H2    S    
C30   C34   S    
C51   C52   S    
Cu4   N3    S    
C7    H63   S    
Cu1   O9    S    
C1    O2    A    
C30   H36   S    
C19   H7    S    
C24   H20   S    
C64   H94   S    
C39   C43   S    
Cu4   O6    S    
C45   N1    S    
O21   C61   S    
C22   C37   S    
Cu2   O4    S    
C43   O22   S    
C17   C21   S    
C63   C64   S    
C20   H8    S    
C19   C23   S    
C43   O21   S    
C41   O17   S    
C44   O23   S    
Cu4   O14   S    
C25   C39   S    
C15   C27   S    
C47   C48   S    
C4    C39   S    
C27   C40   S    
C26   H30   S    
C66   H99   S    
C15   H11   S    
C67   C68   S    
C25   H29   S    
C14   H10   S    
C12   O15   A    
C50   N4    S    
C10   C34   S    
C60   H82   S    
C26   H22   S    
C14   C26   S    
C56   H74   S    
C27   H31   S    
C61   C62   S    
C6    H60   S    
Cu4   O8    S    
Cu1   O1    S    
C1    C38   S    
C9    C33   S    
C8    N4    S    
C32   H40   S    
Cu2   N1    S    
C21   H25   S    
C3    C40   S    
C50   H46   S    
Cu3   O7    S    
C57   H75   S    
C48   H52   S    
C60   H84   S    
C53   H66   S    
C42   O19   S    
C56   H73   S    
C22   H18   S    
C23   C38   S    
C22   H26   S    
C58   H79   S    
C23   H19   S    
C8    H64   S    
C49   H53   S    
C60   H83   S    
Cu3   N4    S    
C52   H48   S    
C5    N1    S    
C51   H55   S    
C31   C41   S    
C5    H57   S    
C3    O5    A    
C15   H3    S    
C18   H6    S    
C7    N3    S    
C30   H35   S    
C67   H101  S    
Cu1   Cu2   S    
C10   O12   A    
C31   H38   S    
C47   H51   S    
C18   H14   S    
Cu3   O13   S    
C2    O4    A    
Cu1   N2    S    
Cu3   O5    S    
C24   H28   S    
C10   O11   A    
C31   H37   S    
O18   C55   S    
C2    O3    A    
C48   N2    S    
C52   N4    S    
C2    C37   S    
C64   H92   S    
C59   H80   S    
C54   H68   S    
C46   H50   S    
C31   C35   S    
C11   C35   S    
C68   H104  S    
C62   H88   S    
C55   H71   S    
C11   O13   A    
O24   C67   S    
C28   H24   S    
C63   H91   S    
C64   H93   S    
C62   H87   S    
C20   C36   S    
C45   C46   S    
C40   C44   S    
C32   H39   S    
C13   H1    S    
C59   C60   S    
C66   H97   S    
C6    N2    S    
C53   H65   S    
C46   N2    S    
C45   H41   S    
C17   C35   S    
C56   H72   S    
O17   C53   S    
C29   C43   S    
C9    O9    A    
C55   H70   S    
C49   N3    S    
