data_mof_unit_13258.cif
_audit_creation_date              2013-03-05T15:51:04-0500
_audit_creation_method            fapswitch 2.2
_symmetry_space_group_name_H-M    P1
_symmetry_Int_Tables_number       1
_space_group_crystal_system       triclinic
_cell_length_a                    19.045443
_cell_length_b                    11.050211
_cell_length_c                    18.820955
_cell_angle_alpha                 90.121497
_cell_angle_beta                  90.401325
_cell_angle_gamma                 89.591611
_cell_volume                      3960.77971347

loop_
_atom_site_label
_atom_site_type_symbol
_atom_site_description
_atom_site_fract_x
_atom_site_fract_y
_atom_site_fract_z
_atom_type_partial_charge
O1    O     O_R   0.784290 0.290360 0.830540 -0.511981
O2    O     O_R   0.215710 0.290360 0.169460 -0.507932
O3    O     O_R   0.284290 0.790360 0.830540 -0.534831
O4    O     O_R   0.715710 0.790360 0.169460 -0.520884
O5    O     O_R   0.762610 0.041070 0.825230 -0.541191
O6    O     O_R   0.237390 0.041070 0.174770 -0.533030
O7    O     O_R   0.262610 0.541070 0.825230 -0.529468
O8    O     O_R   0.737390 0.541070 0.174770 -0.518453
C1    C     C_R   0.725655 0.958377 0.854880 0.544753
C2    C     C_R   0.274350 0.958078 0.145094 0.553831
C3    C     C_R   0.227477 0.454661 0.853397 0.565094
C4    C     C_R   0.772625 0.454469 0.146510 0.572246
O9    O     O_R   0.667390 0.924160 0.829970 -0.426187
O10   O     O_R   0.332610 0.924160 0.170030 -0.421689
O11   O     O_R   0.167390 0.424160 0.829970 -0.412603
O12   O     O_R   0.832610 0.424160 0.170030 -0.419802
O13   O     O_R   0.553980 0.081420 0.821780 -0.420726
O14   O     O_R   0.446020 0.081420 0.178220 -0.415567
O15   O     O_R   0.053980 0.581420 0.821780 -0.426982
O16   O     O_R   0.946020 0.581420 0.178220 -0.461417
C5    C     C_R   0.529944 0.177937 0.850640 0.567125
C6    C     C_R   0.470153 0.177406 0.149424 0.567874
C7    C     C_R   0.031992 0.677319 0.851906 0.555699
C8    C     C_R   0.970547 0.677021 0.149819 0.553327
O17   O     O_R   0.543210 0.283170 0.826740 -0.537218
O18   O     O_R   0.456790 0.283170 0.173260 -0.539971
O19   O     O_R   0.043210 0.783170 0.826740 -0.535474
O20   O     O_R   0.956790 0.783170 0.173260 -0.522329
O21   O     O_R   0.678350 0.375000 0.822720 -0.500706
O22   O     O_R   0.321650 0.375000 0.177280 -0.495010
O23   O     O_R   0.178350 0.875000 0.822720 -0.494033
O24   O     O_R   0.821650 0.875000 0.177280 -0.489152
C9    C     C_R   0.724083 0.312955 0.859803 0.554847
C10   C     C_R   0.275815 0.313592 0.140204 0.555933
C11   C     C_R   0.238181 0.864000 0.852544 0.544286
C12   C     C_R   0.761761 0.863470 0.147440 0.553543
O25   O     O_R   0.785060 0.289300 0.670580 -0.459529
O26   O     O_R   0.214940 0.289300 0.329420 -0.485712
O27   O     O_R   0.285060 0.789300 0.670580 -0.471431
O28   O     O_R   0.714940 0.789300 0.329420 -0.488221
O29   O     O_R   0.763330 0.040090 0.676940 -0.413508
O30   O     O_R   0.236670 0.040090 0.323060 -0.504976
O31   O     O_R   0.263330 0.540090 0.676940 -0.418212
O32   O     O_R   0.736670 0.540090 0.323060 -0.505716
C13   C     C_R   0.728382 0.950586 0.649127 0.566920
C14   C     C_R   0.274229 0.961632 0.354974 0.540564
C15   C     C_R   0.228423 0.450492 0.649455 0.565530
C16   C     C_R   0.775488 0.465107 0.356129 0.530951
O33   O     O_R   0.668160 0.923110 0.670000 -0.531804
O34   O     O_R   0.331840 0.923110 0.330000 -0.515133
O35   O     O_R   0.168160 0.423110 0.670000 -0.533089
O36   O     O_R   0.831840 0.423110 0.330000 -0.519439
O37   O     O_R   0.554690 0.080440 0.673480 -0.516071
O38   O     O_R   0.445310 0.080440 0.326520 -0.488542
O39   O     O_R   0.054690 0.580440 0.673480 -0.521127
O40   O     O_R   0.945310 0.580440 0.326520 -0.468982
C17   C     C_R   0.530063 0.177843 0.645106 0.530760
C18   C     C_R   0.469170 0.175681 0.355394 0.565048
C19   C     C_R   0.029008 0.677755 0.645983 0.535128
C20   C     C_R   0.940305 0.680655 0.362592 0.561911
O41   O     O_R   0.543980 0.282110 0.666770 -0.504648
O42   O     O_R   0.456020 0.282110 0.333230 -0.496693
O43   O     O_R   0.043980 0.782110 0.666770 -0.508376
O44   O     O_R   0.956020 0.782110 0.333230 -0.502242
O45   O     O_R   0.679070 0.374030 0.674430 -0.500443
O46   O     O_R   0.320930 0.374030 0.325570 -0.493322
O47   O     O_R   0.179070 0.874030 0.674430 -0.497646
O48   O     O_R   0.820930 0.874030 0.325570 -0.509933
C21   C     C_R   0.741296 0.366130 0.647888 0.549904
C22   C     C_R   0.263089 0.354874 0.356390 0.536963
C23   C     C_R   0.240643 0.864847 0.647292 0.550740
C24   C     C_R   0.762147 0.857822 0.355526 0.515125
Cr1   Cr    Cr6+3 0.769260 0.163750 0.750730 1.079971
Cr2   Cr    Cr6+3 0.230740 0.163750 0.249270 1.052520
Cr3   Cr    Cr6+3 0.269260 0.663750 0.750730 1.078876
Cr4   Cr    Cr6+3 0.730740 0.663750 0.249270 1.052617
Cr5   Cr    Cr6+3 0.612640 0.009910 0.748780 1.081038
Cr6   Cr    Cr6+3 0.387360 0.009910 0.251220 1.123310
Cr7   Cr    Cr6+3 0.112640 0.509910 0.748780 1.085682
Cr8   Cr    Cr6+3 0.887360 0.509910 0.251220 1.107142
Cr9   Cr    Cr6+3 0.614190 0.322400 0.747710 1.038452
Cr10  Cr    Cr6+3 0.385810 0.322400 0.252290 1.039732
Cr11  Cr    Cr6+3 0.114190 0.822400 0.747710 1.045825
Cr12  Cr    Cr6+3 0.885810 0.822400 0.252290 1.039608
O49   O     O_3   0.665360 0.165350 0.749070 -0.297601
O50   O     O_3   0.334640 0.165350 0.250930 -0.306417
O51   O     O_3   0.165360 0.665350 0.749070 -0.276779
O52   O     O_3   0.834640 0.665350 0.250930 -0.300516
C25   C     C_2   0.500089 0.170207 0.922092 -0.072279
C26   C     C_2   0.500126 0.169150 0.078028 -0.071137
C27   C     C_2   0.003989 0.663937 0.923966 -0.089498
C28   C     C_2   0.005405 0.666502 0.081022 -0.143660
C29   C     C_2   0.498436 0.065529 0.039818 0.206238
C30   C     C_2   0.501290 0.065986 0.959659 0.208193
C31   C     C_2   0.004144 0.564106 0.041502 0.188226
C32   C     C_2   0.021491 0.567069 0.965052 0.250695
H1    H     H_    0.513570 0.254801 0.054154 0.047854
H2    H     H_    0.487085 0.256134 0.946485 0.047069
H3    H     H_    0.022637 0.750265 0.057272 0.053539
H4    H     H_    0.976563 0.740751 0.946642 0.033481
C33   C     C_R   0.747310 0.393919 0.081452 0.052073
C34   C     C_R   0.253150 0.394396 0.918468 0.056944
C35   C     C_R   0.262059 0.928037 0.070708 0.045405
C36   C     C_R   0.738077 0.928070 0.929239 0.048384
C37   C     C_R   0.689828 0.439844 0.042902 -0.038156
C38   C     C_R   0.309466 0.441579 0.957744 -0.037089
C39   C     C_R   0.202402 0.973142 0.036266 -0.049335
C40   C     C_R   0.797420 0.972600 0.963998 -0.050058
C41   C     C_R   0.679030 0.409056 0.972137 -0.008556
C42   C     C_R   0.319991 0.411065 0.028549 -0.007011
C43   C     C_R   0.195320 0.962651 0.963195 0.016944
C44   C     C_R   0.804368 0.961738 0.037073 0.015310
C45   C     C_R   0.777059 0.271728 0.977669 -0.139992
C46   C     C_R   0.223864 0.272256 0.021829 -0.157590
C47   C     C_R   0.314313 0.890315 0.955340 -0.158598
C48   C     C_R   0.685825 0.889930 0.044389 -0.159828
C49   C     C_R   0.787338 0.299339 0.050068 0.239953
C50   C     C_R   0.214244 0.299088 0.949250 0.222906
C51   C     C_R   0.318504 0.883274 0.029180 0.219190
C52   C     C_R   0.681845 0.883266 0.970526 0.220273
C53   C     C_3   0.666415 0.567387 0.030984 -0.263860
C54   C     C_3   0.330746 0.569616 0.970127 -0.262734
C55   C     C_3   0.128383 0.936298 0.048415 -0.294374
C56   C     C_3   0.871741 0.935219 0.951963 -0.293386
C57   C     C_3   0.654223 0.533569 0.953659 -0.235352
C58   C     C_3   0.342673 0.536142 0.047496 -0.233492
C59   C     C_3   0.121014 0.921511 0.968703 -0.251563
C60   C     C_3   0.878950 0.920029 0.031640 -0.249951
C61   C     C_R   0.726513 0.333447 0.936766 -0.022625
C62   C     C_R   0.273224 0.334709 0.063326 -0.024223
C63   C     C_R   0.250381 0.917763 0.921815 0.000386
C64   C     C_R   0.749449 0.917007 0.078163 -0.003258
H5    H     H_    0.812176 0.208278 0.952042 0.136581
H6    H     H_    0.189301 0.208489 0.047021 0.133819
H7    H     H_    0.358085 0.856581 0.924529 0.135110
H8    H     H_    0.642176 0.856376 0.074966 0.138822
H9    H     H_    0.096036 0.011745 0.070094 0.151141
H10   H     H_    0.903731 0.010538 0.930718 0.151090
H11   H     H_    0.709728 0.633172 0.038514 0.155684
H12   H     H_    0.286484 0.634450 0.962274 0.154693
H13   H     H_    0.617155 0.589384 0.059740 0.141965
H14   H     H_    0.379944 0.592618 0.941916 0.139918
H15   H     H_    0.125395 0.850090 0.078455 0.137705
H16   H     H_    0.875530 0.849086 0.921627 0.138536
H17   H     H_    0.597846 0.535305 0.937964 0.152334
H18   H     H_    0.398855 0.539109 0.063779 0.155474
H19   H     H_    0.114721 0.825580 0.952420 0.146710
H20   H     H_    0.885874 0.823938 0.047570 0.150991
H21   H     H_    0.690036 0.580766 0.916588 0.175358
H22   H     H_    0.305767 0.582622 0.084284 0.172884
H23   H     H_    0.082987 0.986154 0.944347 0.150928
H24   H     H_    0.916536 0.984282 0.056357 0.151833
C65   C     C_R   0.491486 0.166153 0.427536 0.085917
C66   C     C_R   0.502886 0.178554 0.574265 -0.004215
C67   C     C_R   0.959661 0.675281 0.436039 0.039499
C68   C     C_R   0.992005 0.677630 0.579712 -0.008990
C69   C     C_R   0.513930 0.271073 0.459746 0.098009
C70   C     C_R   0.519099 0.277688 0.531522 0.063754
C71   C     C_R   0.976974 0.782487 0.469789 0.090660
C72   C     C_R   0.991537 0.784708 0.540370 0.021236
C73   C     C_R   0.471622 0.078167 0.543825 -0.184907
C74   C     C_R   0.466333 0.071399 0.470076 -0.095837
C75   C     C_R   0.968208 0.571529 0.548628 -0.175539
C76   C     C_R   0.953032 0.569624 0.476071 -0.122358
C77   C     C_3   0.578620 0.341867 0.447128 -0.274395
C78   C     C_3   0.584822 0.349797 0.527078 -0.223502
C79   C     C_3   0.033371 0.870648 0.451995 -0.219405
C80   C     C_3   0.049166 0.874761 0.530406 -0.205268
H25   H     H_    0.455361 0.005039 0.577035 0.161700
H26   H     H_    0.443045 0.993427 0.446119 0.172787
H27   H     H_    0.968337 0.490446 0.579448 0.165053
H28   H     H_    0.940985 0.485890 0.450305 0.181948
H29   H     H_    0.012534 0.957774 0.431024 0.217447
H30   H     H_    0.101794 0.836805 0.543856 0.175457
H31   H     H_    0.567165 0.430515 0.421591 0.189144
H32   H     H_    0.631246 0.299942 0.548328 0.169528
H33   H     H_    0.621186 0.287433 0.422144 0.162487
H34   H     H_    0.576005 0.442504 0.547998 0.233006
H35   H     H_    0.076496 0.829308 0.420357 0.156516
H36   H     H_    0.036216 0.963507 0.555159 0.230165
C81   C     C_R   0.765847 0.452302 0.432426 -0.046588
C82   C     C_R   0.243785 0.397211 0.580102 0.005039
C83   C     C_R   0.263576 0.945412 0.430774 -0.033408
C84   C     C_R   0.744125 0.896588 0.579573 0.002117
C85   C     C_R   0.817857 0.393084 0.470033 -0.080958
C86   C     C_R   0.186652 0.371521 0.535345 -0.009346
C87   C     C_R   0.318278 0.894753 0.469381 -0.074172
C88   C     C_R   0.687126 0.865617 0.535624 -0.000291
C89   C     C_R   0.820031 0.388695 0.542597 -0.010280
C90   C     C_R   0.194103 0.361804 0.463330 0.023821
C91   C     C_R   0.318403 0.888976 0.541983 -0.019899
C92   C     C_R   0.693768 0.857072 0.463122 0.023734
C93   C     C_R   0.716652 0.515123 0.547263 0.185716
C94   C     C_R   0.318839 0.391894 0.477086 0.230955
C95   C     C_R   0.209818 0.003047 0.544026 0.190340
C96   C     C_R   0.815779 0.911186 0.474610 0.232199
C97   C     C_R   0.718651 0.524365 0.472174 -0.095347
C98   C     C_R   0.311003 0.387976 0.551366 -0.034530
C99   C     C_R   0.211923 0.009735 0.469125 -0.089141
C100  C     C_R   0.810616 0.897532 0.548760 -0.036605
C101  C     C_3   0.859835 0.282945 0.455233 -0.134493
C102  C     C_3   0.115594 0.429523 0.529024 -0.132276
C103  C     C_3   0.363048 0.786578 0.456360 -0.135559
C104  C     C_3   0.615021 0.919970 0.530266 -0.128613
C105  C     C_3   0.866164 0.276294 0.535298 0.433926
C106  C     C_3   0.123531 0.417907 0.449147 0.400959
C107  C     C_3   0.366368 0.778732 0.536576 0.428252
C108  C     C_3   0.622082 0.909093 0.450380 0.398481
C109  C     C_R   0.761238 0.429129 0.581809 -0.018896
C110  C     C_R   0.258316 0.383442 0.431763 -0.009880
C111  C     C_R   0.258274 0.925493 0.580195 -0.014116
C112  C     C_R   0.755974 0.889407 0.430530 -0.015810
H37   H     H_    0.682956 0.585983 0.445423 0.198896
H38   H     H_    0.356807 0.392212 0.585478 0.180431
H39   H     H_    0.173351 0.064831 0.441438 0.197701
H40   H     H_    0.856889 0.906132 0.581669 0.182608
H41   H     H_    0.909970 0.299536 0.427433 0.195468
H42   H     H_    0.115857 0.524870 0.547917 0.161851
H43   H     H_    0.414048 0.805876 0.431048 0.196030
H44   H     H_    0.614309 0.015233 0.549133 0.158147
H45   H     H_    0.826955 0.211360 0.430589 0.135103
H46   H     H_    0.074157 0.371695 0.552129 0.182553
H47   H     H_    0.333242 0.712545 0.430031 0.138414
H48   H     H_    0.574546 0.860752 0.553933 0.194000
O53   O     O_3   0.495845 0.957918 0.076949 -0.637557
H49   H     H_    0.521889 0.895313 0.050371 0.310167
O54   O     O_3   0.503347 0.958662 0.921842 -0.642630
H50   H     H_    0.477782 0.896288 0.948413 0.309687
O55   O     O_3   0.987634 0.452657 0.069776 -0.654477
H51   H     H_    0.015891 0.442647 0.113894 0.342388
O56   O     O_3   0.056331 0.468762 0.935681 -0.629573
H52   H     H_    0.070106 0.411745 0.973966 0.354672
O57   O     O_3   0.669511 0.586976 0.583623 -0.688859
H53   H     H_    0.683117 0.587687 0.634512 0.335948
O58   O     O_3   0.385119 0.411842 0.451636 -0.668702
H54   H     H_    0.381258 0.477182 0.415851 0.351672
O59   O     O_3   0.158978 0.069382 0.578796 -0.686779
H55   H     H_    0.174011 0.079982 0.628897 0.337680
O60   O     O_3   0.876968 0.958877 0.448829 -0.686505
H56   H     H_    0.865277 0.011304 0.407827 0.340994
N1    N     N_R   0.835814 0.167753 0.563130 0.120490
O61   O     O_R   0.870870 0.107317 0.611022 -0.332079
O62   O     O_R   0.770233 0.144060 0.549285 -0.405645
N2    N     N_R   0.073402 0.334292 0.415962 0.093402
O63   O     O_R   0.038755 0.365932 0.359074 -0.328492
O64   O     O_R   0.064205 0.226528 0.441979 -0.346746
N3    N     N_R   0.336529 0.667598 0.562092 0.114910
O65   O     O_R   0.372777 0.601176 0.606167 -0.322938
O66   O     O_R   0.272221 0.640162 0.545019 -0.401346
N4    N     N_R   0.573031 0.823167 0.417553 0.092150
O67   O     O_R   0.538304 0.852553 0.360288 -0.336302
O68   O     O_R   0.564573 0.715878 0.444490 -0.345041
O69   O     O_3   0.935662 0.291952 0.558380 -0.691943
H57   H     H_    0.933827 0.303507 0.610682 0.334132
O70   O     O_3   0.126432 0.531134 0.415326 -0.693230
H58   H     H_    0.142929 0.516058 0.366201 0.344859
O71   O     O_3   0.434509 0.797547 0.562901 -0.692019
H59   H     H_    0.430009 0.809667 0.614968 0.334482
O72   O     O_3   0.623067 0.022346 0.416489 -0.722751
H60   H     H_    0.637846 0.007913 0.366734 0.343900
O73   O     O_3   0.839917 0.242358 0.088686 -0.648695
H61   H     H_    0.867654 0.189566 0.056674 0.324832
O74   O     O_3   0.163312 0.240480 0.909755 -0.660095
H62   H     H_    0.135155 0.188914 0.941550 0.318829
O75   O     O_3   0.375446 0.826814 0.061186 -0.640820
H63   H     H_    0.405258 0.787987 0.024592 0.303191
O76   O     O_3   0.625283 0.827238 0.938251 -0.641876
H64   H     H_    0.595716 0.788274 0.974630 0.303127

loop_
_geom_bond_atom_site_label_1
_geom_bond_atom_site_label_2
_geom_bond_distance
_ccdc_geom_bond_type
O7    Cr3   1.957767 S    
C18   O42   1.271332 A    
C79   H35   1.112734 S    
O4    C12   1.268976 A    
C54   C58   1.518319 S    
C77   C78   1.510932 S    
O39   C19   1.286376 A    
O20   Cr12  2.060318 S    
C46   C62   1.402387 A    
C102  H46   1.110596 S    
C66   C73   1.383929 A    
Cr11  O51   1.984408 S    
C31   C32   1.479033 S    
C82   C98   1.396213 A    
C39   C55   1.489454 S    
C94   O58   1.372726 S    
C96   C100  1.408224 A    
C81   C97   1.413636 A    
O1    Cr1   2.070364 S    
C103  H47   1.112664 S    
Cr7   O51   1.995738 S    
C73   C74   1.392870 A    
C58   H18   1.111658 S    
O1    C9    1.297967 A    
O74   H62   0.990286 S    
O46   C22   1.267905 A    
C53   C57   1.518469 S    
O5    C1    1.287867 A    
C69   C70   1.355648 A    
C40   C44   1.386155 A    
C45   C61   1.402511 A    
C104  H44   1.110268 S    
C99   H39   1.082346 S    
O24   C12   1.274916 A    
C56   H10   1.111679 S    
C2    C35   1.455881 S    
O60   H56   0.989131 S    
N1    O61   1.300775 A    
O25   C21   1.258717 A    
C12   C64   1.449844 S    
O30   C14   1.269443 A    
O69   H57   0.993171 S    
C43   C63   1.398087 A    
O45   C21   1.291633 A    
C94   C98   1.407783 A    
O46   Cr10  1.940375 S    
C47   H7    1.082426 S    
N4    O68   1.301903 A    
C51   O75   1.382401 S    
C87   C103  1.484292 S    
O8    Cr4   1.952392 S    
O23   Cr11  1.951041 S    
N2    O63   1.300933 A    
C86   C102  1.497374 S    
O71   H59   0.992999 S    
C82   C86   1.401699 A    
C32   O56   1.385020 S    
C85   C101  1.478440 S    
C25   C30   1.352645 D    
O32   Cr4   1.952539 S    
O54   H50   0.985832 S    
C1    O9    1.261789 A    
C92   C112  1.387330 A    
O25   Cr1   2.076549 S    
C57   H17   1.111661 S    
C59   H23   1.110987 S    
C27   C32   1.360025 D    
C3    O11   1.270995 A    
C60   H24   1.110926 S    
O11   Cr7   2.071208 S    
C50   O74   1.381940 S    
C4    O12   1.265453 A    
C68   C75   1.386808 A    
C89   C105  1.522809 S    
C78   H32   1.110960 S    
C84   C100  1.396624 A    
C48   C64   1.398399 A    
O47   C23   1.285633 A    
O58   H54   0.990421 S    
C29   O53   1.381910 S    
C34   C38   1.401395 A    
C78   H34   1.108816 S    
C66   C70   1.398045 A    
C101  H45   1.111057 S    
C27   H4    1.082008 S    
C75   H27   1.068369 S    
O75   H63   0.990734 S    
Cr4   O52   1.979056 S    
C26   H1    1.081716 S    
C87   C91   1.368057 A    
C34   C50   1.419009 A    
O8    C4    1.281670 A    
C79   H29   1.110919 S    
C49   O73   1.382134 S    
O2    C10   1.301195 A    
O10   Cr6   2.075041 S    
O42   Cr10  2.067069 S    
Cr5   O49   1.995738 S    
O21   C9    1.304156 A    
C52   O76   1.382576 S    
C45   H5    1.080713 S    
O59   H55   0.990495 S    
C104  H48   1.110891 S    
C53   H11   1.111529 S    
C33   C37   1.401797 A    
C92   C108  1.495605 S    
C40   C56   1.490390 S    
C15   C82   1.461385 S    
C105  N1    1.436616 S    
C106  O70   1.406605 S    
O34   Cr6   2.068567 S    
C93   O57   1.378751 S    
C90   C106  1.498652 S    
C14   O34   1.267182 A    
O6    Cr2   1.952392 S    
C95   C99   1.412661 A    
C7    O19   1.282757 A    
N3    O66   1.301766 A    
O31   Cr3   1.949538 S    
O24   Cr12  1.947631 S    
O9    Cr5   2.071208 S    
O30   Cr2   1.952539 S    
C44   C60   1.494333 S    
O22   C10   1.306651 A    
C101  C105  1.512779 S    
C67   C71   1.383843 A    
O48   Cr12  1.940375 S    
C53   H13   1.111521 S    
C68   C72   1.397087 A    
O37   C17   1.286618 A    
C2    O10   1.256762 A    
C69   C77   1.484889 S    
C79   C80   1.504718 S    
C9    C61   1.466091 S    
O16   Cr8   1.949088 S    
O15   C7    1.270549 A    
C60   H20   1.110656 S    
C10   C62   1.466523 S    
C5    C25   1.466607 S    
C59   H19   1.109925 S    
N4    O67   1.301119 A    
Cr10  O50   1.996426 S    
C25   H2    1.081693 S    
C103  C107  1.513263 S    
C88   C104  1.497787 S    
C28   C31   1.353022 D    
C83   C99   1.411311 A    
C48   C52   1.393533 A    
C80   H30   1.111558 S    
C84   C88   1.404033 A    
O48   C24   1.271014 A    
N1    O62   1.302417 A    
Cr12  O52   1.996426 S    
C14   C83   1.454033 S    
C86   C90   1.367703 A    
O7    C3    1.287129 A    
C95   C111  1.425445 A    
O55   H51   0.992271 S    
C18   C65   1.423787 S    
C80   H36   1.111656 S    
C94   C110  1.432664 A    
O39   Cr7   1.950526 S    
C93   C109  1.424848 A    
C71   C72   1.355360 A    
C74   H26   1.069292 S    
O3    C11   1.264259 A    
C77   H33   1.112364 S    
O14   Cr6   1.949088 S    
C38   C54   1.491897 S    
O13   Cr5   1.940245 S    
O53   H49   0.985881 S    
C6    C26   1.466049 S    
C37   C53   1.492138 S    
C85   C89   1.367016 A    
O36   Cr8   2.068567 S    
C29   C30   1.510050 S    
C108  N4    1.469032 S    
O29   C13   1.302903 A    
C44   C64   1.398826 A    
O15   Cr7   1.940245 S    
O35   Cr7   2.058643 S    
Cr1   O49   1.978805 S    
O2    Cr2   2.071910 S    
C46   C50   1.408858 A    
C57   H21   1.112355 S    
C30   O54   1.382307 S    
C42   C58   1.492758 S    
C45   C49   1.408350 A    
Cr3   O51   1.978805 S    
O26   C22   1.274772 A    
O21   Cr9   1.951041 S    
O27   Cr3   2.076549 S    
C89   C109  1.414635 A    
C43   C59   1.493850 S    
O37   Cr5   1.950526 S    
C22   C110  1.455960 S    
C8    C28   1.463256 S    
C7    C27   1.468935 S    
C19   O43   1.251131 A    
C76   H28   1.069352 S    
C21   C109  1.479743 S    
C54   H14   1.111509 S    
C55   H15   1.110794 S    
O70   H58   0.991958 S    
C98   H38   1.080754 S    
C11   C63   1.449527 S    
C55   C59   1.514432 S    
C36   C40   1.394164 A    
C8    O20   1.278352 A    
O47   Cr11  1.947262 S    
O3    Cr3   2.070364 S    
C70   C78   1.491538 S    
C26   C29   1.351302 D    
C38   C42   1.388154 A    
C41   C57   1.492557 S    
C47   C63   1.399106 A    
N2    O64   1.301981 A    
C5    O17   1.275305 A    
C81   C85   1.375965 A    
O22   Cr10  1.947631 S    
O28   C24   1.274760 A    
C102  C106  1.517087 S    
C91   C107  1.521127 S    
C39   C43   1.385616 A    
C95   O59   1.378346 S    
O5    Cr1   1.957767 S    
C35   C51   1.419082 A    
C31   O55   1.381807 S    
C88   C92   1.374267 A    
O17   Cr9   2.065692 S    
C107  N3    1.441514 S    
Cr2   O50   1.979056 S    
O6    C2    1.281644 A    
C15   O35   1.253014 A    
C19   C68   1.428308 S    
C28   H3    1.082773 S    
C17   O41   1.250942 A    
C104  C108  1.514913 S    
C48   H8    1.082467 S    
C105  O69   1.401966 S    
C103  H43   1.107150 S    
C67   C76   1.397814 A    
C77   H31   1.111612 S    
O73   H61   0.990430 S    
C17   C66   1.426871 S    
C55   H9    1.111677 S    
C47   C51   1.393776 A    
O40   Cr8   1.954408 S    
C56   C60   1.514496 S    
C65   C74   1.408162 A    
C20   O44   1.289014 A    
O76   H64   0.990655 S    
C33   C49   1.419399 A    
C71   C79   1.495413 S    
C102  H42   1.111309 S    
C101  H41   1.108598 S    
O14   C6    1.281752 A    
C90   C110  1.385910 A    
C20   C67   1.429423 S    
C54   H12   1.111685 S    
C4    C33   1.473869 S    
Cr8   O52   1.983400 S    
O32   C16   1.267873 A    
O41   Cr9   2.069780 S    
O33   Cr5   2.058643 S    
C41   C61   1.397973 A    
C58   H22   1.112379 S    
Cr6   O50   1.983400 S    
C24   C112  1.458780 S    
C37   C41   1.388211 A    
C1    C36   1.457037 S    
C93   C97   1.417945 A    
O19   Cr11  2.065692 S    
C46   H6    1.080302 S    
O38   Cr6   1.954408 S    
O26   Cr2   2.069400 S    
C13   O33   1.254510 A    
C42   C62   1.398176 A    
C3    C34   1.474067 S    
O23   C11   1.271876 A    
C72   C80   1.499767 S    
C65   C69   1.376542 A    
C106  N2    1.468703 S    
O13   C5    1.279125 A    
C73   H25   1.071450 S    
O4    Cr4   2.071910 S    
C75   C76   1.394014 A    
C100  H40   1.078258 S    
O29   Cr1   1.949538 S    
C96   C112  1.425959 A    
O40   C20   1.300972 A    
C16   O36   1.268231 A    
C97   H37   1.081365 S    
O38   C18   1.269005 A    
C13   C84   1.469427 S    
O44   Cr12  2.067069 S    
O18   Cr10  2.060318 S    
C6    O18   1.275559 A    
O28   Cr4   2.069400 S    
O43   Cr11  2.069780 S    
O56   H52   0.990915 S    
C108  O72   1.406151 S    
C16   C81   1.456263 S    
O27   C23   1.261311 A    
O45   Cr9   1.947262 S    
C56   H16   1.111027 S    
C23   C111  1.472867 S    
C35   C39   1.393748 A    
O12   Cr8   2.075041 S    
N3    O65   1.300299 A    
O31   C15   1.300851 A    
O16   C8    1.277834 A    
Cr9   O49   1.984408 S    
C83   C87   1.381856 A    
O72   H60   0.991970 S    
O57   H53   0.990496 S    
C91   C111  1.412533 A    
C36   C52   1.420118 A    
C96   O60   1.374414 S    
C107  O71   1.402622 S    
