data_mof_unit_34035.cif
_audit_creation_date              2013-03-05T16:13:46-0500
_audit_creation_method            fapswitch 2.2
_symmetry_space_group_name_H-M    P1
_symmetry_Int_Tables_number       1
_space_group_crystal_system       triclinic
_cell_length_a                    8.27616
_cell_length_b                    17.490903
_cell_length_c                    18.822847
_cell_angle_alpha                 100.46846
_cell_angle_beta                  92.483885
_cell_angle_gamma                 99.00919
_cell_volume                      2639.10076258

loop_
_atom_site_label
_atom_site_type_symbol
_atom_site_description
_atom_site_fract_x
_atom_site_fract_y
_atom_site_fract_z
_atom_type_partial_charge
P1    P     P_3+3 0.032830 0.432130 0.335280 0.518570
O1    O     O_2   0.865200 0.455450 0.325860 -0.383791
O2    O     O_3   0.117880 0.456770 0.413320 -0.366793
O3    O     O_3   0.657770 0.599920 0.378120 -0.320710
O4    O     O_2   0.761832 0.540417 0.251755 -0.398672
O5    O     O_3   0.990870 0.328763 0.311697 -0.536879
O6    O     O_3   0.670733 0.672222 0.252479 -0.574971
C1    C     C_3   0.477354 0.742372 0.207035 -0.983555
H1    H     H_    0.571842 0.765372 0.172574 0.282776
H2    H     H_    0.400181 0.688527 0.175007 0.225920
P2    P     P_3+3 0.680690 0.682340 0.566920 0.495399
P3    P     P_3+3 0.144898 0.742666 0.429397 0.478669
O7    O     O_2   0.855570 0.693850 0.546560 -0.343201
O8    O     O_3   0.082050 0.640900 0.416060 -0.404824
O9    O     O_2   0.078848 0.781641 0.500240 -0.363033
O10   O     O_3   0.695962 0.705665 0.661746 -0.553419
O11   O     O_3   0.049673 0.777995 0.360265 -0.446989
C2    C     C_3   0.070717 0.730225 0.293795 0.454391
H3    H     H_    0.985731 0.673222 0.286558 0.153371
H4    H     H_    0.197834 0.718074 0.290276 -0.019144
C3    C     C_3   0.034744 0.771999 0.232173 -0.831798
H5    H     H_    0.907918 0.784966 0.232624 0.292648
H6    H     H_    0.121547 0.828387 0.237952 0.253249
C4    C     C_3   0.251321 0.702546 0.629336 0.410359
H7    H     H_    0.360557 0.678781 0.609691 0.070001
H8    H     H_    0.152454 0.688568 0.585107 0.141207
C5    C     C_3   0.294930 0.791665 0.652465 -0.840380
H9    H     H_    0.400049 0.807112 0.694071 0.268014
H10   H     H_    0.328953 0.818813 0.605276 0.205531
H11   H     H_    0.187899 0.815930 0.675293 0.283621
Ba1   Ba    Ba6+2 0.852650 0.537180 0.468240 1.629493
C6    C     C_3   0.961337 0.295502 0.373548 0.396769
H12   H     H_    0.835601 0.300139 0.388629 0.041360
H13   H     H_    0.048298 0.323718 0.420746 0.143811
C7    C     C_3   0.979328 0.208973 0.356661 -0.795697
H14   H     H_    0.897145 0.177347 0.308922 0.297875
H15   H     H_    0.947161 0.180905 0.403643 0.212268
H16   H     H_    0.107966 0.203626 0.345058 0.256932
C8    C     C_3   0.737495 0.642078 0.690226 0.241765
H17   H     H_    0.863465 0.633937 0.677267 0.093084
H18   H     H_    0.650545 0.586740 0.668531 0.097686
C9    C     C_3   0.728404 0.659699 0.772328 -0.104937
H19   H     H_    0.759072 0.609720 0.796008 0.063248
H20   H     H_    0.600630 0.666628 0.784642 0.151149
P4    P     P_3+3 0.156880 0.567940 0.664730 0.487903
O12   O     O_2   0.324510 0.544570 0.674190 -0.361789
O13   O     O_3   0.071830 0.543290 0.586690 -0.423850
O14   O     O_3   0.531950 0.400150 0.621890 -0.372056
O15   O     O_3   0.199370 0.670813 0.689094 -0.523144
P5    P     P_3+3 0.069465 0.258309 0.583458 0.468094
O16   O     O_3   0.606980 0.404400 0.458100 -0.344343
O17   O     O_3   0.107660 0.359170 0.583950 -0.361499
O18   O     O_2   0.175480 0.219713 0.526286 -0.388948
O19   O     O_3   0.149700 0.240815 0.665282 -0.505180
Ba2   Ba    Ba6+2 0.337190 0.462880 0.531770 1.594805
P6    P     P_3+3 0.623519 0.583054 0.283003 0.487062
C10   C     C_3   0.559133 0.723170 0.274733 0.897466
H21   H     H_    0.460550 0.697035 0.305445 -0.142121
H22   H     H_    0.397861 0.787319 0.222417 0.246478
O20   O     O_3   0.582730 0.595670 0.541910 -0.400500
C11   C     C_3   0.533076 0.313635 0.299376 0.212886
H23   H     H_    0.653477 0.350113 0.317032 0.126341
C12   C     C_3   0.539762 0.271349 0.220781 -0.144897
H24   H     H_    0.416752 0.237902 0.198846 0.142199
H25   H     H_    0.575676 0.316232 0.186798 0.085350
P7    P     P_3+3 0.517365 0.302756 0.436369 0.502686
O21   O     O_2   0.334130 0.306180 0.453490 -0.330678
O22   O     O_3   0.497694 0.258096 0.343879 -0.551463
H26   H     H_    0.048917 0.733990 0.179508 0.212035
C13   C     C_3   0.037986 0.252742 0.718529 0.192339
H27   H     H_    0.016706 0.314977 0.728268 0.101841
H28   H     H_    0.920195 0.211670 0.702084 0.039926
C14   C     C_3   0.111525 0.234689 0.788364 -0.074940
H29   H     H_    0.228076 0.275731 0.806741 0.173053
H30   H     H_    0.139284 0.173602 0.777398 0.154251
P8    P     P_3+3 0.557583 0.409379 0.716322 0.468770
C15   C     C_3   0.572563 0.263080 0.724107 0.345992
H31   H     H_    0.694030 0.285899 0.706050 -0.035416
O23   O     O_2   0.447426 0.467290 0.750883 -0.374541
O24   O     O_3   0.471063 0.320555 0.740055 -0.518459
H32   H     H_    0.682643 0.185150 0.782576 0.246196
C16   C     C_3   0.602659 0.230732 0.792831 -0.716996
H33   H     H_    0.484748 0.204134 0.811266 0.244730
H34   H     H_    0.662736 0.279342 0.836719 0.257043
N1    N     N_R   0.201104 0.524120 0.952260 -0.068460
N2    N     N_R   0.252910 0.525219 0.020702 -0.072820
C17   C     C_2   0.284290 0.530134 0.293172 -0.283000
C18   C     C_3   0.423128 0.521051 0.244945 0.191247
C19   C     C_2   0.368143 0.524930 0.168219 -0.328790
C20   C     C_2   0.207099 0.500280 0.145130 0.038066
C21   C     C_2   0.090686 0.475173 0.200019 -0.271291
C22   C     C_1   0.143616 0.483866 0.269776 0.304296
N3    N     N_R   0.988006 0.473275 0.044455 -0.053525
N4    N     N_R   0.936215 0.472105 0.975964 -0.049046
C23   C     C_R   0.041425 0.497400 0.928131 0.229588
C24   C     C_R   0.147859 0.499584 0.068420 0.181783
C25   C     C_R   0.087944 0.525736 0.801834 -0.203005
C26   C     C_R   0.033833 0.518260 0.728345 0.327910
C27   C     C_R   0.770962 0.448362 0.751057 0.196406
C28   C     C_R   0.823039 0.455800 0.824246 -0.220819
C29   C     C_R   0.983988 0.492993 0.850542 0.035030
C30   C     C_R   0.878236 0.476894 0.703341 -0.510207
H35   H     H_    0.458823 0.542413 0.131693 0.178431
H36   H     H_    0.963318 0.450871 0.182778 0.184527
H37   H     H_    0.209533 0.557580 0.820849 0.162100
H38   H     H_    0.737727 0.432839 0.860285 0.160485
H39   H     H_    0.289585 0.581646 0.335509 0.112051
H40   H     H_    0.836043 0.471632 0.647168 0.167828
C31   C     C_2   0.451827 0.717862 0.476947 -0.396074
C32   C     C_3   0.371780 0.766959 0.432436 0.115686
C33   C     C_2   0.431513 0.854132 0.454689 -0.120774
C34   C     C_2   0.559241 0.882682 0.504649 0.116066
C35   C     C_2   0.638160 0.826014 0.539289 -0.200842
C36   C     C_1   0.580591 0.749391 0.522855 0.319421
C37   C     C_R   0.788502 0.140630 0.548941 -0.264993
C38   C     C_R   0.853135 0.220317 0.554470 0.200181
C39   C     C_R   0.608030 0.240724 0.490629 0.267402
C40   C     C_R   0.543476 0.160577 0.483643 -0.245994
C41   C     C_R   0.631145 0.109939 0.514176 0.136251
C42   C     C_2   0.634139 0.967690 0.520598 -0.102800
C43   C     C_2   0.555081 0.025637 0.505941 -0.080140
C44   C     C_R   0.760215 0.270569 0.527979 -0.496207
H41   H     H_    0.427326 0.011082 0.485551 0.127741
H42   H     H_    0.743378 0.848241 0.578187 0.151177
H43   H     H_    0.863561 0.103908 0.570661 0.146739
H44   H     H_    0.759695 0.981220 0.543596 0.135755
H45   H     H_    0.378070 0.891837 0.423948 0.137708
H46   H     H_    0.426740 0.137448 0.453020 0.166143
H47   H     H_    0.409821 0.654640 0.464983 0.161388
H48   H     H_    0.812614 0.331762 0.530391 0.160153
N5    N     N_R   0.649496 0.794539 0.321529 0.215540
O25   O     O_R   0.730882 0.788253 0.380184 -0.359300
O26   O     O_R   0.653459 0.864034 0.305247 -0.394163
N6    N     N_R   0.841703 0.731239 0.805132 0.286846
O27   O     O_R   0.999255 0.732457 0.805251 -0.347642
O28   O     O_R   0.785859 0.792821 0.837809 -0.313510
C45   C     C_2   0.403276 0.364028 0.301959 0.436956
H49   H     H_    0.299771 0.349703 0.261751 -0.007205
O29   O     O_2   0.410359 0.419932 0.351700 -0.532746
N7    N     N_R   0.657033 0.216817 0.215697 0.290946
O30   O     O_R   0.788604 0.230146 0.181422 -0.333762
O31   O     O_R   0.618193 0.149066 0.235266 -0.326486
N8    N     N_R   0.999791 0.242645 0.845907 0.234864
O32   O     O_R   0.943145 0.181840 0.873720 -0.335655
O33   O     O_R   0.975113 0.312256 0.876494 -0.422920
C46   C     C_2   0.486380 0.199553 0.663734 0.576622
H50   H     H_    0.443888 0.216342 0.614592 0.069775
O34   O     O_2   0.460731 0.130157 0.669024 -0.587924

loop_
_geom_bond_atom_site_label_1
_geom_bond_atom_site_label_2
_geom_bond_distance
_ccdc_geom_bond_type
O14   Ba2   2.769962 S    
P7    O22   1.763220 S    
C17   C18   1.504918 S    
C12   H25   1.113414 S    
N3    N4    1.336386 A    
C5    H10   1.107602 S    
C2    C3    1.521198 S    
N1    C23   1.359609 A    
C12   N7    1.457973 S    
O14   P8    1.755792 S    
O4    P6    1.542325 D    
O5    C6    1.407061 S    
C33   C34   1.352419 D    
C11   O22   1.399641 S    
P8    O23   1.543212 D    
C21   H36   1.084916 S    
P3    C32   1.855155 S    
H32   C16   1.109742 S    
C20   C21   1.518930 S    
C8    H18   1.110954 S    
N1    N2    1.335824 A    
P8    C27   1.836252 S    
C45   O29   1.216853 D    
Ba2   O20   2.808490 S    
P5    O19   1.747265 S    
C38   C44   1.396524 A    
C7    H15   1.109595 S    
N7    O31   1.301100 A    
P1    O1    1.518118 D    
P4    C26   1.852723 S    
C1    H22   1.109286 S    
C42   H44   1.081643 S    
P6    C18   1.868483 S    
N8    O32   1.300924 A    
P1    Ba1   3.372500 S    
C2    H4    1.107841 S    
C2    H3    1.109088 S    
C14   H29   1.108771 S    
C11   C12   1.536538 S    
P2    C36   1.829727 S    
C40   C41   1.411120 A    
C32   C33   1.502849 S    
O2    Ba2   2.789027 S    
C40   H46   1.083462 S    
C7    H14   1.106631 S    
C1    H1    1.111011 S    
P7    C39   1.837007 S    
O12   Ba2   2.813969 S    
C23   C29   1.500761 S    
P5    O17   1.741090 S    
C4    C5    1.520913 S    
C30   H40   1.082102 S    
C13   H27   1.113496 S    
O8    Ba1   2.755133 S    
P5    C38   1.831865 S    
O17   Ba2   2.755672 S    
C25   H37   1.082469 S    
P4    O13   1.557018 S    
P7    O21   1.571929 D    
P2    Ba1   3.401318 S    
Ba1   O13   2.788373 S    
C3    H5    1.108091 S    
O3    P6    1.763724 S    
C5    H11   1.110804 S    
C14   H30   1.112594 S    
C11   H23   1.097993 S    
C9    H20   1.112588 S    
O6    P6    1.751973 S    
C34   C35   1.494936 S    
O7    Ba1   2.862041 S    
C25   C26   1.411857 A    
C8    C9    1.527457 S    
C46   O34   1.222020 D    
C41   C43   1.487387 S    
P5    O18   1.544971 D    
P1    O5    1.756364 S    
C6    C7    1.521067 S    
C7    H16   1.110766 S    
C4    H7    1.103465 S    
C35   C36   1.324928 D    
C8    H17   1.105706 S    
C34   C42   1.489346 S    
N6    O28   1.300748 A    
C15   H31   1.112952 S    
C3    H26   1.110585 S    
O1    Ba1   2.813389 S    
P1    O2    1.557012 S    
O16   P7    1.781738 S    
C6    H13   1.106698 S    
Ba1   O20   2.903196 S    
P3    O11   1.747013 S    
C39   C44   1.391795 A    
C1    C10   1.531865 S    
P2    O10   1.751566 S    
C27   C28   1.402287 A    
O19   C13   1.402712 S    
P3    O9    1.546361 D    
P4    O15   1.749171 S    
C13   C14   1.529598 S    
O11   C2    1.406573 S    
N7    O30   1.300895 A    
O2    Ba1   2.915538 S    
N2    C24   1.362210 A    
C31   C36   1.322664 D    
P3    O8    1.743057 S    
P1    C22   1.850232 S    
C37   C41   1.411362 A    
C3    H6    1.110405 S    
C31   H47   1.084768 S    
C9    H19   1.108398 S    
P2    O20   1.581028 S    
C21   C22   1.340065 D    
C42   C43   1.350976 D    
O13   Ba2   2.916445 S    
C46   H50   1.080903 S    
C14   N8    1.456023 S    
C15   O24   1.408196 S    
C4    O15   1.397207 S    
N8    O33   1.299601 A    
C28   H38   1.082431 S    
C10   N5    1.464379 S    
P8    O24   1.748587 S    
Ba1   O16   2.809005 S    
N5    O26   1.302406 A    
N5    O25   1.299057 A    
Ba2   O21   2.862048 S    
C20   C24   1.501918 S    
N6    O27   1.300652 A    
N3    C24   1.359285 A    
C45   H49   1.084920 S    
C16   H34   1.108740 S    
C37   H43   1.078871 S    
C9    N6    1.458714 S    
C6    H12   1.101676 S    
C26   C30   1.391116 A    
C39   C40   1.400100 A    
C33   H45   1.083147 S    
P2    O7    1.505666 D    
C4    H8    1.107566 S    
C11   C45   1.489558 S    
C10   H21   1.108578 S    
C35   H42   1.086633 S    
C15   C16   1.528956 S    
C28   C29   1.413144 A    
O6    C10   1.406521 S    
O16   Ba2   2.902220 S    
N4    C23   1.362573 A    
C25   C29   1.419022 A    
C43   H41   1.084000 S    
O3    Ba1   2.770678 S    
O10   C8    1.401053 S    
C12   H24   1.112840 S    
P4    O12   1.518594 D    
C27   C30   1.391823 A    
C17   H39   1.082798 S    
C18   C19   1.511859 S    
P4    Ba2   3.373188 S    
C1    H2    1.109169 S    
C16   H33   1.111286 S    
C31   C32   1.506578 S    
C5    H9    1.110692 S    
C13   H28   1.111725 S    
Ba1   Ba2   4.580528 S    
C19   C20   1.361220 D    
C17   C22   1.317302 D    
C15   C46   1.502486 S    
C44   H48   1.082123 S    
C19   H35   1.085675 S    
C37   C38   1.395922 A    
