data_mof_unit_19179.cif
_audit_creation_date              2012-12-11T15:57:04-0500
_audit_creation_method            fapswitch 2.2
_symmetry_space_group_name_H-M    P1
_symmetry_Int_Tables_number       1
_space_group_crystal_system       triclinic
_cell_length_a                    17.427411
_cell_length_b                    24.353591
_cell_length_c                    15.040453
_cell_angle_alpha                 90.000875
_cell_angle_beta                  126.193656
_cell_angle_gamma                 89.85222
_cell_volume                      5151.59795072

loop_
_atom_site_label
_atom_site_type_symbol
_atom_type_description
_atom_site_fract_x
_atom_site_fract_y
_atom_site_fract_z
_atom_type_partial_charge
C1    C     C_R   0.308064 0.123847 0.906913 -0.134077
C2    C     C_R   0.557324 0.152086 0.908418 -0.151412
C3    C     C_R   0.811739 0.362436 0.998611 -0.005979
C4    C     C_R   0.541564 0.000063 0.354336 0.026382
C5    C     C_R   0.041402 0.500061 0.354235 0.026563
C6    C     C_R   0.191274 0.000560 0.637094 0.036891
C7    C     C_R   0.691297 0.500563 0.637075 0.036866
C8    C     C_R   0.523476 0.045472 0.756464 -0.141061
C9    C     C_R   0.522371 0.953540 0.756302 -0.141298
C10   C     C_R   0.023496 0.545470 0.756488 -0.141038
C11   C     C_R   0.022378 0.453539 0.756316 -0.141334
C12   C     C_R   0.769307 0.953514 0.248080 -0.130910
C13   C     C_R   0.055894 0.347133 0.909353 -0.152896
C14   C     C_R   0.769432 0.045828 0.247260 -0.142497
C15   C     C_R   0.269308 0.453512 0.248097 -0.130857
C16   C     C_R   0.269436 0.545827 0.247276 -0.142568
C17   C     C_3   0.397039 0.073397 0.363411 -0.293585
C18   C     C_3   0.445682 0.126963 0.425487 -1.031143
C19   C     C_3   0.361068 0.971527 0.340318 -0.426912
C20   C     C_3   0.311524 0.978159 0.215787 -0.951674
C21   C     C_3   0.897067 0.573504 0.363418 -0.293712
C22   C     C_3   0.945883 0.627041 0.425506 -1.031373
C23   C     C_3   0.860841 0.471669 0.340351 -0.426935
C24   C     C_R   0.057330 0.652083 0.908415 -0.151404
C25   C     C_3   0.811368 0.478191 0.215818 -0.951818
C26   C     C_R   0.551283 0.999063 0.728263 0.013645
C27   C     C_R   0.051273 0.499059 0.728257 0.013654
C28   C     C_R   0.824465 0.999417 0.271862 0.025822
C29   C     C_R   0.324470 0.499413 0.271898 0.025856
C30   C     C_R   0.618591 0.183458 0.999861 -0.007202
C31   C     C_R   0.616285 0.815468 0.001123 -0.007369
C32   C     C_R   0.118604 0.683453 0.999856 -0.007203
C33   C     C_R   0.308322 0.876061 0.906532 -0.137306
C34   C     C_R   0.116288 0.315467 0.001125 -0.007371
C35   C     C_3   0.021589 0.964155 0.516719 -0.154082
C36   C     C_3   0.033561 0.050889 0.486061 -0.167884
C37   C     C_3   0.521569 0.464259 0.516842 -0.153979
C38   C     C_3   0.533659 0.550924 0.485894 -0.167915
C39   C     C_3   0.955222 0.014140 0.470865 -0.136677
C40   C     C_3   0.455275 0.514275 0.470840 -0.136751
C41   C     C_3   0.925822 0.999178 0.355557 0.189873
C42   C     C_3   0.425831 0.499172 0.355572 0.189875
C43   C     C_3   0.991787 0.949020 0.400873 -0.167342
C44   C     C_R   0.808065 0.623849 0.906911 -0.134092
C45   C     C_3   0.003238 0.036002 0.369542 -0.160029
C46   C     C_3   0.491728 0.448983 0.401040 -0.167339
C47   C     C_3   0.503290 0.535896 0.369412 -0.159964
C48   C     C_3   0.071807 0.985719 0.417317 -0.150247
C49   C     C_3   0.571790 0.485582 0.417340 -0.150306
C50   C     C_R   0.401789 0.875358 0.091516 -0.138255
C51   C     C_R   0.401825 0.124317 0.091796 -0.145861
C52   C     C_R   0.901796 0.375351 0.091517 -0.138418
C53   C     C_R   0.901829 0.624324 0.091794 -0.145756
C54   C     C_3   0.099549 0.000796 0.531664 0.190621
C55   C     C_R   0.808325 0.376056 0.906533 -0.137336
C56   C     C_3   0.599574 0.500800 0.531646 0.190620
C57   C     C_3   0.249784 0.821313 0.098114 -0.400678
C58   C     C_3   0.255007 0.179296 0.103844 -0.407065
C59   C     C_3   0.749852 0.321295 0.098169 -0.400450
C60   C     C_3   0.755000 0.679296 0.103835 -0.407079
C61   C     C_3   0.701192 0.269732 0.102051 -0.411750
C62   C     C_3   0.700237 0.728894 0.104081 -0.408278
C63   C     C_3   0.201183 0.769731 0.102034 -0.411632
C64   C     C_3   0.200243 0.228894 0.104088 -0.408309
C65   C     C_3   0.804874 0.263711 0.004623 -0.397246
C66   C     C_R   0.649349 0.151996 0.091684 -0.151966
C67   C     C_3   0.800071 0.735619 0.999258 -0.397737
C68   C     C_3   0.304910 0.763718 0.004687 -0.397201
C69   C     C_3   0.300067 0.235615 0.999253 -0.397719
C70   C     C_3   0.151068 0.817943 0.892064 -0.408128
C71   C     C_3   0.148798 0.179305 0.897127 -0.401303
C72   C     C_3   0.651055 0.317964 0.892108 -0.408106
C73   C     C_3   0.648801 0.679310 0.897118 -0.401288
C74   C     C_3   0.254825 0.817919 0.998377 0.403686
C75   C     C_3   0.254179 0.181243 0.999787 0.402496
C76   C     C_3   0.754830 0.317916 0.998385 0.403638
C77   C     C_R   0.648216 0.847575 0.092274 -0.150982
C78   C     C_3   0.754180 0.681247 0.999783 0.402481
C79   C     C_3   0.664503 0.233597 0.999251 0.409998
C80   C     C_3   0.662741 0.765211 0.001028 0.408792
C81   C     C_3   0.164509 0.733593 0.999241 0.409990
C82   C     C_3   0.162743 0.265209 0.001032 0.408800
C83   C     C_3   0.749605 0.214361 0.000352 -0.397813
C84   C     C_3   0.747258 0.784679 0.001368 -0.395641
C85   C     C_3   0.249623 0.714363 0.000361 -0.397844
C86   C     C_3   0.247258 0.284676 0.001365 -0.395651
C87   C     C_3   0.596472 0.269272 0.894742 -0.405882
C88   C     C_R   0.149358 0.651994 0.091682 -0.151979
C89   C     C_3   0.594961 0.729488 0.897012 -0.407730
C90   C     C_3   0.096479 0.769263 0.894721 -0.405880
C91   C     C_3   0.094961 0.229485 0.897019 -0.407726
C92   C     C_3   0.624325 0.041201 0.644088 -0.397004
C93   C     C_3   0.579229 0.941527 0.612622 -0.428984
C94   C     C_3   0.124388 0.541107 0.644106 -0.397141
C95   C     C_3   0.078902 0.441489 0.612391 -0.429076
C96   C     C_R   0.537695 0.045797 0.298387 -0.170835
C97   C     C_R   0.538559 0.954155 0.298589 -0.146501
C98   C     C_R   0.037608 0.545795 0.298336 -0.170406
C99   C     C_R   0.148218 0.347575 0.092275 -0.150963
C100  C     C_R   0.038493 0.454153 0.298547 -0.147200
C101  C     C_3   0.621044 0.040983 0.539719 -0.413455
C102  C     C_3   0.577685 0.942923 0.510502 -0.469966
C103  C     C_3   0.121020 0.540909 0.539680 -0.413720
C104  C     C_3   0.077367 0.442888 0.510284 -0.469979
C105  C     C_3   0.449449 0.013099 0.530362 -0.503493
C106  C     C_3   0.949419 0.513237 0.530386 -0.503674
C107  C     C_3   0.552578 0.998891 0.631565 0.371160
C108  C     C_3   0.052505 0.498889 0.631517 0.371249
C109  C     C_3   0.542988 0.000457 0.452565 0.329284
C110  C     C_R   0.555893 0.847133 0.909351 -0.152890
C111  C     C_3   0.042837 0.500453 0.452470 0.329466
C112  C     C_3   0.439597 0.015445 0.420612 0.423767
C113  C     C_3   0.939503 0.515537 0.420594 0.423849
C114  C     C_R   0.240263 0.954398 0.696040 -0.157425
C115  C     C_R   0.239955 0.046273 0.697016 -0.145172
C116  C     C_R   0.740272 0.454399 0.696030 -0.157457
C117  C     C_R   0.739969 0.546274 0.697007 -0.145121
C118  C     C_R   0.311510 0.137059 0.999275 -0.008349
C119  C     C_R   0.311732 0.862443 0.998608 -0.006093
C120  C     C_R   0.811513 0.637065 0.999273 -0.008362
H1    H     H_    0.251419 0.131945 0.821697 0.088003
H2    H     H_    0.992904 0.065091 0.306462 0.105505
H3    H     H_    0.793079 0.087986 0.263303 0.097546
H4    H     H_    0.292304 0.411161 0.264294 0.092178
H5    H     H_    0.293084 0.587985 0.263317 0.097560
H6    H     H_    0.692212 0.165061 0.176669 0.084121
H7    H     H_    0.690956 0.834774 0.177492 0.083567
H8    H     H_    0.192225 0.665061 0.176665 0.084121
H9    H     H_    0.190956 0.334775 0.177493 0.083565
H10   H     H_    0.512241 0.834249 0.824298 0.082650
H11   H     H_    0.514172 0.164600 0.823074 0.083952
H12   H     H_    0.012241 0.334248 0.824300 0.082650
H13   H     H_    0.472765 0.407347 0.363992 0.101836
H14   H     H_    0.014175 0.664595 0.823070 0.083952
H15   H     H_    0.905956 0.025715 0.491829 0.108677
H16   H     H_    0.406041 0.525961 0.491790 0.108668
H17   H     H_    0.479826 0.124526 0.514719 0.270313
H18   H     H_    0.497365 0.140934 0.410238 0.249462
H19   H     H_    0.391237 0.160033 0.392215 0.254644
H20   H     H_    0.387506 0.075875 0.283942 0.196740
H21   H     H_    0.323779 0.075741 0.341163 0.184578
H22   H     H_    0.261364 0.013455 0.182482 0.246592
H23   H     H_    0.361408 0.983681 0.194306 0.285730
H24   H     H_    0.492984 0.564898 0.306230 0.105521
H25   H     H_    0.268805 0.941057 0.172778 0.252009
H26   H     H_    0.387704 0.928982 0.364093 0.190482
H27   H     H_    0.301620 0.973712 0.348398 0.188424
H28   H     H_    0.980240 0.624576 0.514779 0.270370
H29   H     H_    0.997451 0.640981 0.410052 0.249448
H30   H     H_    0.891518 0.660143 0.392447 0.254723
H31   H     H_    0.887487 0.575944 0.283919 0.196750
H32   H     H_    0.823831 0.575926 0.341228 0.184534
H33   H     H_    0.761610 0.513673 0.182451 0.246665
H34   H     H_    0.861311 0.483297 0.194333 0.285843
H35   H     H_    0.122795 0.974243 0.398965 0.103520
H36   H     H_    0.768197 0.441216 0.172857 0.251878
H37   H     H_    0.887315 0.429102 0.364248 0.190539
H38   H     H_    0.801373 0.474023 0.348372 0.188441
H39   H     H_    0.622749 0.473996 0.399007 0.103510
H40   H     H_    0.321226 0.824548 0.177761 0.145993
H41   H     H_    0.328498 0.180998 0.180761 0.157915
H42   H     H_    0.821319 0.324479 0.177795 0.146016
H43   H     H_    0.828490 0.680995 0.180756 0.157961
H44   H     H_    0.208246 0.858169 0.089586 0.153680
H45   H     H_    0.251840 0.868398 0.821140 0.089432
H46   H     H_    0.222505 0.140390 0.105484 0.153260
H47   H     H_    0.708402 0.358175 0.089742 0.153653
H48   H     H_    0.722495 0.640390 0.105466 0.153228
H49   H     H_    0.141245 0.781707 0.105349 0.150913
H50   H     H_    0.139931 0.214554 0.104595 0.152435
H51   H     H_    0.641252 0.281732 0.105347 0.150935
H52   H     H_    0.639923 0.714553 0.104584 0.152432
H53   H     H_    0.754003 0.246815 0.178922 0.146897
H54   H     H_    0.749325 0.752347 0.181220 0.145272
H55   H     H_    0.254027 0.746824 0.178906 0.146911
H56   H     H_    0.751419 0.631945 0.821694 0.088015
H57   H     H_    0.249331 0.252349 0.181224 0.145269
H58   H     H_    0.878334 0.262107 0.082466 0.152936
H59   H     H_    0.875952 0.737646 0.072137 0.153630
H60   H     H_    0.378344 0.762122 0.082575 0.152933
H61   H     H_    0.375950 0.237642 0.072128 0.153632
H62   H     H_    0.797992 0.187481 0.072961 0.152410
H63   H     H_    0.797262 0.809674 0.076243 0.153989
H64   H     H_    0.297996 0.687470 0.072954 0.152406
H65   H     H_    0.297264 0.309671 0.076238 0.153994
H66   H     H_    0.149502 0.813655 0.817491 0.146459
H67   H     H_    0.751844 0.368392 0.821140 0.089428
H68   H     H_    0.142894 0.180035 0.819501 0.143195
H69   H     H_    0.649443 0.313710 0.817500 0.146443
H70   H     H_    0.642903 0.680044 0.819495 0.143199
H71   H     H_    0.431784 0.866171 0.176204 0.092592
H72   H     H_    0.432124 0.133406 0.176491 0.092841
H73   H     H_    0.931797 0.366159 0.176204 0.092585
H74   H     H_    0.932132 0.633425 0.176486 0.092813
H75   H     H_    0.114857 0.857208 0.884576 0.153082
H76   H     H_    0.114799 0.140805 0.897614 0.154462
H77   H     H_    0.614866 0.357225 0.884699 0.153091
H78   H     H_    0.030559 0.934938 0.578954 0.106016
H79   H     H_    0.614801 0.640809 0.897597 0.154464
H80   H     H_    0.036083 0.784500 0.894442 0.153143
H81   H     H_    0.033043 0.215838 0.894964 0.151030
H82   H     H_    0.536068 0.284498 0.894456 0.153124
H83   H     H_    0.533043 0.715839 0.894953 0.151032
H84   H     H_    0.566365 0.245303 0.818095 0.144280
H85   H     H_    0.567149 0.753164 0.820417 0.144726
H86   H     H_    0.066358 0.745288 0.818078 0.144268
H87   H     H_    0.067147 0.253159 0.820422 0.144727
H88   H     H_    0.810992 0.261140 0.935075 0.152909
H89   H     H_    0.051467 0.092671 0.522432 0.100438
H90   H     H_    0.798683 0.738137 0.924360 0.152954
H91   H     H_    0.311101 0.761143 0.935195 0.152900
H92   H     H_    0.298673 0.238131 0.924351 0.152951
H93   H     H_    0.724093 0.189851 0.925114 0.154623
H94   H     H_    0.721743 0.811180 0.928361 0.153343
H95   H     H_    0.224119 0.689868 0.925109 0.154635
H96   H     H_    0.221740 0.311176 0.928356 0.153340
H97   H     H_    0.609161 0.083102 0.658915 0.147115
H98   H     H_    0.526904 0.909995 0.597902 0.151810
H99   H     H_    0.109402 0.583022 0.659090 0.147064
H100  H     H_    0.530511 0.435128 0.579179 0.106038
H101  H     H_    0.026428 0.410039 0.597569 0.151836
H102  H     H_    0.697328 0.030427 0.716851 0.154552
H103  H     H_    0.650701 0.928669 0.685769 0.161999
H104  H     H_    0.197364 0.530231 0.716794 0.154633
H105  H     H_    0.150317 0.428523 0.685497 0.161985
H106  H     H_    0.691859 0.027960 0.562386 0.154106
H107  H     H_    0.650729 0.934225 0.535342 0.170379
H108  H     H_    0.191782 0.527834 0.562255 0.154163
H109  H     H_    0.150389 0.434123 0.535115 0.170398
H110  H     H_    0.612113 0.083179 0.508811 0.169676
H111  H     H_    0.551627 0.592738 0.522123 0.100423
H112  H     H_    0.533727 0.908282 0.456598 0.148809
H113  H     H_    0.112158 0.583119 0.508848 0.169803
H114  H     H_    0.033299 0.408297 0.456290 0.148911
H115  H     H_    0.424251 0.051841 0.544008 0.170720
H116  H     H_    0.401516 0.981674 0.527159 0.138630
H117  H     H_    0.924429 0.552038 0.544124 0.170772
H118  H     H_    0.901355 0.481911 0.527182 0.138684
H119  H     H_    0.551240 0.087831 0.326109 0.096327
H120  H     H_    0.552520 0.911881 0.325272 0.089287
H121  H     H_    0.051175 0.587825 0.326081 0.096238
H122  H     H_    0.972876 0.907415 0.363678 0.101863
H123  H     H_    0.052470 0.411882 0.325246 0.089443
H124  H     H_    0.225844 0.912550 0.666353 0.090476
H125  H     H_    0.226085 0.088298 0.668155 0.084607
H126  H     H_    0.725853 0.412552 0.666344 0.090496
H127  H     H_    0.726106 0.588300 0.668152 0.084582
H128  H     H_    0.528816 0.087768 0.739283 0.088619
H129  H     H_    0.529508 0.910781 0.744057 0.091185
H130  H     H_    0.028848 0.587765 0.739312 0.088629
H131  H     H_    0.029524 0.410778 0.744082 0.091212
H132  H     H_    0.792309 0.911164 0.264281 0.092216
N1    N     N_R   0.392450 0.103580 0.942190 -0.035550
N2    N     N_R   0.525490 0.971610 0.207550 -0.036530
N3    N     N_R   0.025490 0.528390 0.207550 -0.033969
N4    N     N_R   0.025490 0.471610 0.207550 -0.036493
N5    N     N_R   0.317450 0.971190 0.792000 -0.033767
N6    N     N_R   0.317450 0.028810 0.792000 -0.034466
N7    N     N_R   0.817450 0.471190 0.792000 -0.033767
N8    N     N_R   0.817450 0.528810 0.792000 -0.034469
N9    N     N_R   0.473900 0.028390 0.792280 -0.037293
N10   N     N_R   0.473900 0.971610 0.792280 -0.037706
N11   N     N_R   0.973900 0.528390 0.792280 -0.037295
N12   N     N_R   0.392450 0.896420 0.942190 -0.035046
N13   N     N_R   0.973900 0.471610 0.792280 -0.037707
N14   N     N_R   0.682310 0.971180 0.208170 -0.039599
N15   N     N_R   0.682310 0.028820 0.208170 -0.038976
N16   N     N_R   0.182310 0.471180 0.208170 -0.039591
N17   N     N_R   0.182310 0.528820 0.208170 -0.038989
N18   N     N_R   0.606470 0.103570 0.057210 -0.030956
N19   N     N_R   0.606470 0.896430 0.057210 -0.031454
N20   N     N_R   0.106470 0.603570 0.057210 -0.030957
N21   N     N_R   0.106470 0.396430 0.057210 -0.031453
N22   N     N_R   0.549740 0.896000 0.943240 -0.031352
N23   N     N_R   0.892450 0.603580 0.942190 -0.035555
N24   N     N_R   0.549740 0.104000 0.943240 -0.031054
N25   N     N_R   0.049740 0.396000 0.943240 -0.031352
N26   N     N_R   0.049740 0.604000 0.943240 -0.031055
N27   N     N_R   0.892450 0.396420 0.942190 -0.035036
N28   N     N_R   0.450490 0.896000 0.057360 -0.035656
N29   N     N_R   0.450490 0.104000 0.057360 -0.034133
N30   N     N_R   0.950490 0.396000 0.057360 -0.035637
N31   N     N_R   0.950490 0.604000 0.057360 -0.034148
N32   N     N_R   0.525490 0.028390 0.207550 -0.034006
Ni1   Ni    Ni4+2 0.433780 0.065390 0.868430 0.206594
Ni2   Ni    Ni4+2 0.433780 0.934610 0.868430 0.205038
Ni3   Ni    Ni4+2 0.933780 0.565390 0.868430 0.206591
Ni4   Ni    Ni4+2 0.933780 0.434610 0.868430 0.205036
Ni5   Ni    Ni4+2 0.565800 0.934190 0.131570 0.204390
Ni6   Ni    Ni4+2 0.565800 0.065810 0.131570 0.204473
Ni7   Ni    Ni4+2 0.065800 0.434190 0.131570 0.204403
Ni8   Ni    Ni4+2 0.065800 0.565810 0.131570 0.204480

loop_
_geom_bond_atom_site_label_1
_geom_bond_atom_site_label_2
_ccdc_geom_bond_type
C22   H30   S    
C55   N27   A    
C29   C42   S    
C8    C26   A    
C19   C20   S    
N23   Ni3   S    
C79   C87   S    
C16   N17   A    
C39   C41   S    
C65   H88   S    
C32   C81   S    
C96   N32   A    
C85   H95   S    
C65   H58   S    
C23   H38   S    
C51   C118  A    
C60   C62   S    
C21   H32   S    
N13   Ni4   S    
C4    C96   A    
C37   C56   S    
C89   H85   S    
C70   H75   S    
C70   C74   S    
N32   Ni6   S    
C21   C22   S    
C102  H112  S    
C53   H74   S    
C41   C43   S    
C6    C54   S    
N1    N29   A    
C9    C26   A    
C31   C77   A    
N9    Ni1   S    
N24   Ni1   S    
N25   Ni4   S    
N11   Ni3   S    
N26   Ni3   S    
C99   H9    S    
N17   Ni8   S    
C15   N16   A    
C82   C91   S    
C18   H17   S    
C78   C120  S    
C24   C32   A    
C66   N18   A    
N18   N24   A    
C23   C113  S    
C5    C100  A    
C11   C27   A    
C2    H11   S    
C111  C113  S    
C50   H71   S    
C81   C90   S    
C48   H35   S    
C22   H28   S    
C85   H64   S    
C96   H119  S    
C87   H84   S    
C59   H47   S    
C24   H14   S    
N11   N13   A    
N20   N26   A    
C25   H34   S    
C3    C52   A    
C38   H111  S    
N31   Ni8   S    
N28   Ni5   S    
N12   Ni2   S    
C59   H42   S    
C64   H57   S    
C104  H109  S    
C27   C108  S    
C94   H99   S    
C31   C110  A    
C92   H97   S    
C86   H96   S    
C95   C108  S    
N5    Ni2   S    
C86   H65   S    
C41   C45   S    
C102  C109  S    
N21   Ni7   S    
C37   H100  S    
C100  N4    A    
N19   Ni5   S    
C69   H61   S    
N2    N32   A    
C10   C27   A    
C114  H124  S    
C4    C109  S    
C7    C117  A    
C60   H43   S    
C105  C107  S    
C33   N12   A    
C60   C78   S    
C62   C80   S    
C37   C40   S    
N9    N10   A    
C68   C74   S    
C32   C88   A    
C50   N28   A    
N5    N6    A    
C6    C114  A    
C72   H77   S    
C3    C55   A    
C13   H12   S    
C106  H117  S    
C110  H10   S    
C101  H110  S    
C61   H51   S    
C35   C43   S    
C16   H5    S    
C87   H82   S    
C73   H70   S    
C77   H7    S    
C104  H114  S    
C110  N22   A    
C4    C97   A    
C25   H36   S    
C94   H104  S    
C68   C85   S    
N7    Ni4   S    
C98   N3    A    
C57   C63   S    
C12   N14   A    
C43   H122  S    
C58   C64   S    
C59   C61   S    
C19   H26   S    
C15   H4    S    
C106  C113  S    
C21   C113  S    
C66   H6    S    
C10   H130  S    
C7    C116  A    
C95   H105  S    
C9    N10   A    
C17   C18   S    
C30   C66   A    
C116  N7    A    
C30   C79   S    
N10   Ni2   S    
C116  H126  S    
C72   C87   S    
C14   N15   A    
N15   Ni6   S    
C33   H45   S    
C52   H73   S    
C44   H56   S    
C91   H87   S    
C36   H89   S    
C2    C30   A    
C106  C108  S    
C61   C79   S    
C23   H37   S    
C21   H31   S    
C64   H50   S    
C58   H46   S    
C114  N5    A    
C1    H1    S    
C36   C54   S    
C70   H66   S    
C38   C56   S    
C49   H39   S    
C34   C82   S    
C8    N9    A    
C59   C76   S    
N4    Ni7   S    
C81   C85   S    
N7    N8    A    
N19   N22   A    
C105  H115  S    
C80   C84   S    
C53   C120  A    
C31   C80   S    
C39   H15   S    
C40   H16   S    
C46   C49   S    
C95   H101  S    
C65   C76   S    
C12   C28   A    
N6    Ni1   S    
C44   C120  A    
C101  C109  S    
C28   C41   S    
C10   N11   A    
C103  C111  S    
C42   C46   S    
C80   C89   S    
C18   H18   S    
C90   H86   S    
C77   N19   A    
C53   N31   A    
N29   Ni6   S    
C22   H29   S    
C103  H113  S    
C35   C54   S    
C20   H23   S    
C75   C118  S    
C7    C56   S    
C1    N1    A    
C15   C29   A    
C36   C39   S    
C25   H33   S    
C117  N8    A    
C103  H108  S    
C82   C86   S    
C47   H24   S    
N21   N25   A    
C101  H106  S    
C35   C39   S    
C69   H92   S    
N16   Ni7   S    
C92   C101  S    
C57   H40   S    
C94   C103  S    
C105  H116  S    
C45   C48   S    
C93   C102  S    
N18   Ni6   S    
C45   H2    S    
C12   H132  S    
C73   C89   S    
C13   C34   A    
C67   H59   S    
C46   H13   S    
C38   C40   S    
C69   C75   S    
C19   H27   S    
C6    C115  A    
C63   H49   S    
N30   Ni7   S    
C44   N23   A    
C71   C91   S    
N16   N17   A    
C8    H128  S    
C106  H118  S    
C20   H25   S    
C37   C46   S    
C58   H41   S    
C93   C107  S    
C115  H125  S    
C71   H68   S    
C72   C76   S    
C99   N21   A    
C13   N25   A    
C47   C49   S    
C19   C112  S    
C48   C54   S    
C74   C119  S    
C94   C108  S    
C60   H48   S    
C63   C81   S    
N1    Ni1   S    
C65   C83   S    
C90   H80   S    
C62   H54   S    
C67   H90   S    
N27   N30   A    
C98   H121  S    
C88   N20   A    
C79   C83   S    
C73   C78   S    
C55   H67   S    
N14   Ni5   S    
N2    Ni5   S    
C43   C48   S    
C1    C118  A    
C67   C84   S    
C70   C90   S    
C67   C78   S    
C83   H93   S    
C84   H94   S    
C58   C75   S    
C34   C99   A    
C117  H127  S    
C50   C119  A    
C20   H22   S    
C61   H53   S    
C93   H103  S    
C109  C112  S    
C5    C111  S    
C16   C29   A    
C2    N24   A    
C68   H60   S    
C11   H131  S    
C83   H62   S    
C93   H98   S    
C57   C74   S    
C9    H129  S    
N3    Ni8   S    
C92   C107  S    
C11   N13   A    
C36   C45   S    
C3    C76   S    
C64   C82   S    
C38   C47   S    
C91   H81   S    
C100  H123  S    
N22   Ni2   S    
C89   H83   S    
C33   C119  A    
N3    N4    A    
C17   C112  S    
C72   H69   S    
N23   N31   A    
C95   C104  S    
C97   H120  S    
C14   H3    S    
C105  C112  S    
C84   H63   S    
C115  N6    A    
C26   C107  S    
C104  C111  S    
C63   H55   S    
C49   C56   S    
C62   H52   S    
N27   Ni4   S    
C92   H102  S    
C88   H8    S    
N20   Ni8   S    
C71   C75   S    
C71   H76   S    
C57   H44   S    
C24   N26   A    
C73   H79   S    
C40   C42   S    
C102  H107  S    
N12   N28   A    
C17   H20   S    
C42   C47   S    
C23   C25   S    
C18   H19   S    
C17   H21   S    
N8    Ni3   S    
N14   N15   A    
C69   C86   S    
C52   N30   A    
C5    C98   A    
C51   N29   A    
C14   C28   A    
C68   H91   S    
C51   H72   S    
C35   H78   S    
C97   N2    A    
