data_mof_unit_40685.cif
_audit_creation_date              2012-12-11T16:44:12-0500
_audit_creation_method            fapswitch 2.2
_symmetry_space_group_name_H-M    P1
_symmetry_Int_Tables_number       1
_space_group_crystal_system       triclinic
_cell_length_a                    27.485404
_cell_length_b                    7.254074
_cell_length_c                    22.485393
_cell_angle_alpha                 90.954241
_cell_angle_beta                  101.719737
_cell_angle_gamma                 90.07891
_cell_volume                      4389.04197731

loop_
_atom_site_label
_atom_site_type_symbol
_atom_type_description
_atom_site_fract_x
_atom_site_fract_y
_atom_site_fract_z
_atom_type_partial_charge
O1    O     O_R   0.707300 0.594030 0.176840 -0.545906
O2    O     O_R   0.292700 0.405970 0.823160 -0.524816
O3    O     O_R   0.792700 0.094030 0.323160 -0.544109
O4    O     O_R   0.207300 0.905970 0.676840 -0.544585
O5    O     O_R   0.697330 0.262360 0.295660 -0.507981
O6    O     O_R   0.302670 0.737640 0.704340 -0.511479
O7    O     O_R   0.802670 0.762360 0.204340 -0.513177
O8    O     O_R   0.197330 0.237640 0.795660 -0.511997
C1    C     C_R   0.684084 0.433610 0.311022 0.803661
C2    C     C_R   0.316073 0.566307 0.689269 0.796798
C3    C     C_R   0.815686 0.932525 0.188638 0.797884
C4    C     C_R   0.184323 0.067438 0.811374 0.795768
O9    O     O_R   0.701410 0.264250 0.175600 -0.524824
O10   O     O_R   0.298590 0.735750 0.824400 -0.538696
O11   O     O_R   0.798590 0.764250 0.324400 -0.520908
O12   O     O_R   0.201410 0.235750 0.675600 -0.522810
O13   O     O_R   0.796800 0.094950 0.202240 -0.507085
O14   O     O_R   0.203200 0.905050 0.797760 -0.509739
O15   O     O_R   0.703200 0.594950 0.297760 -0.509353
O16   O     O_R   0.296800 0.405050 0.702240 -0.504230
C5    C     C_R   0.688931 0.432058 0.153452 0.763882
C6    C     C_R   0.310999 0.568670 0.846666 0.760957
C7    C     C_R   0.809929 0.934990 0.347110 0.781176
C8    C     C_R   0.190093 0.065028 0.652882 0.776956
O17   O     O_3   0.781290 0.427390 0.258880 -0.357947
O18   O     O_3   0.218710 0.572610 0.741120 -0.360122
O19   O     O_3   0.718710 0.927390 0.241120 -0.360956
O20   O     O_3   0.281290 0.072610 0.758880 -0.352217
V1    V     V_3+5 0.744190 0.152150 0.248350 1.660215
V2    V     V_3+5 0.255810 0.847850 0.751650 1.657578
V3    V     V_3+5 0.755810 0.652150 0.251650 1.660622
V4    V     V_3+5 0.244190 0.347850 0.748350 1.689231
C9    C     C_R   0.154275 0.042616 0.593818 -0.202662
C10   C     C_R   0.845836 0.957514 0.406119 -0.203227
C11   C     C_R   0.346684 0.570470 0.906780 -0.192382
C12   C     C_R   0.654130 0.442105 0.092947 -0.196310
C13   C     C_R   0.138256 0.889395 0.494079 0.283033
C14   C     C_R   0.862003 0.111296 0.505775 0.283078
C15   C     C_R   0.364276 0.662917 0.013995 0.269952
C16   C     C_R   0.642591 0.475944 0.983064 0.267748
C17   C     C_R   0.171495 0.971946 0.543022 0.040149
C18   C     C_R   0.828712 0.028430 0.456956 0.040106
C19   C     C_R   0.330680 0.639608 0.958255 0.044686
C20   C     C_R   0.673847 0.451926 0.040212 0.033596
C21   C     C_R   0.102471 0.054130 0.590526 0.380759
C22   C     C_R   0.897634 0.946183 0.409276 0.381028
C23   C     C_R   0.396993 0.518039 0.912718 0.384784
C24   C     C_R   0.602066 0.452708 0.087465 0.380498
C25   C     C_R   0.068608 0.003889 0.535491 -0.042676
C26   C     C_R   0.931574 0.996710 0.464226 -0.042470
C27   C     C_R   0.433360 0.570625 0.965926 -0.043414
C28   C     C_R   0.570539 0.507919 0.031509 -0.051245
C29   C     C_R   0.086695 0.889315 0.493262 -0.088140
C30   C     C_R   0.913536 0.111454 0.506458 -0.088148
C31   C     C_R   0.416287 0.639610 0.017823 -0.096426
C32   C     C_R   0.590939 0.512688 0.978083 -0.099574
C33   C     C_R   0.017021 0.051499 0.522536 0.013388
C34   C     C_R   0.983179 0.949224 0.477108 0.013428
C35   C     C_R   0.486202 0.557586 0.969325 0.000554
C36   C     C_R   0.519315 0.558983 0.026991 0.001895
C37   C     C_R   0.001371 0.792699 0.450287 0.179075
C38   C     C_R   0.998861 0.208158 0.549311 0.179229
C39   C     C_R   0.502758 0.649303 0.075423 0.169884
C40   C     C_R   0.507684 0.583209 0.917940 0.166691
C41   C     C_R   0.052817 0.771390 0.454333 0.387921
C42   C     C_R   0.947429 0.229585 0.545276 0.388159
C43   C     C_R   0.451973 0.689930 0.071000 0.393529
C44   C     C_R   0.559331 0.561375 0.922063 0.384111
C45   C     C_R   0.871973 0.114838 0.132253 0.338639
C46   C     C_R   0.128110 0.884835 0.867807 0.339657
C47   C     C_R   0.641094 0.603285 0.386687 0.312515
C48   C     C_R   0.359831 0.397181 0.614284 0.318917
C49   C     C_R   0.915231 0.120983 0.108041 0.348326
C50   C     C_R   0.084840 0.878569 0.891996 0.347823
C51   C     C_R   0.606243 0.609269 0.424574 0.364827
C52   C     C_R   0.395231 0.391577 0.577132 0.362223
C53   C     C_R   0.930273 0.963515 0.080501 -0.049617
C54   C     C_R   0.069749 0.035980 0.919517 -0.049215
C55   C     C_R   0.571386 0.467109 0.422256 -0.053163
C56   C     C_R   0.430193 0.533792 0.580214 -0.051689
C57   C     C_R   0.909038 0.794654 0.090980 0.172489
C58   C     C_R   0.090934 0.204919 0.909023 0.172100
C59   C     C_R   0.571331 0.317193 0.381938 0.126064
C60   C     C_R   0.430083 0.682520 0.620968 0.132078
C61   C     C_R   0.881136 0.785618 0.137363 0.373511
C62   C     C_R   0.118842 0.214052 0.862650 0.374294
C63   C     C_R   0.607244 0.306391 0.344885 0.357886
C64   C     C_R   0.393842 0.692230 0.657580 0.332517
C65   C     C_R   0.855871 0.944212 0.151778 -0.305703
C66   C     C_R   0.144158 0.055562 0.848256 -0.304535
C67   C     C_R   0.643873 0.447386 0.347898 -0.292988
C68   C     C_R   0.356797 0.552361 0.653246 -0.283666
C69   C     C_R   0.014431 0.904022 0.054540 0.432513
C70   C     C_R   0.985571 0.095313 0.945449 0.432537
C71   C     C_R   0.491657 0.591644 0.445570 0.445197
C72   C     C_R   0.510179 0.410627 0.557229 0.447118
C73   C     C_R   0.047558 0.924513 0.015169 -0.198822
C74   C     C_R   0.952445 0.074833 0.984822 -0.198594
C75   C     C_R   0.458953 0.612580 0.485515 -0.153362
C76   C     C_R   0.542887 0.389687 0.517282 -0.152242
H1    H     H_    0.084464 0.866313 0.027307 0.183839
H2    H     H_    0.915540 0.133037 0.972685 0.183861
H3    H     H_    0.426143 0.697102 0.472674 0.204143
H4    H     H_    0.575662 0.304965 0.530085 0.204111
C77   C     C_R   0.033742 0.020781 0.960656 0.017773
C78   C     C_R   0.966265 0.978596 0.039341 0.017658
C79   C     C_R   0.467833 0.522671 0.541392 0.037888
C80   C     C_R   0.533976 0.479449 0.461376 0.038834
Cl1   Cl    Cl    0.073281 0.575257 0.418316 -0.530032
Cl2   Cl    Cl    0.926992 0.426008 0.581176 -0.529796
Cl3   Cl    Cl    0.436364 0.821691 0.131718 -0.500321
Cl4   Cl    Cl    0.582486 0.613566 0.856012 -0.513341
Cl5   Cl    Cl    0.035087 0.790199 0.123583 -0.443441
Cl6   Cl    Cl    0.964905 0.209068 0.876395 -0.442793
Cl7   Cl    Cl    0.478638 0.707190 0.375936 -0.503295
Cl8   Cl    Cl    0.523115 0.294730 0.626798 -0.502586
Cl9   Cl    Cl    0.918713 0.924188 0.340029 -0.545710
Cl10  Cl    Cl    0.081255 0.076209 0.659682 -0.546064
Cl11  Cl    Cl    0.577038 0.359817 0.147187 -0.574400
Cl12  Cl    Cl    0.410896 0.356922 0.858576 -0.578394
N1    N     N_3   0.777141 0.022740 0.459431 -0.618047
H5    H     H_    0.756466 0.090092 0.421966 0.265547
H6    H     H_    0.766849 0.884057 0.458164 0.296271
N2    N     N_3   0.223110 0.977556 0.540733 -0.618461
H7    H     H_    0.243679 0.909674 0.578152 0.265245
H8    H     H_    0.233483 0.116196 0.542287 0.295250
N3    N     N_3   0.726089 0.429134 0.043226 -0.635031
H9    H     H_    0.745241 0.532003 0.071825 0.262137
H10   H     H_    0.736259 0.300242 0.061735 0.269851
N4    N     N_3   0.279207 0.678938 0.955862 -0.639139
H11   H     H_    0.258525 0.560125 0.940656 0.269444
H12   H     H_    0.268357 0.784795 0.925109 0.264742
N5    N     N_3   0.156978 0.814806 0.443689 -0.516145
H13   H     H_    0.175003 0.920207 0.425315 0.282172
H14   H     H_    0.183066 0.713155 0.459790 0.276308
N6    N     N_3   0.843368 0.186081 0.556203 -0.515650
H15   H     H_    0.825415 0.080732 0.574701 0.282621
H16   H     H_    0.817234 0.287597 0.540114 0.276570
N7    N     N_3   0.344577 0.706845 0.066867 -0.522302
H17   H     H_    0.325194 0.831154 0.059795 0.279250
H18   H     H_    0.319671 0.602817 0.072708 0.270449
N8    N     N_3   0.664068 0.458960 0.930207 -0.519035
H19   H     H_    0.679870 0.328070 0.929530 0.270105
H20   H     H_    0.692200 0.557943 0.933158 0.280680
N9    N     N_3   0.967872 0.646696 0.424324 -0.583174
H21   H     H_    0.976796 0.528699 0.450226 0.245280
H22   H     H_    0.972895 0.616340 0.380370 0.336587
N10   N     N_3   0.032392 0.354117 0.575238 -0.583707
H23   H     H_    0.027376 0.384621 0.619186 0.336429
H24   H     H_    0.023493 0.472068 0.549305 0.245255
N11   N     N_3   0.538801 0.730961 0.124190 -0.583216
H25   H     H_    0.530780 0.692172 0.165748 0.328556
H26   H     H_    0.536218 0.874451 0.121195 0.290577
N12   N     N_3   0.478529 0.666413 0.864815 -0.569864
H27   H     H_    0.481763 0.588322 0.826315 0.323732
H28   H     H_    0.492525 0.798633 0.860637 0.286988
Cl13  Cl    Cl    0.835320 0.313910 0.126503 -0.619470
Cl14  Cl    Cl    0.164790 0.685718 0.873561 -0.619760
Cl15  Cl    Cl    0.679349 0.799542 0.388786 -0.576610
Cl16  Cl    Cl    0.321319 0.201210 0.611251 -0.571999
Cl17  Cl    Cl    0.956164 0.309120 0.123240 -0.473978
Cl18  Cl    Cl    0.043887 0.690525 0.876669 -0.473866
Cl19  Cl    Cl    0.606476 0.796636 0.476358 -0.520510
Cl20  Cl    Cl    0.395621 0.204465 0.525411 -0.520133
N13   N     N_3   0.910395 0.643481 0.049555 -0.599069
H29   H     H_    0.888280 0.534885 0.058725 0.308833
H30   H     H_    0.947050 0.600086 0.053557 0.311090
N14   N     N_3   0.089500 0.356128 0.950411 -0.599847
H31   H     H_    0.052835 0.399480 0.946324 0.311344
H32   H     H_    0.111632 0.464730 0.941282 0.307946
N15   N     N_3   0.533835 0.177356 0.378326 -0.540902
H33   H     H_    0.551324 0.050224 0.387433 0.324823
H34   H     H_    0.512744 0.172765 0.334050 0.313498
N16   N     N_3   0.467716 0.822196 0.625474 -0.540368
H35   H     H_    0.488560 0.825181 0.669886 0.308713
H36   H     H_    0.450336 0.949691 0.616708 0.325615
Cl21  Cl    Cl    0.899862 0.624344 0.194934 -0.377098
Cl22  Cl    Cl    0.100139 0.375435 0.805106 -0.377918
Cl23  Cl    Cl    0.602367 0.120567 0.291879 -0.488001
Cl24  Cl    Cl    0.398926 0.874082 0.712082 -0.516576

loop_
_geom_bond_atom_site_label_1
_geom_bond_atom_site_label_2
_ccdc_geom_bond_type
C21   Cl10  S    
O17   V3    S    
C59   C63   A    
N15   H33   S    
C25   C29   A    
C70   C77   A    
O1    C5    A    
N13   H29   S    
C16   N8    S    
O19   V1    S    
C9    C21   A    
O3    C7    A    
C10   C18   A    
C62   Cl22  S    
C56   C60   A    
C11   C23   A    
C1    C67   S    
N9    H21   S    
C70   Cl6   S    
C25   C33   A    
C33   C38   A    
C20   N3    S    
C5    C12   S    
C58   N14   S    
O7    C3    A    
C6    C11   S    
N15   H34   S    
C56   C79   S    
C35   C40   A    
C26   C30   A    
C54   C77   S    
C40   C44   A    
C17   N2    S    
C4    C66   S    
C53   C78   S    
N10   H24   S    
C14   C18   A    
C63   C67   A    
C48   C68   A    
C71   C75   A    
C70   C74   A    
C40   N12   S    
O1    V3    S    
O13   V1    S    
C51   Cl19  S    
C44   Cl4   S    
O3    V1    S    
C37   N9    S    
N16   H35   S    
C49   Cl17  S    
C28   C36   A    
C1    O15   A    
C76   H4    S    
C15   C31   A    
C48   Cl16  S    
C64   C68   A    
C71   Cl7   S    
C16   C32   A    
C59   N15   S    
C46   C50   A    
C45   Cl13  S    
N11   H25   S    
C45   C49   A    
C10   C22   A    
C14   N6    S    
C11   C19   A    
C16   C20   A    
N12   H28   S    
C48   C52   A    
C13   C29   A    
C34   C37   A    
O11   C7    A    
O15   V3    S    
C35   C36   A    
O12   C8    A    
C38   N10   S    
N13   H30   S    
C46   C66   A    
O10   V2    S    
C60   N16   S    
N9    H22   S    
C57   C61   A    
C64   Cl24  S    
C24   Cl11  S    
O5    V1    S    
C39   C43   A    
C76   C80   A    
O7    V3    S    
C38   C42   A    
C26   C34   A    
C52   C56   A    
N10   H23   S    
N6    H16   S    
C75   H3    S    
C62   C66   A    
C2    O16   A    
C50   Cl18  S    
C61   C65   A    
O18   V4    S    
C15   C19   A    
C27   C31   A    
C32   C44   A    
C63   Cl23  S    
C22   Cl9   S    
C46   Cl14  S    
O8    V4    S    
N4    H12   S    
N3    H10   S    
O5    C1    A    
C74   H2    S    
C69   C78   A    
C54   C58   A    
C73   H1    S    
C31   C43   A    
C14   C30   A    
C53   C57   A    
O8    C4    A    
C7    C10   S    
C41   Cl1   S    
C3    C65   S    
C21   C25   A    
N12   H27   S    
O9    C5    A    
C69   Cl5   S    
C42   Cl2   S    
O2    V4    S    
C39   N11   S    
N1    H5    S    
O14   V2    S    
C43   Cl3   S    
N14   H31   S    
O6    V2    S    
C72   C79   A    
C36   C39   A    
N5    H13   S    
C13   N5    S    
C12   C20   A    
C27   C35   A    
N3    H9    S    
C69   C73   A    
C47   Cl15  S    
N2    H8    S    
O16   V4    S    
O9    V1    S    
C23   Cl12  S    
C57   N13   S    
C19   N4    S    
C60   C64   A    
N6    H15   S    
C3    O13   A    
O6    C2    A    
C23   C27   A    
N7    H17   S    
O11   V3    S    
C30   C42   A    
O12   V4    S    
C75   C79   A    
C22   C26   A    
C45   C65   A    
C8    C9    S    
C74   C78   A    
C9    C17   A    
O10   C6    A    
O20   V2    S    
N4    H11   S    
C73   C77   A    
C58   C62   A    
O2    C6    A    
C47   C51   A    
N7    H18   S    
C33   C34   A    
C29   C41   A    
O4    C8    A    
C72   C76   A    
N14   H32   S    
C55   C80   S    
C12   C24   A    
N8    H20   S    
N11   H26   S    
C13   C17   A    
N16   H36   S    
N1    H6    S    
C52   Cl20  S    
C71   C80   A    
C2    C68   S    
C55   C59   A    
C37   C41   A    
C24   C28   A    
C47   C67   A    
C61   Cl21  S    
C50   C54   A    
C4    O14   A    
N5    H14   S    
C49   C53   A    
N8    H19   S    
C72   Cl8   S    
C51   C55   A    
C15   N7    S    
O4    V2    S    
C28   C32   A    
C18   N1    S    
N2    H7    S    
