data_mof_unit_57363.cif
_audit_creation_date              2012-12-10T17:35:45-0500
_audit_creation_method            fapswitch 2.2
_symmetry_space_group_name_H-M    P1
_symmetry_Int_Tables_number       1
_space_group_crystal_system       triclinic
_cell_length_a                    10.486024
_cell_length_b                    12.079406
_cell_length_c                    12.857821
_cell_angle_alpha                 93.881479
_cell_angle_beta                  90.918557
_cell_angle_gamma                 87.407763
_cell_volume                      1623.09921279

loop_
_atom_site_label
_atom_site_type_symbol
_atom_type_description
_atom_site_fract_x
_atom_site_fract_y
_atom_site_fract_z
_atom_type_partial_charge
C1    C     C_R   0.499815 0.522292 0.700282 0.908767
C2    C     C_R   0.500421 0.477720 0.299698 0.911955
C3    C     C_R   0.533077 0.443142 0.867450 -0.215730
C4    C     C_R   0.467848 0.556916 0.132473 -0.215763
C5    C     C_R   0.521943 0.449399 0.974029 0.171698
C6    C     C_R   0.479275 0.550725 0.025917 0.171801
C7    C     C_R   0.361871 0.949015 0.414373 0.091135
C8    C     C_R   0.602987 0.054515 0.614091 0.093495
C9    C     C_R   0.383383 0.834123 0.419652 -0.112948
C10   C     C_R   0.596735 0.167890 0.596356 -0.106759
C11   C     C_R   0.550518 0.859576 0.543920 0.461071
C12   C     C_R   0.447666 0.140525 0.457680 0.458765
C13   C     C_R   0.535450 0.978293 0.544088 -0.097141
C14   C     C_R   0.446847 0.023428 0.470374 -0.095558
C15   C     C_R   0.742227 0.501080 0.499793 0.957420
C16   C     C_R   0.257783 0.498906 0.500102 0.955176
C17   C     C_3   0.961200 0.463218 0.588546 0.448739
C18   C     C_3   0.038844 0.536798 0.411259 0.442254
C19   C     C_3   0.041463 0.565796 0.581348 -0.257750
C20   C     C_3   0.958573 0.434215 0.418451 -0.258072
C21   C     C_3   0.122952 0.497364 0.500302 -0.131922
C22   C     C_3   0.877074 0.502645 0.499506 -0.130079
C23   C     C_3   0.044839 0.394260 0.508647 -0.209702
C24   C     C_3   0.955201 0.605760 0.491153 -0.200616
C25   C     C_R   0.501395 0.464261 0.188025 -0.040247
C26   C     C_R   0.499406 0.535801 0.811927 -0.036152
C27   C     C_R   0.449655 0.644554 0.970667 -0.189948
C28   C     C_R   0.551724 0.355617 0.029298 -0.194351
C29   C     C_R   0.459810 0.637117 0.863215 -0.172660
C30   C     C_R   0.541473 0.363061 0.136759 -0.158907
H1    H     H_    0.079566 0.618074 0.648069 0.182956
H2    H     H_    0.920504 0.381908 0.351735 0.182180
H3    H     H_    0.084858 0.308595 0.516725 0.189892
H4    H     H_    0.915336 0.691517 0.483073 0.209114
H5    H     H_    0.434698 0.634845 0.172115 0.169951
H6    H     H_    0.565987 0.365152 0.827772 0.165007
H7    H     H_    0.567497 0.291053 0.179628 0.185065
H8    H     H_    0.433960 0.709193 0.820372 0.169250
H9    H     H_    0.417577 0.722696 0.010274 0.148265
H10   H     H_    0.583929 0.277501 0.989686 0.147795
H11   H     H_    0.647727 0.226883 0.646593 0.176733
H12   H     H_    0.322489 0.776146 0.377323 0.182760
N1    N     N_R   0.523490 0.207800 0.519350 -0.137535
N2    N     N_R   0.476510 0.792200 0.480650 -0.137285
O1    O     O_R   0.506270 0.421700 0.658830 -0.636449
O2    O     O_R   0.493730 0.578300 0.341170 -0.631782
O3    O     O_R   0.491200 0.609310 0.646410 -0.587365
O4    O     O_R   0.508800 0.390690 0.353590 -0.572699
O5    O     O_R   0.693580 0.406210 0.506230 -0.616132
O6    O     O_R   0.306420 0.593790 0.493770 -0.621069
O7    O     O_R   0.678510 0.593830 0.493810 -0.566172
O8    O     O_R   0.321490 0.406170 0.506190 -0.581781
Zn1   Zn    Zn3+2 0.510060 0.374730 0.508290 1.012024
Zn2   Zn    Zn3+2 0.489940 0.625270 0.491710 1.011684
Cl1   Cl    Cl    0.904293 0.415042 0.706528 -0.621178
Cl2   Cl    Cl    0.095771 0.585047 0.293317 -0.623055
Cl3   Cl    Cl    0.361262 0.204898 0.358537 -0.630597
Cl4   Cl    Cl    0.669056 0.791793 0.617446 -0.633855
C31   C     C_3   0.239239 0.983222 0.357590 -0.338352
C32   C     C_3   0.141296 0.040552 0.432591 -0.762540
H13   H     H_    0.110850 0.980960 0.488464 0.246636
H14   H     H_    0.180803 0.112900 0.477664 0.270773
H15   H     H_    0.056120 0.069581 0.387932 0.250802
H16   H     H_    0.257292 0.032141 0.290303 0.254117
H17   H     H_    0.192484 0.909423 0.320430 0.197438
C33   C     C_3   0.671422 0.025893 0.714811 -0.333395
C34   C     C_3   0.578508 0.988413 0.794604 -0.782973
H18   H     H_    0.509831 0.058032 0.818040 0.239648
H19   H     H_    0.523666 0.917084 0.762953 0.276584
H20   H     H_    0.632360 0.963587 0.864986 0.253730
H21   H     H_    0.753633 0.966705 0.700900 0.256009
H22   H     H_    0.717168 0.099797 0.752792 0.187830

loop_
_geom_bond_atom_site_label_1
_geom_bond_atom_site_label_2
_ccdc_geom_bond_type
C8    C33   S    
C16   C21   S    
C27   C29   A    
C18   C21   S    
C19   H1    S    
C4    C25   A    
C2    O2    A    
C9    H12   S    
O6    Zn2   S    
C32   H15   S    
C18   C24   S    
C19   C21   S    
C16   O6    A    
C12   N1    A    
C5    C6    A    
C28   H10   S    
C32   H14   S    
N1    Zn1   S    
C15   C22   S    
C33   H22   S    
C33   H21   S    
C27   H9    S    
C23   H3    S    
C29   H8    S    
C15   O7    A    
C11   Cl4   S    
C17   Cl1   S    
C18   Cl2   S    
C33   C34   S    
C4    H5    S    
O1    Zn1   S    
C31   C32   S    
C13   C14   A    
C10   H11   S    
C7    C31   S    
C7    C14   A    
O4    Zn1   S    
C34   H18   S    
C4    C6    A    
C1    O3    A    
C2    O4    A    
C24   H4    S    
C30   H7    S    
C32   H13   S    
C34   H19   S    
C5    C28   A    
C6    C27   A    
C20   C23   S    
O2    Zn2   S    
C31   H16   S    
C11   N2    A    
C17   C23   S    
O3    Zn2   S    
C12   Cl3   S    
C20   C22   S    
C21   C23   S    
C1    C26   S    
C22   C24   S    
O8    Zn1   S    
C20   H2    S    
C25   C30   A    
C7    C9    A    
C9    N2    A    
C10   N1    A    
C3    C26   A    
C16   O8    A    
C12   C14   A    
C3    C5    A    
C17   C22   S    
O7    Zn2   S    
C34   H20   S    
C28   C30   A    
C19   C24   S    
C31   H17   S    
C11   C13   A    
C1    O1    A    
C3    H6    S    
O5    Zn1   S    
C17   C19   S    
C2    C25   S    
C18   C20   S    
C15   O5    A    
C8    C13   A    
N2    Zn2   S    
C26   C29   A    
C8    C10   A    
