data_mof_unit_18807.cif
_audit_creation_date              2012-10-26T20:06:11-0400
_audit_creation_method            fapswitch 2.2
_symmetry_space_group_name_H-M    P1
_symmetry_Int_Tables_number       1
_space_group_crystal_system       triclinic
_cell_length_a                    9.50839
_cell_length_b                    10.839428
_cell_length_c                    13.501817
_cell_angle_alpha                 90.248336
_cell_angle_beta                  72.568323
_cell_angle_gamma                 90.326581
_cell_volume                      1327.63690703

loop_
_atom_site_label
_atom_site_type_symbol
_atom_type_description
_atom_site_fract_x
_atom_site_fract_y
_atom_site_fract_z
_atom_type_partial_charge
C1    C     C_R   0.500131 0.737783 0.500595 0.547618
C2    C     C_R   0.373895 0.497500 0.814450 -0.017546
C3    C     C_R   0.632528 0.936922 0.476730 -0.160813
C4    C     C_R   0.421263 0.504173 0.700174 0.547017
C5    C     C_R   0.630917 0.064502 0.477374 -0.189079
C6    C     C_R   0.496476 0.127754 0.502498 0.027177
C7    C     C_R   0.361835 0.061852 0.527130 0.263552
C8    C     C_R   0.365114 0.933509 0.528650 -0.119603
C9    C     C_R   0.499654 0.871280 0.501846 -0.025177
C10   C     C_R   0.899552 0.578629 0.562852 0.017655
C11   C     C_R   0.048099 0.577944 0.563460 0.012046
C12   C     C_R   0.441612 0.481549 0.975847 0.030001
C13   C     C_R   0.101213 0.422872 0.435734 0.026758
C14   C     C_R   0.952128 0.422432 0.436141 0.011780
C15   C     C_R   0.498772 0.261940 0.501247 0.571802
C16   C     C_R   0.578590 0.500879 0.300138 0.542064
C17   C     C_R   0.796707 0.571971 0.024857 -0.136352
C18   C     C_R   0.623265 0.508634 0.186879 -0.016950
C19   C     C_R   0.236972 0.443394 0.863873 -0.187976
C20   C     C_R   0.205178 0.401400 0.964884 -0.114352
C21   C     C_R   0.309687 0.410655 0.018393 0.273738
C22   C     C_3   0.148737 0.102093 0.488193 -0.112243
C23   C     C_R   0.471746 0.526142 0.872620 -0.010478
C24   C     C_3   0.348772 0.228649 0.087481 -0.139659
C25   C     C_R   0.547291 0.506669 0.029597 0.027128
C26   C     C_R   0.686534 0.558713 0.975774 0.044393
C27   C     C_R   0.710250 0.605486 0.876469 -0.138207
C28   C     C_R   0.600057 0.597217 0.829076 -0.116373
C29   C     C_R   0.515817 0.490403 0.136684 -0.119467
C30   C     C_R   0.766078 0.544246 0.129776 -0.137745
Cu1   Cu    Cu3+1 0.359340 0.499980 0.500000 0.963824
Cu2   Cu    Cu3+1 0.640660 0.500020 0.500000 0.936648
H1    H     H_    0.850665 0.558820 0.167431 0.138113
H2    H     H_    0.404824 0.473016 0.184071 0.197138
H3    H     H_    0.158576 0.424068 0.821770 0.149275
H4    H     H_    0.102819 0.352126 0.999255 0.137922
H5    H     H_    0.616703 0.647674 0.757762 0.130622
H6    H     H_    0.737577 0.889818 0.455994 0.137111
H7    H     H_    0.216129 0.124698 0.407434 0.103097
H8    H     H_    0.051236 0.163442 0.508455 0.138273
H9    H     H_    0.106874 0.005758 0.492407 0.100101
H10   H     H_    0.470446 0.237251 0.053285 0.126958
H11   H     H_    0.301283 0.174272 0.034961 0.126262
H12   H     H_    0.735219 0.113577 0.457230 0.128878
H13   H     H_    0.327441 0.176653 0.161151 0.130911
H14   H     H_    0.262168 0.882575 0.552529 0.126705
H15   H     H_    0.823253 0.642660 0.612247 0.097137
H16   H     H_    0.083134 0.640415 0.614264 0.100614
H17   H     H_    0.178900 0.361314 0.384110 0.121321
H18   H     H_    0.917223 0.360235 0.385091 0.110657
H19   H     H_    0.811435 0.654209 0.837356 0.097174
H20   H     H_    0.904603 0.608154 0.983067 0.111610
N1    N     N_R   0.147940 0.499970 0.499970 -0.222465
N2    N     N_R   0.852060 0.500060 0.499990 -0.224818
O1    O     O_R   0.381250 0.680340 0.500010 -0.513273
O2    O     O_3   0.281338 0.345205 0.109847 -0.606199
O3    O     O_R   0.618820 0.680370 0.500010 -0.511695
O4    O     O_R   0.323240 0.499950 0.650980 -0.500995
O5    O     O_R   0.560810 0.499980 0.650980 -0.501652
O6    O     O_R   0.381180 0.319630 0.499990 -0.451498
O7    O     O_R   0.618750 0.319660 0.499990 -0.518293
O8    O     O_R   0.439190 0.500020 0.349020 -0.513805
O9    O     O_R   0.676760 0.500050 0.349020 -0.503503
O10   O     O_3   0.228018 0.122858 0.560014 -0.542867

loop_
_geom_bond_atom_site_label_1
_geom_bond_atom_site_label_2
_ccdc_geom_bond_type
Cu1   O6    S    
C26   C27   A    
C21   O2    S    
C2    C4    S    
C3    H6    S    
C6    C7    A    
C3    C9    A    
C16   O9    A    
C1    O3    A    
C24   O2    S    
C24   H10   S    
C15   O6    A    
C19   C20   A    
C11   N1    A    
C17   H20   S    
C12   C25   A    
C25   C26   A    
C22   H8    S    
C2    C23   A    
C12   C21   A    
C2    C19   A    
C7    C8    A    
C30   H1    S    
C18   C29   A    
C19   H3    S    
C23   C28   A    
Cu1   N1    S    
C25   C29   A    
C17   C30   A    
C12   C23   A    
Cu1   O8    S    
C11   H16   S    
C14   H18   S    
C16   O8    A    
Cu2   O3    S    
C13   H17   S    
C17   C26   A    
C28   H5    S    
Cu1   O4    S    
Cu2   N2    S    
C14   N2    A    
C5    H12   S    
C27   H19   S    
Cu2   O7    S    
C1    O1    A    
C13   N1    A    
C15   O7    A    
C18   C30   A    
C10   N2    A    
C8    H14   S    
C7    O10   S    
C22   H9    S    
C10   C11   A    
C24   H13   S    
C22   O10   S    
C20   H4    S    
C27   C28   A    
C1    C9    S    
C20   C21   A    
C4    O5    A    
C16   C18   S    
C4    O4    A    
C10   H15   S    
C5    C6    A    
C24   H11   S    
Cu2   O5    S    
Cu1   O1    S    
C6    C15   S    
C13   C14   A    
C22   H7    S    
C29   H2    S    
Cu1   Cu2   S    
Cu2   O9    S    
C8    C9    A    
C3    C5    A    
