data_mof_unit_55097.cif
_audit_creation_date              2012-12-10T17:32:20-0500
_audit_creation_method            fapswitch 2.2
_symmetry_space_group_name_H-M    P1
_symmetry_Int_Tables_number       1
_space_group_crystal_system       triclinic
_cell_length_a                    12.314612
_cell_length_b                    13.145435
_cell_length_c                    15.063759
_cell_angle_alpha                 77.392155
_cell_angle_beta                  101.24482
_cell_angle_gamma                 116.549027
_cell_volume                      2115.49465627

loop_
_atom_site_label
_atom_site_type_symbol
_atom_type_description
_atom_site_fract_x
_atom_site_fract_y
_atom_site_fract_z
_atom_type_partial_charge
C1    C     C_R   0.854853 0.285883 0.510135 0.799518
C2    C     C_R   0.901142 0.506887 0.797140 -0.242946
C3    C     C_R   0.997024 0.496924 0.768211 -0.072312
C4    C     C_R   0.999017 0.499076 0.671238 0.809801
C5    C     C_R   0.091026 0.484311 0.832278 -0.249021
C6    C     C_R   0.279816 0.019967 0.370488 -0.192673
C7    C     C_R   0.227856 0.835040 0.466213 -0.049968
C8    C     C_R   0.812371 0.082300 0.579418 0.162739
C9    C     C_R   0.730714 0.967320 0.597198 -0.196698
C10   C     C_R   0.609193 0.930817 0.561234 -0.219104
C11   C     C_R   0.565858 0.008148 0.503022 0.082057
C12   C     C_R   0.090677 0.483084 0.110472 0.121122
C13   C     C_R   0.651545 0.121658 0.474893 0.033149
C14   C     C_R   0.440236 0.975639 0.470622 0.085672
C15   C     C_R   0.403652 0.051867 0.403469 0.164144
C16   C     C_R   0.145004 0.713620 0.486078 0.800178
C17   C     C_R   0.491283 0.157677 0.368354 -0.237524
C18   C     C_R   0.613453 0.191521 0.402533 -0.186049
C19   C     C_R   0.349460 0.869517 0.503587 -0.252319
C20   C     C_R   0.192239 0.911414 0.401139 -0.194987
C21   C     C_R   0.773230 0.161544 0.519075 -0.111025
C22   C     C_R   0.348180 0.330053 0.647800 -0.308512
C23   C     C_R   0.801317 0.515635 0.011123 0.086846
C24   C     C_R   0.758462 0.644253 0.374684 0.071005
C25   C     C_R   0.661077 0.674881 0.346934 -0.262935
C26   C     C_R   0.557975 0.620410 0.393958 -0.194042
C27   C     C_R   0.550938 0.533934 0.469804 -0.005454
C28   C     C_R   0.000092 0.499677 0.328853 0.802401
C29   C     C_R   0.653126 0.505248 0.495578 0.292011
C30   C     C_R   0.446946 0.474967 0.520964 -0.037273
C31   C     C_R   0.447660 0.388975 0.596257 0.178743
C32   C     C_R   0.547649 0.362182 0.619974 -0.289365
C33   C     C_R   0.647850 0.418922 0.570880 -0.191562
C34   C     C_R   0.803748 0.515563 0.918486 -0.252281
C35   C     C_R   0.341511 0.497201 0.501264 0.014965
C36   C     C_R   0.247863 0.356249 0.625020 0.076550
C37   C     C_R   0.091939 0.484588 0.202687 -0.243653
C38   C     C_R   0.998670 0.497641 0.232107 -0.072884
C39   C     C_R   0.902885 0.508325 0.169149 -0.266705
C40   C     C_R   0.898183 0.505795 0.075992 0.076263
C41   C     C_R   0.994083 0.493994 0.046800 0.033344
C42   C     C_3   0.694986 0.527267 0.037539 -0.407726
C43   C     C_3   0.603245 0.411380 0.082153 -0.332195
C44   C     C_3   0.504266 0.425820 0.118309 -0.873117
C45   C     C_R   0.899254 0.505392 0.889663 0.079680
C46   C     C_R   0.994392 0.493871 0.953825 0.058918
C47   C     C_R   0.090510 0.482883 0.924846 0.118112
C48   C     C_R   0.184960 0.471230 0.988673 -0.217639
C49   C     C_R   0.185067 0.471336 0.081024 -0.218369
Cu1   Cu    Cu3+1 0.098270 0.475420 0.521130 0.944135
Cu2   Cu    Cu3+1 0.901730 0.524580 0.478870 0.919995
H1    H     H_    0.166157 0.476452 0.251376 0.152790
H2    H     H_    0.348156 0.264264 0.705486 0.136572
H3    H     H_    0.832130 0.518315 0.193884 0.168509
H4    H     H_    0.333003 0.560993 0.445344 0.122715
H5    H     H_    0.838086 0.687034 0.337784 0.122819
H6    H     H_    0.485401 0.647607 0.369504 0.135610
H7    H     H_    0.665528 0.741109 0.288759 0.144279
H8    H     H_    0.719343 0.391873 0.594842 0.206898
H9    H     H_    0.730520 0.523333 0.868382 0.141887
H10   H     H_    0.827863 0.515811 0.747768 0.158917
H11   H     H_    0.165253 0.476335 0.810231 0.154536
H12   H     H_    0.465356 0.214744 0.314211 0.143902
H13   H     H_    0.258891 0.462482 0.967036 0.138118
H14   H     H_    0.259220 0.462710 0.129412 0.146502
H15   H     H_    0.098107 0.885490 0.371204 0.145935
H16   H     H_    0.974237 0.070757 0.607634 0.218447
H17   H     H_    0.929539 0.098446 0.695537 0.203849
H18   H     H_    0.545380 0.481707 0.172660 0.258592
H19   H     H_    0.455205 0.464660 0.061961 0.251118
H20   H     H_    0.437463 0.340504 0.147874 0.237737
H21   H     H_    0.559602 0.351564 0.030603 0.219125
H22   H     H_    0.649795 0.371579 0.139853 0.219169
H23   H     H_    0.251341 0.077599 0.318919 0.133273
H24   H     H_    0.729220 0.593656 0.083260 0.190844
H25   H     H_    0.645807 0.558906 0.975958 0.190856
H26   H     H_    0.370650 0.810450 0.557840 0.146047
H27   H     H_    0.552318 0.840565 0.578726 0.140914
H28   H     H_    0.761016 0.906159 0.641986 0.142879
H29   H     H_    0.677570 0.271981 0.369489 0.171471
H30   H     H_    0.170937 0.311350 0.664689 0.139947
H31   H     H_    0.548720 0.296448 0.677490 0.153377
N1    N     N_R   0.246280 0.438190 0.553160 -0.180530
N2    N     N_R   0.754320 0.561190 0.447410 -0.205164
N3    N     N_3   0.934370 0.118266 0.624899 -0.583061
O1    O     O_R   0.972510 0.318130 0.526570 -0.537761
O2    O     O_R   0.806530 0.359650 0.490890 -0.611938
O3    O     O_R   0.082980 0.479210 0.647590 -0.587178
O4    O     O_R   0.917000 0.520730 0.611900 -0.603844
O5    O     O_R   0.193470 0.640350 0.509110 -0.587354
O6    O     O_R   0.027490 0.681870 0.473430 -0.584563
O7    O     O_R   0.083000 0.479270 0.388100 -0.588079
O8    O     O_R   0.917020 0.520790 0.352410 -0.601173

loop_
_geom_bond_atom_site_label_1
_geom_bond_atom_site_label_2
_ccdc_geom_bond_type
C1    O2    A    
C1    C21   S    
C43   H21   S    
C27   C29   A    
C12   C49   A    
C10   H27   S    
C45   C46   A    
C16   O5    A    
C5    C47   A    
C42   H24   S    
C12   C41   A    
C23   C42   S    
C49   H14   S    
C13   C18   A    
C20   H15   S    
C30   C31   A    
C11   C14   A    
C48   H13   S    
C39   H3    S    
C36   N1    A    
C23   C40   A    
C29   C33   A    
C44   H20   S    
C8    N3    S    
C9    H28   S    
C12   C37   A    
C19   H26   S    
Cu2   O6    S    
C6    C15   A    
C43   H22   S    
Cu1   O5    S    
C47   C48   A    
C8    C9    A    
C32   H31   S    
C41   C46   A    
C44   H19   S    
C9    C10   A    
C2    H10   S    
Cu1   O3    S    
C33   H8    S    
C27   C30   A    
C34   H9    S    
H17   N3    S    
Cu1   N1    S    
C6    H23   S    
C22   H2    S    
C2    C45   A    
H16   N3    S    
C22   C31   A    
C35   H4    S    
C24   C25   A    
C29   N2    A    
Cu2   O2    S    
C39   C40   A    
C37   H1    S    
C35   N1    A    
Cu1   Cu2   S    
C25   C26   A    
C28   O8    A    
C43   C44   S    
C37   C38   A    
C31   C32   A    
C28   C38   S    
C36   H30   S    
C23   C34   A    
C17   C18   A    
C26   C27   A    
C13   C21   A    
C44   H18   S    
C28   O7    A    
C34   C45   A    
Cu2   O8    S    
C30   C35   A    
Cu1   O7    S    
C48   C49   A    
C7    C19   A    
C42   C43   S    
C3    C4    S    
C22   C36   A    
C4    O4    A    
C1    O1    A    
C15   C17   A    
C46   C47   A    
C7    C16   S    
C14   C19   A    
C3    C5    A    
C8    C21   A    
C4    O3    A    
C24   H5    S    
C6    C20   A    
C42   H25   S    
C32   C33   A    
C2    C3    A    
C24   N2    A    
Cu2   O4    S    
C11   C13   A    
C38   C39   A    
C5    H11   S    
C26   H6    S    
C10   C11   A    
Cu1   O1    S    
C16   O6    A    
C18   H29   S    
C7    C20   A    
C25   H7    S    
C14   C15   A    
C40   C41   A    
Cu2   N2    S    
C17   H12   S    
