data_mof_unit_11152.cif
_audit_creation_date              2012-10-26T21:01:02-0400
_audit_creation_method            fapswitch 2.2
_symmetry_space_group_name_H-M    P1
_symmetry_Int_Tables_number       1
_space_group_crystal_system       triclinic
_cell_length_a                    10.921377
_cell_length_b                    10.837929
_cell_length_c                    9.548064
_cell_angle_alpha                 89.840918
_cell_angle_beta                  90.2855
_cell_angle_gamma                 90.624872
_cell_volume                      1130.07220286

loop_
_atom_site_label
_atom_site_type_symbol
_atom_type_description
_atom_site_fract_x
_atom_site_fract_y
_atom_site_fract_z
_atom_type_partial_charge
C1    C     C_R   0.500742 0.262452 0.500111 0.545240
C2    C     C_R   0.407749 0.445390 0.074014 -0.029748
C3    C     C_R   0.407605 0.445590 0.925242 -0.022231
C4    C     C_R   0.265382 0.497541 0.499747 0.550277
C5    C     C_R   0.600226 0.542443 0.926655 0.112928
C6    C     C_3   0.654987 0.669969 0.922369 -0.114369
C7    C     C_3   0.652733 0.670418 0.083003 0.138062
C8    C     C_R   0.499369 0.737726 0.499855 0.540767
C9    C     C_R   0.734613 0.499519 0.500189 0.556013
C10   C     C_2   0.932369 0.492931 0.384478 -0.164439
C11   C     C_2   0.866610 0.499675 0.502273 -0.123394
C12   C     C_R   0.508410 0.129460 0.500045 0.009326
C13   C     C_2   0.066506 0.498488 0.384295 -0.167868
C14   C     C_2   0.133529 0.488459 0.501542 -0.124129
C15   C     C_R   0.505154 0.063629 0.625776 0.021098
C16   C     C_R   0.781296 0.678859 0.856438 0.090358
C17   C     C_R   0.807435 0.777061 0.764416 -0.103666
C18   C     C_R   0.925310 0.793541 0.710501 -0.130108
C19   C     C_R   0.018748 0.713103 0.749062 -0.117182
C20   C     C_R   0.993794 0.614262 0.839095 -0.140508
C21   C     C_R   0.875290 0.595473 0.890316 -0.042794
C22   C     C_3   0.793014 0.771730 0.230490 0.015494
C23   C     C_R   0.521700 0.065144 0.373716 -0.169436
C24   C     C_3   0.818233 0.887342 0.141544 -0.279885
C25   C     C_3   0.855942 0.996555 0.233225 -0.485979
C26   C     C_R   0.518902 0.936870 0.373486 -0.176848
C27   C     C_R   0.505197 0.871263 0.499680 0.000192
C28   C     C_R   0.503529 0.936312 0.625741 0.006059
C29   C     C_3   0.411184 0.930686 0.740890 -0.266645
C30   C     C_3   0.413894 0.070522 0.741288 -0.266881
C31   C     C_R   0.599108 0.543750 0.074293 0.187534
Cu1   Cu    Cu3+1 0.499990 0.499980 0.640670 0.932557
Cu2   Cu    Cu3+1 0.500010 0.500020 0.359330 0.944904
H1    H     H_    0.887058 0.486881 0.283224 0.185848
H2    H     H_    0.529092 0.113355 0.274538 0.136715
H3    H     H_    0.523060 0.889993 0.274033 0.118090
H4    H     H_    0.321799 0.890845 0.706186 0.135173
H5    H     H_    0.448510 0.890599 0.839044 0.122421
H6    H     H_    0.325956 0.112217 0.707318 0.131534
H7    H     H_    0.737100 0.842280 0.736069 0.102516
H8    H     H_    0.944529 0.869641 0.640028 0.104434
H9    H     H_    0.110223 0.726684 0.708255 0.117845
H10   H     H_    0.066006 0.551296 0.867894 0.099694
H11   H     H_    0.857794 0.517777 0.959129 0.125544
H12   H     H_    0.454404 0.110228 0.838486 0.135621
H13   H     H_    0.875879 0.752649 0.294558 0.158136
H14   H     H_    0.717881 0.786786 0.306216 0.142084
H15   H     H_    0.892922 0.868168 0.066264 0.187702
H16   H     H_    0.734826 0.912310 0.081173 0.142632
H17   H     H_    0.782841 0.017249 0.309786 0.157890
H18   H     H_    0.871500 0.079264 0.166501 0.149507
H19   H     H_    0.942024 0.975950 0.290740 0.145721
H20   H     H_    0.332055 0.402818 0.129251 0.117145
H21   H     H_    0.331780 0.403180 0.869490 0.114224
H22   H     H_    0.589466 0.737137 0.877632 0.086028
H23   H     H_    0.586428 0.737112 0.126787 0.088528
H24   H     H_    0.908026 0.507282 0.604298 0.119934
H25   H     H_    0.110748 0.511572 0.283584 0.145805
H26   H     H_    0.093465 0.470636 0.602890 0.096540
N1    N     N_R   0.500780 0.500930 0.147930 -0.255038
N2    N     N_R   0.500780 0.500890 0.852020 -0.243787
O1    O     O_R   0.500000 0.319640 0.618810 -0.498957
O2    O     O_R   0.500010 0.319680 0.381230 -0.509911
O3    O     O_R   0.321940 0.499980 0.618760 -0.514009
O4    O     O_R   0.321950 0.500020 0.381180 -0.503740
O5    O     O_R   0.499990 0.680320 0.618770 -0.500109
O6    O     O_R   0.500000 0.680360 0.381190 -0.514183
O7    O     O_R   0.678050 0.499980 0.618820 -0.497837
O8    O     O_R   0.678060 0.500020 0.381240 -0.472649
O9    O     O_3   0.770408 0.666943 0.146191 -0.581787

loop_
_geom_bond_atom_site_label_1
_geom_bond_atom_site_label_2
_ccdc_geom_bond_type
C29   H5    S    
C31   N1    A    
C24   C25   S    
C25   H18   S    
C8    O5    A    
C29   C30   S    
C25   H17   S    
C21   H11   S    
C4    O3    A    
C30   H12   S    
C19   C20   A    
C12   C15   A    
Cu2   O8    S    
C6    H22   S    
Cu2   O2    S    
Cu1   Cu2   S    
C7    O9    S    
C22   H14   S    
C26   C27   A    
C25   H19   S    
Cu1   O1    S    
C10   C13   S    
C10   H1    S    
C11   H24   S    
Cu1   O7    S    
C1    O1    A    
C5    N2    A    
C14   H26   S    
C9    C11   S    
C12   C23   A    
Cu2   O6    S    
C15   C28   A    
C16   C21   A    
C1    C12   S    
C7    H23   S    
C15   C30   S    
C1    O2    A    
C22   C24   S    
C26   H3    S    
C28   C29   S    
C22   H13   S    
C9    O8    A    
Cu1   N2    S    
C17   C18   A    
Cu2   N1    S    
C23   H2    S    
C3    N2    A    
C4    C14   S    
C5    C6    S    
C3    H21   S    
C2    N1    A    
C9    O7    A    
C7    C31   S    
C10   C11   D    
C18   H8    S    
Cu2   O4    S    
C24   H15   S    
C27   C28   A    
C20   H10   S    
C20   C21   A    
Cu1   O3    S    
C8    O6    A    
Cu1   O5    S    
C18   C19   A    
C23   C26   A    
C29   H4    S    
C24   H16   S    
C8    C27   S    
C4    O4    A    
C2    C3    A    
C13   H25   S    
C13   C14   D    
C6    C16   S    
C22   O9    S    
C6    C7    S    
C19   H9    S    
C2    H20   S    
C30   H6    S    
C16   C17   A    
C5    C31   A    
C17   H7    S    
