data_mof_unit_56899.cif
_audit_creation_date              2012-10-26T20:19:31-0400
_audit_creation_method            fapswitch 2.2
_symmetry_space_group_name_H-M    P1
_symmetry_Int_Tables_number       1
_space_group_crystal_system       triclinic
_cell_length_a                    10.879306
_cell_length_b                    10.821874
_cell_length_c                    9.674761
_cell_angle_alpha                 90.475129
_cell_angle_beta                  89.788701
_cell_angle_gamma                 94.891088
_cell_volume                      1134.86106126

loop_
_atom_site_label
_atom_site_type_symbol
_atom_type_description
_atom_site_fract_x
_atom_site_fract_y
_atom_site_fract_z
_atom_type_partial_charge
C1    C     C_R   0.500868 0.261702 0.500503 0.536364
C2    C     C_R   0.506753 0.059979 0.630270 0.007694
C3    C     C_R   0.492195 0.125120 0.504721 0.006685
C4    C     C_R   0.260253 0.489630 0.500196 0.537941
C5    C     C_R   0.447056 0.058666 0.387808 -0.097813
C6    C     C_R   0.432326 0.929872 0.388947 -0.117640
C7    C     C_R   0.455189 0.865751 0.509553 0.006278
C8    C     C_R   0.679997 0.650171 0.146570 0.157831
C9    C     C_R   0.797287 0.661036 0.088419 -0.090111
C10   C     C_R   0.807249 0.657990 0.946373 -0.126777
C11   C     C_R   0.700401 0.637512 0.866515 0.035678
C12   C     C_3   0.875437 0.471661 0.501269 -0.026084
C13   C     C_R   0.590959 0.574470 0.926684 0.133563
C14   C     C_R   0.587032 0.576187 0.075814 0.153228
C15   C     C_R   0.417027 0.427437 0.072971 0.049065
C16   C     C_R   0.481342 0.734218 0.501686 0.578383
C17   C     C_R   0.417139 0.427290 0.925832 0.040989
C18   C     C_R   0.737018 0.482240 0.500035 0.558774
C19   C     C_3   0.065326 0.392490 0.620968 -0.108254
C20   C     C_3   0.920491 0.382502 0.616574 -0.066041
C21   C     C_3   0.080971 0.609991 0.526585 -0.261596
C22   C     C_3   0.068330 0.429535 0.355661 0.024360
C23   C     C_3   0.939621 0.604825 0.533325 -0.123950
C24   C     C_3   0.121580 0.478899 0.500552 -0.012062
C25   C     C_1   0.108610 0.436916 0.758963 0.257414
C26   C     C_1   0.859903 0.412850 0.235505 0.265313
C27   C     C_1   0.897655 0.706007 0.450185 0.212125
C28   C     C_1   0.705301 0.722742 0.753422 0.261893
C29   C     C_1   0.103488 0.517879 0.242351 0.268690
C30   C     C_3   0.925788 0.407856 0.366483 -0.141781
C31   C     C_R   0.556297 0.116379 0.752304 -0.061607
C32   C     C_R   0.535968 0.060479 0.880046 0.113819
C33   C     C_R   0.471082 0.944290 0.887553 -0.093607
C34   C     C_R   0.439570 0.879057 0.766221 -0.109411
C35   C     C_R   0.466891 0.932960 0.635567 0.033859
Cu1   Cu    Cu3+1 0.499990 0.499990 0.640660 0.976531
Cu2   Cu    Cu3+1 0.500010 0.500010 0.359340 1.026228
H1    H     H_    0.120251 0.674811 0.445700 0.132521
H2    H     H_    0.894177 0.693759 0.900429 0.140505
H3    H     H_    0.350844 0.365128 0.871054 0.140788
H4    H     H_    0.890322 0.284740 0.588615 0.134069
H5    H     H_    0.120133 0.649503 0.625242 0.131281
H6    H     H_    0.915327 0.627582 0.641750 0.141296
H7    H     H_    0.906265 0.306409 0.379445 0.134566
H8    H     H_    0.424231 0.106100 0.294680 0.179473
H9    H     H_    0.611029 0.203571 0.751379 0.190189
H10   H     H_    0.447244 0.903253 0.986589 0.149840
H11   H     H_    0.389300 0.788960 0.776047 0.149240
H12   H     H_    0.405425 0.880298 0.294723 0.158493
H13   H     H_    0.349808 0.366389 0.126633 0.157964
H14   H     H_    0.097121 0.298245 0.606972 0.128965
H15   H     H_    0.876141 0.699778 0.146596 0.171834
I1    I     I_    0.597002 0.158823 0.058944 -0.312583
I2    I     I_    0.649148 0.837410 0.178521 -0.329796
I3    I     I_    0.831208 0.364843 0.814649 -0.316636
I4    I     I_    0.140087 0.254458 0.297891 -0.396618
N1    N     N_R   0.501200 0.501210 0.147910 -0.240639
N2    N     N_R   0.501250 0.501290 0.852040 -0.250144
N3    N     N_1   0.141026 0.472506 0.866982 -0.259373
N4    N     N_1   0.806282 0.408246 0.132946 -0.196497
N5    N     N_1   0.867413 0.789315 0.388945 -0.231822
N6    N     N_1   0.716769 0.795858 0.666628 -0.260639
N7    N     N_1   0.130764 0.587246 0.154841 -0.273525
O1    O     O_R   0.499990 0.319640 0.618810 -0.524496
O2    O     O_R   0.500000 0.319660 0.381240 -0.482957
O3    O     O_R   0.317680 0.499970 0.618790 -0.516254
O4    O     O_R   0.317700 0.499990 0.381210 -0.493420
O5    O     O_R   0.500000 0.680340 0.618760 -0.512502
O6    O     O_R   0.500010 0.680360 0.381190 -0.476814
O7    O     O_R   0.682300 0.500010 0.618790 -0.484244
O8    O     O_R   0.682320 0.500030 0.381210 -0.488034

loop_
_geom_bond_atom_site_label_1
_geom_bond_atom_site_label_2
_ccdc_geom_bond_type
C2    C35   A    
C18   O7    A    
C4    O4    A    
C1    O2    A    
Cu1   O5    S    
C6    C7    A    
C16   O5    A    
C22   C29   S    
C23   C27   S    
C20   H4    S    
C11   C13   A    
C9    C10   A    
C31   C32   A    
C17   H3    S    
C22   I4    S    
C17   N2    A    
C3    C5    A    
C32   C33   A    
C12   C20   S    
C29   N7    T    
C2    C3    A    
C8    C9    A    
C23   H6    S    
C5    H8    S    
Cu2   O8    S    
C22   C30   S    
C13   C14   A    
C4    O3    A    
C15   N1    A    
C12   C23   S    
C30   H7    S    
C9    H15   S    
C26   N4    T    
C11   C28   S    
C20   I3    S    
C4    C24   S    
Cu2   O4    S    
C22   C24   S    
C7    C35   A    
C7    C16   S    
C27   N5    T    
Cu1   O7    S    
C26   C30   S    
Cu1   N2    S    
C21   C23   S    
C6    H12   S    
C5    C6    A    
C33   H10   S    
Cu2   O6    S    
Cu1   O3    S    
C21   C24   S    
C34   H11   S    
C10   C11   A    
C21   H1    S    
C19   C25   S    
C12   C18   S    
C21   H5    S    
C1    O1    A    
C19   H14   S    
C32   I1    S    
C33   C34   A    
C34   C35   A    
C15   H13   S    
C8    I2    S    
C18   O8    A    
C15   C17   A    
C14   N1    A    
Cu1   Cu2   S    
C8    C14   A    
C13   N2    A    
C25   N3    T    
C12   C30   S    
Cu1   O1    S    
C19   C24   S    
C10   H2    S    
Cu2   N1    S    
C16   O6    A    
C19   C20   S    
Cu2   O2    S    
C2    C31   A    
C1    C3    S    
C31   H9    S    
C28   N6    T    
