data_mof_unit_49348.cif
_audit_creation_date              2012-10-26T20:06:47-0400
_audit_creation_method            fapswitch 2.2
_symmetry_space_group_name_H-M    P1
_symmetry_Int_Tables_number       1
_space_group_crystal_system       triclinic
_cell_length_a                    10.900503
_cell_length_b                    9.659479
_cell_length_c                    27.620869
_cell_angle_alpha                 91.478673
_cell_angle_beta                  94.742241
_cell_angle_gamma                 91.529442
_cell_volume                      2896.15511042

loop_
_atom_site_label
_atom_site_type_symbol
_atom_type_description
_atom_site_fract_x
_atom_site_fract_y
_atom_site_fract_z
_atom_type_partial_charge
Br1   Br    Br    0.591194 0.196329 0.361826 -0.360359
Br2   Br    Br    0.935004 0.492988 0.869012 -0.329434
Br3   Br    Br    0.294284 0.325790 0.634398 -0.615907
Br4   Br    Br    0.578624 0.803696 0.362103 -0.387156
Br5   Br    Br    0.215210 0.422803 0.001760 -0.363054
Br6   Br    Br    0.941328 0.636854 0.979521 -0.376138
Br7   Br    Br    0.768995 0.569539 0.639628 -0.410439
Br8   Br    Br    0.319362 0.154456 0.418715 -0.338583
Br9   Br    Br    0.685277 0.844119 0.578901 -0.339653
Br10  Br    Br    0.651665 0.168893 0.592211 -0.421356
Br11  Br    Br    0.304277 0.820323 0.423377 -0.400601
Br12  Br    Br    0.551243 0.195321 0.241769 -0.396726
Br13  Br    Br    0.747805 0.713732 0.750662 -0.371003
Br14  Br    Br    0.206341 0.401296 0.119503 -0.370904
C1    C     C_R   0.262765 0.499712 0.499210 0.581014
C2    C     C_R   0.463027 0.614267 0.874832 -0.019811
C3    C     C_R   0.544299 0.496367 0.355801 -0.071982
C4    C     C_R   0.510950 0.501797 0.645907 -0.030235
C5    C     C_R   0.468412 0.575990 0.975658 -0.004018
C6    C     C_R   0.690120 0.507117 0.029020 -0.031667
C7    C     C_R   0.688436 0.527920 0.977911 -0.011612
C8    C     C_R   0.465728 0.533659 0.024084 0.004001
C9    C     C_R   0.575150 0.554485 0.951486 -0.069661
C10   C     C_R   0.578350 0.515701 0.051960 -0.073075
C11   C     C_R   0.372927 0.652003 0.951838 0.318710
C12   C     C_R   0.737921 0.501559 0.499773 0.578610
C13   C     C_R   0.795881 0.465001 0.057901 0.291590
C14   C     C_R   0.371078 0.673157 0.901571 0.301259
C15   C     C_R   0.800634 0.480737 0.108509 0.287387
C16   C     C_R   0.513128 0.498913 0.407897 0.575653
C17   C     C_R   0.501114 0.500749 0.592433 0.606076
C18   C     C_R   0.355140 0.492700 0.044028 0.199812
C19   C     C_R   0.795484 0.535431 0.952021 0.203516
C20   C     C_R   0.056166 0.401085 0.473195 0.215221
C21   C     C_R   0.944211 0.626153 0.511518 0.252197
C22   C     C_R   0.933741 0.387138 0.482487 0.194230
C23   C     C_R   0.577851 0.499664 0.102741 -0.130982
C24   C     C_R   0.071670 0.616009 0.520520 0.211239
C25   C     C_R   0.872542 0.504816 0.498313 -0.082115
C26   C     C_R   0.129420 0.503324 0.498894 -0.073630
C27   C     C_R   0.425934 0.068767 0.466647 0.299193
C28   C     C_R   0.573588 0.930618 0.533261 0.239642
C29   C     C_R   0.568803 0.077461 0.535147 0.231403
C30   C     C_R   0.422870 0.921150 0.467581 0.299428
C31   C     C_R   0.469099 0.500006 0.175799 0.483700
C32   C     C_R   0.647389 0.494627 0.824770 0.476636
C33   C     C_R   0.686493 0.474403 0.182067 0.426378
C34   C     C_R   0.568598 0.562611 0.900458 -0.133150
C35   C     C_R   0.456098 0.609406 0.823646 0.453518
C36   C     C_R   0.592074 0.616445 0.281878 0.278869
C37   C     C_R   0.431673 0.447501 0.724279 0.312956
C38   C     C_R   0.568140 0.621409 0.331187 0.118168
C39   C     C_R   0.420467 0.436132 0.672184 0.070094
C40   C     C_R   0.557784 0.368479 0.329937 0.124884
C41   C     C_R   0.616927 0.562375 0.670611 0.153792
C42   C     C_R   0.563501 0.366875 0.279286 0.181445
C43   C     C_R   0.619951 0.590811 0.720255 0.181559
C44   C     C_R   0.578484 0.490936 0.255258 0.173251
C45   C     C_R   0.465176 0.494181 0.124598 0.000311
C46   C     C_R   0.530144 0.530242 0.747426 0.191220
C47   C     C_3   0.238465 0.343787 0.744403 0.046761
C48   C     C_3   0.164484 0.474365 0.733470 -0.268355
C49   C     C_3   0.028312 0.437393 0.721441 -0.405946
C50   C     C_3   0.750873 0.761494 0.266518 0.015603
C51   C     C_3   0.784561 0.900666 0.245460 -0.237690
C52   C     C_3   0.922487 0.933911 0.253891 -0.477699
C53   C     C_3   0.320315 0.887748 0.875395 0.035074
C54   C     C_3   0.209966 0.981779 0.868869 -0.243292
C55   C     C_3   0.250949 0.134183 0.868842 -0.465921
C56   C     C_R   0.668203 0.518617 0.875295 0.007424
C57   C     C_3   0.948839 0.615875 0.152038 0.060957
C58   C     C_3   0.993809 0.706817 0.111927 -0.259466
C59   C     C_3   0.038334 0.849567 0.132203 -0.498083
C60   C     C_3   0.329406 0.841947 0.998727 0.017874
C61   C     C_3   0.312831 0.846463 0.053137 -0.264313
C62   C     C_3   0.333093 0.993072 0.074868 -0.452271
C63   C     C_3   0.861975 0.269633 0.019768 0.047645
C64   C     C_3   0.860438 0.164590 0.060516 -0.268130
C65   C     C_3   0.830337 0.018339 0.039920 -0.482357
C66   C     C_3   0.083223 0.381006 0.392639 0.038430
C67   C     C_R   0.354214 0.475656 0.094451 0.168501
C68   C     C_3   0.965000 0.324105 0.364138 -0.272031
C69   C     C_3   0.940574 0.396446 0.316039 -0.447807
C70   C     C_3   0.866639 0.808424 0.468963 0.029784
C71   C     C_3   0.983594 0.853474 0.445501 -0.265053
C72   C     C_3   0.953775 0.948420 0.403227 -0.444970
C73   C     C_3   0.886746 0.196599 0.523975 0.032779
C74   C     C_3   0.018219 0.163313 0.543843 -0.270234
C75   C     C_3   0.016034 0.079754 0.589740 -0.433414
C76   C     C_3   0.182885 0.691572 0.590614 0.035121
C77   C     C_3   0.227850 0.824004 0.619288 -0.256497
C78   C     C_R   0.785180 0.510497 0.901368 0.200958
C79   C     C_3   0.333868 0.800630 0.657530 -0.434836
C80   C     C_R   0.689880 0.487631 0.131517 -0.028778
Cu1   Cu    Cu3+1 0.500000 0.640660 0.500000 1.102800
Cu2   Cu    Cu3+1 0.500000 0.359340 0.500000 1.137074
H1    H     H_    0.202754 0.300300 0.777463 0.152260
H2    H     H_    0.756883 0.898448 0.205788 0.176028
H3    H     H_    0.734129 0.983493 0.263223 0.254704
H4    H     H_    0.950259 0.946423 0.293345 0.162007
H5    H     H_    0.944574 0.032287 0.236128 0.185672
H6    H     H_    0.976010 0.849773 0.238396 0.149420
H7    H     H_    0.374898 0.896758 0.843317 0.179046
H8    H     H_    0.380131 0.925700 0.907972 0.082797
H9    H     H_    0.155698 0.953919 0.833962 0.203457
H10   H     H_    0.149742 0.966174 0.898957 0.204042
H11   H     H_    0.300390 0.165674 0.904376 0.172666
H12   H     H_    0.219228 0.258860 0.717102 0.188250
H13   H     H_    0.169046 0.199405 0.862732 0.193263
H14   H     H_    0.312733 0.152151 0.839463 0.174226
H15   H     H_    0.025085 0.607568 0.181002 0.200877
H16   H     H_    0.872860 0.668046 0.169174 0.105156
H17   H     H_    0.069740 0.655704 0.094680 0.252026
H18   H     H_    0.917126 0.721032 0.083689 0.177995
H19   H     H_    0.963079 0.902027 0.149482 0.152260
H20   H     H_    0.065973 0.914929 0.102279 0.163978
H21   H     H_    0.118649 0.840154 0.159282 0.184628
H22   H     H_    0.273697 0.924369 0.981186 0.162728
H23   H     H_    0.172701 0.545242 0.765815 0.247965
H24   H     H_    0.428346 0.866626 0.993719 0.083852
H25   H     H_    0.218455 0.808566 0.058978 0.203851
H26   H     H_    0.379676 0.777520 0.072206 0.164329
H27   H     H_    0.427407 0.032823 0.069388 0.160969
H28   H     H_    0.322203 0.992021 0.114484 0.192152
H29   H     H_    0.264449 0.063640 0.057673 0.184184
H30   H     H_    0.932293 0.238534 0.994999 0.199850
H31   H     H_    0.772071 0.265584 0.997372 0.104975
H32   H     H_    0.951762 0.166458 0.081689 0.221128
H33   H     H_    0.789584 0.192375 0.085487 0.171023
H34   H     H_    0.198279 0.529059 0.702291 0.172061
H35   H     H_    0.741619 0.015510 0.016969 0.154613
H36   H     H_    0.821439 0.946504 0.070197 0.154207
H37   H     H_    0.904763 0.982652 0.017864 0.186194
H38   H     H_    0.162164 0.356866 0.371241 0.201376
H39   H     H_    0.082387 0.496778 0.395460 0.106888
H40   H     H_    0.973595 0.211542 0.356558 0.185984
H41   H     H_    0.884545 0.339073 0.385639 0.207920
H42   H     H_    0.928080 0.509077 0.322511 0.135693
H43   H     H_    0.854961 0.351223 0.296640 0.213016
H44   H     H_    0.018114 0.381527 0.292897 0.196003
H45   H     H_    0.015251 0.371483 0.687741 0.181447
H46   H     H_    0.807640 0.899071 0.472994 0.180077
H47   H     H_    0.812090 0.733786 0.443763 0.141053
H48   H     H_    0.049439 0.907488 0.472771 0.229909
H49   H     H_    0.028487 0.760267 0.431589 0.167979
H50   H     H_    0.888058 0.895335 0.375531 0.151777
H51   H     H_    0.039598 0.976279 0.386267 0.202733
H52   H     H_    0.912363 0.044659 0.416302 0.220296
H53   H     H_    0.829952 0.099522 0.520993 0.185987
H54   H     H_    0.848583 0.266533 0.551113 0.190693
H55   H     H_    0.066557 0.106510 0.516129 0.210571
H56   H     H_    0.976871 0.533952 0.715738 0.233581
H57   H     H_    0.071207 0.260921 0.553948 0.184800
H58   H     H_    0.110582 0.078487 0.607678 0.174950
H59   H     H_    0.956425 0.128494 0.615713 0.194578
H60   H     H_    0.981861 0.972147 0.580623 0.233079
H61   H     H_    0.260145 0.619758 0.588851 0.163401
H62   H     H_    0.109925 0.639929 0.610456 0.153462
H63   H     H_    0.259477 0.902730 0.594015 0.210402
H64   H     H_    0.149870 0.865622 0.638001 0.163326
H65   H     H_    0.309080 0.718787 0.682569 0.149184
H66   H     H_    0.355469 0.898032 0.679147 0.195977
H67   H     H_    0.990468 0.381655 0.751848 0.210836
H68   H     H_    0.417423 0.771817 0.639796 0.193107
H69   H     H_    0.801243 0.679294 0.248496 0.149356
H70   H     H_    0.782425 0.764336 0.305913 0.142171
N1    N     N_R   0.578636 0.490176 0.203183 -0.358269
N2    N     N_R   0.544262 0.543850 0.799812 -0.358256
N3    N     N_R   0.500000 0.852070 0.500000 -0.263150
N4    N     N_R   0.500000 0.147930 0.500000 -0.254240
O1    O     O_R   0.319640 0.618740 0.500000 -0.458351
O2    O     O_2   0.727523 0.420940 0.800688 -0.415325
O3    O     O_2   0.361844 0.667359 0.797723 -0.492067
O4    O     O_2   0.788891 0.442906 0.209846 -0.498643
O5    O     O_3   0.366701 0.367053 0.755645 -0.535721
O6    O     O_3   0.622056 0.736486 0.258643 -0.495163
O7    O     O_3   0.277322 0.749083 0.879445 -0.469608
O8    O     O_3   0.914735 0.479478 0.134554 -0.461205
O9    O     O_3   0.284338 0.712682 0.977951 -0.476048
O10   O     O_3   0.895424 0.404822 0.038364 -0.464676
O11   O     O_3   0.101650 0.316629 0.438334 -0.503214
O12   O     O_R   0.680360 0.381260 0.500000 -0.464977
O13   O     O_3   0.893167 0.754704 0.515989 -0.492939
O14   O     O_3   0.879307 0.256557 0.477511 -0.540128
O15   O     O_3   0.137926 0.727406 0.543130 -0.529265
O16   O     O_R   0.680360 0.618740 0.500000 -0.456744
O17   O     O_R   0.319640 0.381260 0.500000 -0.447843
O18   O     O_R   0.500020 0.618770 0.430260 -0.445335
O19   O     O_R   0.499980 0.381230 0.569740 -0.418291
O20   O     O_R   0.499980 0.618770 0.569740 -0.487779
O21   O     O_R   0.500020 0.381230 0.430260 -0.436775
O22   O     O_2   0.365448 0.518186 0.198355 -0.419791

loop_
_geom_bond_atom_site_label_1
_geom_bond_atom_site_label_2
_ccdc_geom_bond_type
C2    C14   A    
C73   C74   S    
C3    C16   S    
C13   C15   A    
C61   H26   S    
Br3   C39   S    
C48   H34   S    
C21   C25   A    
Cu1   Cu2   S    
C47   O5    S    
Br7   C41   S    
C61   C62   S    
C64   H32   S    
C72   H51   S    
C2    C34   A    
C35   O3    S    
C55   H11   S    
C53   H7    S    
C63   C64   S    
C11   C14   A    
C49   H67   S    
C18   C67   A    
C17   O20   A    
Br9   C28   S    
C48   C49   S    
C66   H39   S    
C8    C18   A    
Br4   C38   S    
C20   C26   A    
Cu2   O21   S    
Cu2   O17   S    
C64   H33   S    
C71   H49   S    
C51   H2    S    
C68   H41   S    
C15   C80   A    
C12   C25   S    
C75   H59   S    
Br13  C43   S    
C21   O13   S    
C58   H18   S    
C66   H38   S    
C3    C38   A    
C20   O11   S    
C36   O6    S    
C52   H4    S    
C47   H12   S    
C52   H6    S    
C30   N3    A    
C50   H70   S    
Cu1   O20   S    
C55   H13   S    
C60   O9    S    
C6    C10   A    
C32   O2    S    
C54   C55   S    
C73   H54   S    
C57   H15   S    
C53   H8    S    
C36   C38   A    
C22   O14   S    
C79   H65   S    
C50   O6    S    
C14   O7    S    
C77   H63   S    
C63   H31   S    
Br5   C18   S    
C74   C75   S    
C23   C45   A    
C56   C78   A    
Br8   C27   S    
Cu2   N4    S    
C62   H29   S    
C13   O10   S    
C52   H5    S    
C54   H10   S    
C65   H37   S    
C72   H50   S    
C71   H48   S    
C69   H43   S    
C69   H44   S    
C29   N4    A    
Cu1   O18   S    
C22   C25   A    
C60   H22   S    
C40   C42   A    
C4    C39   A    
C63   O10   S    
C59   H21   S    
C60   C61   S    
C53   C54   S    
C62   H28   S    
C21   C24   A    
C70   C71   S    
C51   H3    S    
C35   N2    A    
C66   C68   S    
C53   O7    S    
C19   C78   A    
Cu2   O12   S    
C73   O14   S    
C64   C65   S    
C43   C46   A    
C79   H68   S    
C71   C72   S    
C1    O17   A    
C58   H17   S    
C37   C39   A    
C16   O18   A    
Cu2   O19   S    
C76   H62   S    
C5    C9    A    
Br1   C40   S    
Cu1   N3    S    
C50   H69   S    
C28   N3    A    
C77   C79   S    
C33   N1    A    
C55   H14   S    
C31   O22   S    
C70   H46   S    
C65   H35   S    
C57   H16   S    
C5    C8    A    
C10   C23   A    
C49   H45   S    
C36   C44   A    
C1    O1    A    
Br11  C30   S    
C46   N2    S    
C66   O11   S    
C2    C35   A    
C37   O5    S    
C44   N1    S    
C31   N1    A    
C16   O21   A    
C48   H23   S    
Br12  C42   S    
C32   N2    A    
C4    C41   A    
C12   O12   A    
C49   H56   S    
C76   O15   S    
C68   C69   S    
C15   O8    S    
C41   C43   A    
C73   H53   S    
C27   C30   A    
C8    C10   A    
C54   H9    S    
C57   O8    S    
C31   C45   A    
C9    C34   A    
Br10  C29   S    
C61   H25   S    
C62   H27   S    
C70   O13   S    
C47   H1    S    
C45   C67   A    
C34   C56   A    
C58   C59   S    
C75   H60   S    
C72   H52   S    
C75   H58   S    
C11   O9    S    
C4    C17   S    
C6    C13   A    
C24   O15   S    
C60   H24   S    
C27   N4    A    
C17   O19   A    
C70   H47   S    
Br6   C19   S    
C50   C51   S    
C76   H61   S    
C7    C9    A    
C57   C58   S    
C59   H19   S    
C74   H57   S    
C24   C26   A    
C12   O16   A    
C77   H64   S    
C76   C77   S    
C79   H66   S    
C65   H36   S    
Br2   C78   S    
C74   H55   S    
C33   C80   A    
C42   C44   A    
C23   C80   A    
C59   H20   S    
C20   C22   A    
C68   H40   S    
C47   C48   S    
C5    C11   A    
C1    C26   S    
C32   C56   A    
C33   O4    S    
C7    C19   A    
C6    C7    A    
C51   C52   S    
C28   C29   A    
C37   C46   A    
Br14  C67   S    
Cu1   O1    S    
C3    C40   A    
C69   H42   S    
C63   H30   S    
Cu1   O16   S    
