data_mof_unit_56394.cif
_audit_creation_date              2012-12-11T14:38:20-0500
_audit_creation_method            fapswitch 2.2
_symmetry_space_group_name_H-M    P1
_symmetry_Int_Tables_number       1
_space_group_crystal_system       triclinic
_cell_length_a                    19.463913
_cell_length_b                    11.182947
_cell_length_c                    19.6288
_cell_angle_alpha                 89.712834
_cell_angle_beta                  96.693637
_cell_angle_gamma                 89.553409
_cell_volume                      4243.15407054

loop_
_atom_site_label
_atom_site_type_symbol
_atom_type_description
_atom_site_fract_x
_atom_site_fract_y
_atom_site_fract_z
_atom_type_partial_charge
C1    C     C_R   0.725233 0.952239 0.360174 0.546100
C2    C     C_3   0.171217 0.463510 0.467477 0.009635
C3    C     C_3   0.308952 0.977266 0.525551 -0.014545
C4    C     C_3   0.671215 0.963519 0.467478 0.009504
C5    C     C_3   0.766101 0.279470 0.562440 -0.240934
C6    C     C_3   0.246484 0.287428 0.446721 -0.251665
C7    C     C_3   0.266101 0.779474 0.562435 -0.240695
C8    C     C_3   0.746481 0.787433 0.446722 -0.251700
C9    C     C_3   0.757106 0.413757 0.569194 0.087960
C10   C     C_3   0.237919 0.421235 0.433114 0.095764
C11   C     C_3   0.257108 0.913761 0.569191 0.085239
C12   C     C_R   0.273947 0.951288 0.640583 0.562543
C13   C     C_3   0.737917 0.921240 0.433115 0.094901
C14   C     C_3   0.734601 0.357372 0.439851 0.041231
C15   C     C_3   0.254736 0.392390 0.565295 0.050586
C16   C     C_3   0.234604 0.857382 0.439848 0.043365
C17   C     C_3   0.754734 0.892394 0.565295 0.051248
C18   C     C_3   0.786960 0.460468 0.448496 -0.214667
C19   C     C_3   0.185536 0.457372 0.545642 -0.230865
C20   C     C_3   0.286967 0.960473 0.448493 -0.215121
C21   C     C_3   0.685533 0.957374 0.545643 -0.230850
C22   C     C_3   0.764250 0.252402 0.485829 -0.245035
C23   C     C_R   0.225234 0.452236 0.360173 0.542921
C24   C     C_3   0.258908 0.273018 0.525324 -0.228646
C25   C     C_3   0.264246 0.752406 0.485825 -0.244878
C26   C     C_3   0.758904 0.773022 0.525324 -0.228752
C27   C     C_3   0.554788 0.230994 0.952993 -0.244366
C28   C     C_3   0.571723 0.231368 0.030939 -0.220992
C29   C     C_3   0.927616 0.736343 0.968749 -0.217881
C30   C     C_3   0.944437 0.735442 0.046823 -0.250133
C31   C     C_3   0.427250 0.240049 0.968942 -0.218399
C32   C     C_3   0.504744 0.041055 0.040490 -0.232949
C33   C     C_3   0.992051 0.540917 0.961240 -0.236349
C34   C     C_R   0.773947 0.451288 0.640582 0.551960
C35   C     C_3   0.072007 0.737296 0.030688 -0.219856
C36   C     C_3   0.487826 0.040792 0.961996 -0.234491
C37   C     C_3   0.444252 0.239942 0.047044 -0.246460
C38   C     C_3   0.055311 0.735172 0.952614 -0.248643
C39   C     C_3   0.009915 0.541361 0.039592 -0.233908
C40   C     C_R   0.536401 0.180584 0.338703 0.532287
C41   C     C_R   0.464398 0.180560 0.661854 0.544549
C42   C     C_R   0.036402 0.680584 0.338704 0.533307
C43   C     C_R   0.964397 0.680560 0.661853 0.543990
C44   C     C_3   0.484182 0.171539 0.934270 0.053614
C45   C     C_3   0.665950 0.399718 0.465412 -0.246274
C46   C     C_3   0.512890 0.172074 0.066542 0.054983
C47   C     C_3   0.985756 0.671689 0.933836 0.053901
C48   C     C_3   0.014668 0.672522 0.066060 0.052863
C49   C     C_1   0.757395 0.413164 0.900566 -0.013860
C50   C     C_1   0.238126 0.427842 0.095597 -0.012666
C51   C     C_1   0.281059 0.975045 0.914674 -0.021619
C52   C     C_1   0.737977 0.928338 0.095463 -0.012795
C53   C     C_1   0.735828 0.364240 0.026709 -0.052921
C54   C     C_1   0.251862 0.406083 0.965405 -0.053474
C55   C     C_1   0.258697 0.936367 0.041783 -0.049460
C56   C     C_3   0.314215 0.470292 0.544670 -0.257369
C57   C     C_1   0.751688 0.906811 0.965247 -0.053653
C58   C     C_1   0.745568 0.388368 0.957856 -0.047982
C59   C     C_1   0.246112 0.416187 0.036075 -0.051558
C60   C     C_1   0.270489 0.958807 0.973297 -0.052083
C61   C     C_1   0.745926 0.916910 0.035916 -0.051643
C62   C     C_1   0.729432 0.343068 0.085915 -0.022950
C63   C     C_1   0.256341 0.391465 0.905347 -0.015783
C64   C     C_1   0.248773 0.908930 0.099260 -0.017893
C65   C     C_1   0.756213 0.891984 0.905214 -0.016324
C66   C     C_R   0.725602 0.316281 0.368009 0.550840
C67   C     C_3   0.165953 0.899737 0.465407 -0.245820
C68   C     C_R   0.261409 0.360446 0.638094 0.543139
C69   C     C_R   0.225604 0.816288 0.368009 0.547791
C70   C     C_R   0.761408 0.860449 0.638095 0.540828
C71   C     C_R   0.722301 0.954607 0.163273 0.536778
C72   C     C_R   0.294840 0.996800 0.845481 0.549175
C73   C     C_R   0.222344 0.454480 0.163327 0.539567
C74   C     C_R   0.777141 0.452366 0.836010 0.537996
C75   C     C_R   0.533499 0.179301 0.140469 0.531073
C76   C     C_R   0.464944 0.178814 0.860163 0.530829
C77   C     C_R   0.034520 0.679448 0.140062 0.541421
C78   C     C_3   0.814213 0.970294 0.544671 -0.257301
C79   C     C_R   0.965829 0.678766 0.859814 0.538195
C80   C     C_R   0.722780 0.312302 0.155887 0.555409
C81   C     C_R   0.263892 0.357692 0.836368 0.538568
C82   C     C_R   0.236880 0.861123 0.164742 0.552113
C83   C     C_R   0.763847 0.857860 0.836305 0.543199
C84   C     C_1   0.487571 0.174663 0.595390 -0.011994
C85   C     C_1   0.515918 0.174043 0.406296 -0.029739
C86   C     C_1   0.987568 0.674662 0.595389 -0.010545
C87   C     C_1   0.015919 0.674042 0.406296 -0.028468
C88   C     C_1   0.506653 0.172456 0.465879 -0.088165
C89   C     C_3   0.808946 0.477267 0.525552 -0.013780
C90   C     C_1   0.498679 0.173091 0.536331 -0.077135
C91   C     C_1   0.006653 0.672455 0.465879 -0.088095
C92   C     C_1   0.998677 0.673089 0.536330 -0.076983
C93   C     C_3   0.680587 0.443323 0.540197 -0.263240
C94   C     C_3   0.308678 0.474815 0.466037 -0.265223
C95   C     C_3   0.180589 0.943333 0.540193 -0.263666
C96   C     C_3   0.808676 0.974817 0.466038 -0.265285
Cr1   Cr    Cr6+3 0.765780 0.160710 0.267420 1.008853
Cr2   Cr    Cr6+3 0.383970 0.323720 0.751490 1.008063
Cr3   Cr    Cr6+3 0.116030 0.823720 0.248510 1.014208
Cr4   Cr    Cr6+3 0.883970 0.823720 0.751490 1.012463
Cr5   Cr    Cr6+3 0.234220 0.160710 0.732580 1.013850
Cr6   Cr    Cr6+3 0.265780 0.660710 0.267420 1.012316
Cr7   Cr    Cr6+3 0.734220 0.660710 0.732580 1.014674
Cr8   Cr    Cr6+3 0.612200 0.009560 0.248850 1.024601
Cr9   Cr    Cr6+3 0.387800 0.009560 0.751150 1.025789
Cr10  Cr    Cr6+3 0.112200 0.509560 0.248850 1.030523
Cr11  Cr    Cr6+3 0.887800 0.509560 0.751150 1.030197
Cr12  Cr    Cr6+3 0.616030 0.323720 0.248510 1.014862
H1    H     H_    0.669513 0.540168 0.541906 0.119164
H2    H     H_    0.142658 0.411763 0.568033 0.143193
H3    H     H_    0.333209 0.942803 0.421574 0.150507
H4    H     H_    0.642657 0.911758 0.568032 0.143014
H5    H     H_    0.553973 0.324661 0.933390 0.142691
H6    H     H_    0.621199 0.181801 0.045203 0.106278
H7    H     H_    0.877065 0.691616 0.954505 0.119666
H8    H     H_    0.945839 0.829112 0.065902 0.141840
H9    H     H_    0.595740 0.181465 0.929336 0.117470
H10   H     H_    0.579590 0.325650 0.047870 0.146535
H11   H     H_    0.921431 0.831059 0.951174 0.150902
H12   H     H_    0.320745 0.562430 0.446698 0.134826
H13   H     H_    0.903143 0.687929 0.070694 0.121081
H14   H     H_    0.422590 0.334641 0.950906 0.152322
H15   H     H_    0.553455 0.989215 0.054531 0.150998
H16   H     H_    0.942383 0.492891 0.948202 0.149556
H17   H     H_    0.076838 0.832233 0.047327 0.149216
H18   H     H_    0.448106 0.333878 0.065532 0.143254
H19   H     H_    0.528142 0.989171 0.938610 0.130514
H20   H     H_    0.969705 0.491949 0.064037 0.131306
H21   H     H_    0.052951 0.828607 0.932546 0.144189
H22   H     H_    0.437495 0.995260 0.948408 0.140763
H23   H     H_    0.169516 0.040178 0.541905 0.118905
H24   H     H_    0.401851 0.196462 0.071281 0.118250
H25   H     H_    0.097210 0.687504 0.929371 0.119566
H26   H     H_    0.060166 0.493700 0.053013 0.150245
H27   H     H_    0.462829 0.995808 0.064582 0.128727
H28   H     H_    0.375965 0.197693 0.955008 0.107197
H29   H     H_    0.123148 0.693226 0.045520 0.119103
H30   H     H_    0.032877 0.491714 0.937219 0.128287
H31   H     H_    0.644298 0.399134 0.572057 0.124539
H32   H     H_    0.352151 0.420632 0.449726 0.121958
H33   H     H_    0.144299 0.899142 0.572049 0.126117
H34   H     H_    0.820746 0.062431 0.446698 0.134749
H35   H     H_    0.852149 0.920632 0.449726 0.122270
H36   H     H_    0.628800 0.324486 0.462782 0.128789
H37   H     H_    0.365682 0.432025 0.564637 0.152427
H38   H     H_    0.128798 0.824511 0.462773 0.128736
H39   H     H_    0.865680 0.932026 0.564637 0.152447
H40   H     H_    0.641706 0.473740 0.432703 0.142311
H41   H     H_    0.311775 0.559634 0.566884 0.114814
H42   H     H_    0.141715 0.973766 0.432698 0.142184
H43   H     H_    0.811774 0.059635 0.566885 0.114413
H44   H     H_    0.306129 0.069692 0.536740 0.131557
H45   H     H_    0.817960 0.236601 0.474861 0.128283
H46   H     H_    0.656532 0.056025 0.451492 0.125536
H47   H     H_    0.806117 0.569692 0.536738 0.131813
H48   H     H_    0.156531 0.556014 0.451488 0.125341
H49   H     H_    0.262390 0.043230 0.425372 0.100478
H50   H     H_    0.687179 0.048475 0.567404 0.083979
H51   H     H_    0.762381 0.543223 0.425374 0.102141
H52   H     H_    0.187183 0.548476 0.567399 0.084721
H53   H     H_    0.815950 0.248450 0.590503 0.143453
H54   H     H_    0.200969 0.235511 0.424511 0.144742
H55   H     H_    0.315951 0.748452 0.590495 0.144092
H56   H     H_    0.222160 0.207005 0.541391 0.132238
H57   H     H_    0.700968 0.735514 0.424510 0.145348
H58   H     H_    0.724104 0.232612 0.585156 0.099031
H59   H     H_    0.291301 0.250972 0.422761 0.095880
H60   H     H_    0.224103 0.732616 0.585151 0.101115
H61   H     H_    0.791299 0.750976 0.422763 0.097308
H62   H     H_    0.733570 0.173548 0.474330 0.098111
H63   H     H_    0.313576 0.244679 0.538455 0.114360
H64   H     H_    0.233562 0.673556 0.474325 0.098060
H65   H     H_    0.813570 0.744679 0.538456 0.114277
H66   H     H_    0.912417 0.494451 0.516749 0.222714
H67   H     H_    0.317955 0.736598 0.474856 0.128452
H68   H     H_    0.891309 0.354174 0.531221 0.226124
H69   H     H_    0.065559 0.436621 0.457341 0.226932
H70   H     H_    0.110826 0.309366 0.470057 0.220386
H71   H     H_    0.412426 0.994460 0.516773 0.222851
H72   H     H_    0.391313 0.854175 0.531189 0.226129
H73   H     H_    0.565562 0.936615 0.457370 0.226828
H74   H     H_    0.610828 0.809374 0.470028 0.220383
H75   H     H_    0.722153 0.707011 0.541390 0.132498
H76   H     H_    0.833204 0.442801 0.421577 0.152175
N1    N     N_3   0.881714 0.442012 0.544959 -0.597625
N2    N     N_3   0.109517 0.391721 0.444420 -0.592112
N3    N     N_3   0.381717 0.941994 0.544958 -0.598255
N4    N     N_3   0.609510 0.891746 0.444419 -0.592236
O1    O     O_R   0.783100 0.287550 0.345460 -0.522610
O2    O     O_R   0.454350 0.284910 0.836260 -0.523621
O3    O     O_R   0.045650 0.784910 0.163740 -0.523333
O4    O     O_R   0.954350 0.784910 0.836260 -0.524112
O5    O     O_R   0.677950 0.374280 0.185410 -0.483777
O6    O     O_R   0.322050 0.374280 0.814590 -0.498984
O7    O     O_R   0.177950 0.874280 0.185410 -0.494682
O8    O     O_R   0.822050 0.874280 0.814590 -0.499494
O9    O     O_3   0.664670 0.164660 0.254930 -0.297862
O10   O     O_3   0.335330 0.164660 0.745070 -0.278492
O11   O     O_3   0.164670 0.664660 0.254930 -0.278232
O12   O     O_R   0.216900 0.287550 0.654540 -0.531776
O13   O     O_3   0.835330 0.664660 0.745070 -0.258716
O14   O     O_R   0.760020 0.037400 0.337700 -0.537188
O15   O     O_R   0.239980 0.037400 0.662300 -0.519690
O16   O     O_R   0.260020 0.537400 0.337700 -0.538068
O17   O     O_R   0.739980 0.537400 0.662300 -0.524551
O18   O     O_R   0.666600 0.921990 0.332020 -0.470344
O19   O     O_R   0.333400 0.921990 0.667980 -0.480182
O20   O     O_R   0.166600 0.421990 0.332020 -0.472627
O21   O     O_R   0.833400 0.421990 0.667980 -0.484514
O22   O     O_R   0.557260 0.082670 0.312540 -0.482072
O23   O     O_R   0.283100 0.787550 0.345460 -0.528863
O24   O     O_R   0.442740 0.082670 0.687460 -0.474552
O25   O     O_R   0.057260 0.582670 0.312540 -0.482705
O26   O     O_R   0.942740 0.582670 0.687460 -0.475317
O27   O     O_R   0.548410 0.285740 0.316480 -0.519590
O28   O     O_R   0.451590 0.285740 0.683520 -0.517358
O29   O     O_R   0.048410 0.785740 0.316480 -0.519623
O30   O     O_R   0.951590 0.785740 0.683520 -0.517974
O31   O     O_R   0.680500 0.375040 0.327000 -0.493324
O32   O     O_R   0.319500 0.375040 0.673000 -0.502661
O33   O     O_R   0.180500 0.875040 0.327000 -0.500942
O34   O     O_R   0.716900 0.787550 0.654540 -0.532550
O35   O     O_R   0.819500 0.875040 0.673000 -0.505276
O36   O     O_R   0.780350 0.286720 0.192720 -0.493887
O37   O     O_R   0.219650 0.286720 0.807280 -0.513840
O38   O     O_R   0.280350 0.786720 0.192720 -0.502758
O39   O     O_R   0.719650 0.786720 0.807280 -0.507180
O40   O     O_R   0.757470 0.036630 0.196110 -0.511174
O41   O     O_R   0.242530 0.036630 0.803890 -0.491036
O42   O     O_R   0.257470 0.536630 0.196110 -0.495493
O43   O     O_R   0.742530 0.536630 0.803890 -0.496806
O44   O     O_R   0.663840 0.921160 0.179280 -0.509991
O45   O     O_R   0.554710 0.081900 0.170950 -0.509590
O46   O     O_R   0.336160 0.921160 0.820720 -0.510220
O47   O     O_R   0.163840 0.421160 0.179280 -0.513860
O48   O     O_R   0.836160 0.421160 0.820720 -0.517324
O49   O     O_R   0.445290 0.081900 0.829050 -0.526696
O50   O     O_R   0.054710 0.581900 0.170950 -0.507139
O51   O     O_R   0.945290 0.581900 0.829050 -0.511045
O52   O     O_R   0.545650 0.284910 0.163740 -0.529978

loop_
_geom_bond_atom_site_label_1
_geom_bond_atom_site_label_2
_ccdc_geom_bond_type
C40   C85   S    
C4    H46   S    
Cr11  O48   S    
Cr3   O33   S    
C21   H50   S    
C8    C13   S    
C53   C58   S    
C87   C91   T    
C23   O20   A    
C45   H40   S    
C94   H32   S    
C71   O40   A    
C14   C18   S    
C3    C11   S    
C47   C79   S    
Cr1   O14   S    
Cr2   O2    S    
C42   O29   A    
C45   C93   S    
C80   O36   A    
C2    N2    S    
Cr5   O12   S    
H68   N1    S    
C30   H8    S    
C56   C94   S    
C80   O5    A    
C82   O38   A    
C28   C46   S    
C3    H44   S    
C33   C39   S    
Cr9   O24   S    
C81   O37   A    
C63   C81   S    
C19   H52   S    
C32   C36   S    
Cr3   O7    S    
C30   C48   S    
H72   N3    S    
Cr11  O13   S    
Cr2   O32   S    
C52   C61   T    
Cr7   O34   S    
Cr10  O20   S    
Cr6   O23   S    
Cr8   O44   S    
H71   N3    S    
C54   C63   T    
C10   C94   S    
Cr7   O39   S    
C66   O1    A    
C40   O22   A    
C36   H22   S    
Cr6   O38   S    
C8    C26   S    
Cr2   O6    S    
C44   C76   S    
Cr8   O9    S    
C38   H25   S    
C56   H37   S    
C35   H17   S    
C24   H63   S    
Cr6   O16   S    
C79   O51   A    
C46   C75   S    
Cr12  O9    S    
C18   H51   S    
C81   O6    A    
Cr12  O31   S    
C94   H12   S    
C27   C44   S    
C5    C22   S    
Cr3   O29   S    
C78   C96   S    
C77   O50   A    
C45   H36   S    
C71   O44   A    
C69   O23   A    
Cr8   O18   S    
C35   C48   S    
C26   H75   S    
Cr1   O1    S    
C29   H7    S    
Cr4   O30   S    
C17   C70   S    
C55   C60   S    
C67   H42   S    
C67   C95   S    
C41   O24   A    
C32   H15   S    
C75   O52   A    
C24   H56   S    
C84   C90   T    
Cr9   O10   S    
C1    O14   A    
C73   O42   A    
H73   N4    S    
C78   H43   S    
Cr9   O19   S    
C14   C45   S    
C54   C59   S    
Cr4   O8    S    
C34   O17   A    
Cr7   O43   S    
C72   O41   A    
Cr2   O10   S    
C13   C96   S    
C77   O3    A    
C38   H21   S    
C6    H54   S    
Cr4   O4    S    
C35   C38   S    
C76   O2    A    
Cr5   O15   S    
C50   C73   S    
C9    C89   S    
C91   C92   S    
C41   O28   A    
Cr5   O10   S    
C74   O43   A    
C83   O39   A    
C18   C89   S    
Cr4   O35   S    
C2    C19   S    
C41   C84   S    
C7    H55   S    
C95   H23   S    
C17   C21   S    
H69   N2    S    
C31   C37   S    
Cr10  O47   S    
C76   O49   A    
C7    H60   S    
C5    H53   S    
C48   C77   S    
C15   C19   S    
Cr7   O13   S    
C5    C9    S    
C29   C30   S    
C93   H31   S    
C34   O21   A    
Cr1   O9    S    
C33   H16   S    
C20   H3    S    
C29   H11   S    
Cr4   O13   S    
C25   H67   S    
C7    C11   S    
C30   H13   S    
C18   H76   S    
C33   H30   S    
C16   C20   S    
C6    C24   S    
C55   C64   T    
C67   H38   S    
C70   O35   A    
C14   C66   S    
C3    C20   S    
C16   C67   S    
H74   N4    S    
C5    H58   S    
C1    O18   A    
C64   C82   S    
C38   C47   S    
C22   H62   S    
C28   H6    S    
C78   H39   S    
C27   H5    S    
C25   H64   S    
C15   C24   S    
C29   C47   S    
C95   H33   S    
C79   O4    A    
C12   O15   A    
Cr8   O22   S    
C33   C47   S    
C36   C44   S    
C43   O30   A    
C1    C13   S    
C51   C72   S    
C17   C26   S    
C74   O48   A    
C2    C10   S    
C9    C93   S    
C21   H4    S    
C8    H61   S    
C85   C88   T    
Cr6   O42   S    
C37   H18   S    
C27   H9    S    
C62   C80   S    
C16   C25   S    
C56   H41   S    
Cr10  O25   S    
Cr2   O28   S    
C6    H59   S    
Cr8   O45   S    
C2    H48   S    
C39   H20   S    
C68   O32   A    
C12   O19   A    
C83   O8    A    
C43   C86   S    
C32   C46   S    
C16   C69   S    
Cr7   O17   S    
C31   H14   S    
C88   C90   S    
C31   H28   S    
C3    N3    S    
C6    C10   S    
C32   H27   S    
Cr5   O41   S    
C11   C12   S    
Cr1   O36   S    
Cr9   O46   S    
C57   C61   S    
Cr11  O21   S    
C36   H19   S    
Cr12  O52   S    
C10   C23   S    
C82   O7    A    
C7    C25   S    
C37   H24   S    
C19   H2    S    
C23   O16   A    
C68   O12   A    
C89   N1    S    
C15   C56   S    
C4    N4    S    
C51   C60   T    
C50   C59   T    
C37   C46   S    
H66   N1    S    
C42   O25   A    
C28   H10   S    
Cr6   O11   S    
C35   H29   S    
C96   H35   S    
Cr3   O3    S    
C4    C21   S    
C14   C22   S    
C9    C34   S    
Cr11  O26   S    
Cr11  O51   S    
C20   H49   S    
C15   C68   S    
C40   O27   A    
C17   C78   S    
C70   O34   A    
C66   O31   A    
C72   O46   A    
C31   C44   S    
C75   O45   A    
C69   O33   A    
C73   O47   A    
Cr12  O27   S    
C89   H47   S    
C8    H57   S    
C49   C58   T    
C96   H34   S    
H70   N2    S    
Cr1   O40   S    
C11   C95   S    
C53   C62   T    
Cr10  O50   S    
Cr3   O11   S    
C27   C28   S    
C52   C71   S    
Cr9   O49   S    
C49   C74   S    
Cr10  O11   S    
Cr5   O37   S    
C86   C92   T    
C42   C87   S    
Cr12  O5    S    
C26   H65   S    
C43   O26   A    
C39   H26   S    
C65   C83   S    
C4    C13   S    
C93   H1    S    
C39   C48   S    
C57   C65   T    
C22   H45   S    
