data_mof_unit_6174.cif
_audit_creation_date              2012-12-10T20:45:34-0500
_audit_creation_method            fapswitch 2.2
_symmetry_space_group_name_H-M    P1
_symmetry_Int_Tables_number       1
_space_group_crystal_system       triclinic
_cell_length_a                    10.780979
_cell_length_b                    10.68645
_cell_length_c                    9.922668
_cell_angle_alpha                 89.241036
_cell_angle_beta                  90.293886
_cell_angle_gamma                 91.503078
_cell_volume                      1142.68779024

loop_
_atom_site_label
_atom_site_type_symbol
_atom_type_description
_atom_site_fract_x
_atom_site_fract_y
_atom_site_fract_z
_atom_type_partial_charge
C1    C     C_R   0.496923 0.260437 0.500940 1.018421
C2    C     C_R   0.821880 0.532829 0.978311 -0.141560
C3    C     C_R   0.793616 0.408788 0.015790 -0.146672
C4    C     C_R   0.260574 0.507452 0.498592 0.967198
C5    C     C_R   0.809605 0.312521 0.923940 -0.128847
C6    C     C_R   0.855469 0.339918 0.795026 -0.082482
C7    C     C_R   0.885272 0.464140 0.757545 0.094719
C8    C     C_R   0.396129 0.057152 0.522830 0.005790
C9    C     C_R   0.504030 0.128549 0.501430 -0.233178
C10   C     C_R   0.615507 0.072730 0.464053 0.345040
C11   C     C_R   0.618949 0.941253 0.455587 0.385670
C12   C     C_R   0.194343 0.594079 0.971030 -0.179369
C13   C     C_R   0.512188 0.871413 0.498004 -0.266187
C14   C     C_R   0.403224 0.930051 0.530131 0.014273
C15   C     C_3   0.321804 0.920882 0.652574 0.582892
C16   C     C_R   0.507280 0.739275 0.499471 1.045982
C17   C     C_3   0.303587 0.061304 0.634271 0.195982
C18   C     C_R   0.487062 0.389878 0.072292 0.122423
C19   C     C_R   0.525645 0.606411 0.070418 -0.116705
C20   C     C_R   0.526986 0.605976 0.927026 -0.068614
C21   C     C_R   0.488178 0.391138 0.929982 0.125333
C22   C     C_3   0.385564 0.299200 0.916893 -0.537956
C23   C     C_R   0.932703 0.534222 0.381939 -0.172607
C24   C     C_3   0.376206 0.301008 0.069026 0.207304
C25   C     C_R   0.739912 0.500633 0.501032 0.970160
C26   C     C_R   0.220896 0.685191 0.066844 -0.113361
C27   C     C_R   0.180208 0.668776 0.199673 0.433020
C28   C     C_R   0.114246 0.558364 0.238417 0.028989
C29   C     C_R   0.086884 0.468130 0.140272 -0.196703
C30   C     C_R   0.126021 0.486348 0.007441 -0.197389
C31   C     C_R   0.872661 0.507839 0.503597 -0.055973
C32   C     C_R   0.940574 0.492739 0.624232 -0.004405
C33   C     C_R   0.067444 0.500113 0.618483 -0.124983
C34   C     C_R   0.128209 0.518916 0.495813 0.007828
C35   C     C_R   0.060306 0.539802 0.375250 0.043054
C36   C     C_R   0.867729 0.560656 0.849537 -0.082298
Cl1   Cl    Cl    0.749749 0.169748 0.439938 -0.553806
Cl2   Cl    Cl    0.189139 0.818085 0.637075 -0.499030
Cl3   Cl    Cl    0.406528 0.888445 0.803246 -0.644214
Cl4   Cl    Cl    0.209091 0.790878 0.311563 -0.487064
H1    H     H_    0.226764 0.607499 0.868800 0.209553
H2    H     H_    0.424195 0.212423 0.877403 0.234382
H3    H     H_    0.291936 0.343801 0.107662 0.132049
H4    H     H_    0.034647 0.383418 0.166688 0.187481
H5    H     H_    0.104786 0.415219 0.933848 0.169953
H6    H     H_    0.880160 0.549307 0.289963 0.183730
H7    H     H_    0.118832 0.483362 0.710347 0.150073
H8    H     H_    0.891090 0.656796 0.822024 0.185133
H9    H     H_    0.809482 0.607277 0.049487 0.174188
H10   H     H_    0.909021 0.787352 0.523910 0.418304
H11   H     H_    0.062394 0.090176 0.381113 0.414806
H12   H     H_    0.759391 0.387274 0.116024 0.179103
H13   H     H_    0.588736 0.124868 0.084269 0.355663
H14   H     H_    0.787287 0.216627 0.952970 0.169651
H15   H     H_    0.868932 0.264670 0.724992 0.207843
H16   H     H_    0.336023 0.118031 0.719181 0.092790
H17   H     H_    0.544679 0.693008 0.122555 0.212168
H18   H     H_    0.272255 0.769449 0.037506 0.238050
H19   H     H_    0.550432 0.691228 0.872748 0.215631
H20   H     H_    0.303898 0.336286 0.862363 0.199691
N1    N     N_R   0.499160 0.499140 0.142800 -0.142127
N2    N     N_R   0.499160 0.499180 0.857150 -0.106012
O1    O     O_R   0.500020 0.316790 0.614690 -0.646498
O2    O     O_2   0.848830 0.951113 0.339054 -0.194831
O3    O     O_3   0.822942 0.806263 0.549704 -0.557698
O4    O     O_2   0.058930 0.083439 0.681873 -0.225391
O5    O     O_2   0.161605 0.245821 0.543304 -0.376139
O6    O     O_3   0.113101 0.031020 0.434060 -0.379747
O7    O     O_2   0.324022 0.141205 0.268645 -0.230527
O8    O     O_2   0.348999 0.049404 0.048689 -0.226232
O9    O     O_3   0.548787 0.126079 0.173879 -0.517294
O10   O     O_R   0.500000 0.316760 0.385350 -0.543386
O11   O     O_R   0.316770 0.500030 0.614670 -0.629857
O12   O     O_R   0.316750 0.499990 0.385330 -0.635248
O13   O     O_R   0.500000 0.683240 0.614650 -0.604246
O14   O     O_R   0.499980 0.683210 0.385310 -0.585472
O15   O     O_R   0.683250 0.500010 0.614670 -0.620843
O16   O     O_R   0.683230 0.499970 0.385330 -0.608270
O17   O     O_2   0.727250 0.758699 0.314938 -0.343340
S1    S     S_3+6 0.757370 0.864250 0.408822 0.073179
S2    S     S_3+6 0.154438 0.108278 0.574384 0.106353
S3    S     S_3+6 0.397945 0.149312 0.141391 0.072513
Zn1   Zn    Zn3+2 0.500010 0.500020 0.653130 0.995378
Zn2   Zn    Zn3+2 0.499990 0.499980 0.346870 1.034819

loop_
_geom_bond_atom_site_label_1
_geom_bond_atom_site_label_2
_ccdc_geom_bond_type
C25   C31   S    
N2    Zn1   S    
C18   C21   A    
C7    C36   A    
C30   H5    S    
C19   C20   A    
C6    H15   S    
O14   Zn2   S    
C19   H17   S    
C26   C27   A    
C29   C30   A    
C10   Cl1   S    
C25   O15   A    
O6    S2    S    
C28   C29   A    
C22   H20   S    
C5    C6    A    
O15   Zn1   S    
C16   O13   A    
C34   C35   A    
C24   S3    S    
O7    S3    D    
C28   C35   S    
C8    C9    A    
C18   C24   S    
C9    C10   A    
C4    O12   A    
O9    S3    S    
O3    S1    S    
C13   C14   A    
O2    S1    D    
C1    O1    A    
C4    C34   S    
C1    O10   A    
C25   O16   A    
C5    H14   S    
C1    C9    S    
C11   S1    S    
O1    Zn1   S    
C23   C31   A    
C15   Cl2   S    
C12   H1    S    
C2    H9    S    
C31   C32   A    
C27   Cl4   S    
C33   C34   A    
C21   N2    A    
C20   H19   S    
C26   H18   S    
C17   H16   S    
C15   Cl3   S    
C4    O11   A    
O10   Zn2   S    
O5    S2    D    
C23   C35   A    
C29   H4    S    
C33   H7    S    
C22   C24   S    
H13   O9    S    
C2    C36   A    
C15   C17   S    
C8    C14   A    
C7    C32   S    
C12   C30   A    
C16   O14   A    
O12   Zn2   S    
C3    C5    A    
N1    Zn2   S    
C3    H12   S    
C18   N1    A    
C6    C7    A    
C8    C17   S    
C32   C33   A    
C2    C3    A    
O4    S2    D    
C11   C13   A    
O13   Zn1   S    
C22   H2    S    
C19   N1    A    
C36   H8    S    
C17   S2    S    
H11   O6    S    
C20   N2    A    
O8    S3    D    
H10   O3    S    
C10   C11   A    
O17   S1    D    
O16   Zn2   S    
C13   C16   S    
C12   C26   A    
C27   C28   A    
C23   H6    S    
C24   H3    S    
C14   C15   S    
C21   C22   S    
O11   Zn1   S    
