data_mof_unit_28555.cif
_audit_creation_date              2012-10-26T19:04:40-0400
_audit_creation_method            fapswitch 2.2
_symmetry_space_group_name_H-M    P1
_symmetry_Int_Tables_number       1
_space_group_crystal_system       triclinic
_cell_length_a                    9.615698
_cell_length_b                    10.770524
_cell_length_c                    13.44281
_cell_angle_alpha                 92.378477
_cell_angle_beta                  73.035114
_cell_angle_gamma                 90.126589
_cell_volume                      1330.4167188

loop_
_atom_site_label
_atom_site_type_symbol
_atom_type_description
_atom_site_fract_x
_atom_site_fract_y
_atom_site_fract_z
_atom_type_partial_charge
C1    C     C_R   0.498591 0.737360 0.503706 0.546856
C2    C     C_R   0.384908 0.450904 0.808850 0.000437
C3    C     C_R   0.285118 0.878677 0.669852 -0.120868
C4    C     C_R   0.423977 0.485306 0.698334 0.538033
C5    C     C_R   0.180549 0.946832 0.747710 0.062481
C6    C     C_R   0.181094 0.076668 0.746331 -0.125175
C7    C     C_R   0.283765 0.137506 0.668848 -0.134934
C8    C     C_R   0.387939 0.069902 0.589050 0.025798
C9    C     C_R   0.388422 0.938768 0.589455 -0.001304
C10   C     C_R   0.495924 0.871578 0.511142 0.006457
C11   C     C_R   0.604274 0.932922 0.437800 -0.141825
C12   C     C_R   0.446923 0.436376 0.972798 0.036464
C13   C     C_R   0.604022 0.060929 0.437586 -0.148616
C14   C     C_R   0.495322 0.129455 0.510642 0.014016
C15   C     C_R   0.912260 0.336683 0.360625 -0.089754
C16   C     C_R   0.498493 0.262927 0.503310 0.520395
C17   C     C_R   0.011595 0.256320 0.292657 -0.176091
C18   C     C_R   0.154539 0.254972 0.293474 -0.177963
C19   C     C_R   0.199267 0.334490 0.361813 -0.090615
C20   C     C_R   0.102163 0.419005 0.431922 0.159132
C21   C     C_R   0.952829 0.419546 0.431626 0.157176
C22   C     C_R   0.899725 0.576295 0.565350 -0.007004
C23   C     C_R   0.491953 0.436356 0.862519 0.030708
C24   C     C_R   0.047533 0.576369 0.565248 -0.003288
C25   C     C_R   0.577666 0.499610 0.300318 0.537345
C26   C     C_R   0.806504 0.491333 0.020529 -0.124238
C27   C     C_R   0.621680 0.492378 0.186455 -0.003173
C28   C     C_R   0.238106 0.433324 0.862981 -0.123171
C29   C     C_R   0.197322 0.409330 0.968415 -0.131430
C30   C     C_R   0.298465 0.416371 0.023936 -0.113889
C31   C     C_2   0.071881 0.882753 0.831258 0.569208
C32   C     C_R   0.552896 0.454864 0.026900 0.030978
C33   C     C_R   0.701843 0.462463 0.969901 0.057194
C34   C     C_R   0.745336 0.438051 0.863056 -0.132886
C35   C     C_R   0.642118 0.419712 0.810803 -0.116678
C36   C     C_R   0.515316 0.471335 0.135488 -0.135493
C37   C     C_R   0.767410 0.504202 0.128470 -0.139637
Cu1   Cu    Cu3+1 0.359340 0.500010 0.500010 0.922393
Cu2   Cu    Cu3+1 0.640660 0.499990 0.499990 0.918080
H1    H     H_    0.850773 0.523581 0.166315 0.135715
H2    H     H_    0.311224 0.325372 0.355873 0.183865
H3    H     H_    0.859709 0.432276 0.819656 0.110372
H4    H     H_    0.080908 0.639060 0.618778 0.143138
H5    H     H_    0.918152 0.505034 0.975870 0.126221
H6    H     H_    0.403467 0.469488 0.182045 0.124854
H7    H     H_    0.154874 0.435915 0.823457 0.129984
H8    H     H_    0.257785 0.401440 0.106060 0.110522
H9    H     H_    0.086078 0.387592 0.008802 0.115043
H10   H     H_    0.683758 0.387838 0.730560 0.163337
H11   H     H_    0.687561 0.881179 0.378807 0.131869
H12   H     H_    0.286751 0.778735 0.674098 0.162093
H13   H     H_    0.901702 0.898025 0.961479 0.342348
H14   H     H_    0.102990 0.131911 0.806063 0.156525
H15   H     H_    0.281643 0.237839 0.673630 0.141288
H16   H     H_    0.687223 0.106784 0.378480 0.113383
H17   H     H_    0.823021 0.638872 0.619029 0.135370
H18   H     H_    0.805248 0.329432 0.354147 0.180787
H19   H     H_    0.976989 0.194275 0.239169 0.127372
H20   H     H_    0.231830 0.191967 0.240514 0.129248
N1    N     N_R   0.852480 0.498790 0.499000 -0.251165
N2    N     N_R   0.148360 0.498710 0.498970 -0.247489
O1    O     O_R   0.381190 0.680360 0.500010 -0.497217
O2    O     O_R   0.969700 0.952192 0.909046 -0.709720
O3    O     O_R   0.618760 0.680340 0.500000 -0.491121
O4    O     O_R   0.323240 0.499990 0.650990 -0.506476
O5    O     O_R   0.560820 0.499960 0.650980 -0.513848
O6    O     O_R   0.381240 0.319660 0.500000 -0.527942
O7    O     O_R   0.618810 0.319640 0.499990 -0.523048
O8    O     O_R   0.439180 0.500040 0.349020 -0.519972
O9    O     O_R   0.676760 0.500010 0.349010 -0.520974
O10   O     O_2   0.071009 0.769198 0.832464 -0.549482

loop_
_geom_bond_atom_site_label_1
_geom_bond_atom_site_label_2
_ccdc_geom_bond_type
C35   H10   S    
C2    C4    S    
C26   C37   A    
C6    C7    A    
C3    C9    A    
C27   C36   A    
C25   C27   S    
C29   H9    S    
C11   C13   A    
Cu2   O7    S    
C18   H20   S    
C26   C33   A    
C19   C20   A    
C34   H3    S    
Cu1   O4    S    
C15   C21   A    
C17   H19   S    
C3    C5    A    
Cu1   N2    S    
C13   H16   S    
C32   C33   A    
C31   O10   D    
C33   C34   A    
Cu1   O8    S    
C26   H5    S    
C36   H6    S    
C11   H11   S    
C13   C14   A    
C12   C32   A    
C2    C28   A    
C4    O5    A    
Cu2   O3    S    
C15   H18   S    
C12   C23   A    
C28   H7    S    
C21   N1    A    
C29   C30   A    
C27   C37   A    
C24   N2    A    
C16   O7    A    
Cu2   N1    S    
C32   C36   A    
C22   C24   A    
C28   C29   A    
Cu2   O9    S    
C17   C18   A    
C37   H1    S    
C23   C35   A    
C22   N1    A    
C5    C6    A    
Cu2   O5    S    
C14   C16   S    
C25   O8    A    
C10   C11   A    
C6    H14   S    
C16   O6    A    
C20   N2    A    
Cu1   O6    S    
C1    O3    A    
C31   O2    S    
C30   H8    S    
C7    C8    A    
Cu1   Cu2   S    
C20   C21   A    
C1    O1    A    
C34   C35   A    
C9    C10   A    
C2    C23   A    
C15   C17   A    
C24   H4    S    
C3    H12   S    
C4    O4    A    
C18   C19   A    
C22   H17   S    
C25   O9    A    
C8    C14   A    
C7    H15   S    
C12   C30   A    
C1    C10   S    
C19   H2    S    
Cu1   O1    S    
C8    C9    A    
C5    C31   S    
H13   O2    S    
