data_mof_unit_32080.cif
_audit_creation_date              2012-12-11T15:39:02-0500
_audit_creation_method            fapswitch 2.2
_symmetry_space_group_name_H-M    P1
_symmetry_Int_Tables_number       1
_space_group_crystal_system       triclinic
_cell_length_a                    14.302348
_cell_length_b                    14.808179
_cell_length_c                    33.301085
_cell_angle_alpha                 97.965859
_cell_angle_beta                  90.191357
_cell_angle_gamma                 118.929558
_cell_volume                      6093.05285868

loop_
_atom_site_label
_atom_site_type_symbol
_atom_type_description
_atom_site_fract_x
_atom_site_fract_y
_atom_site_fract_z
_atom_type_partial_charge
C1    C     C_R   0.617506 0.909571 0.437083 0.556816
C2    C     C_R   0.743687 0.448910 0.191525 0.069365
C3    C     C_R   0.726109 0.894389 0.654150 -0.112704
C4    C     C_R   0.637143 0.811129 0.666581 0.014866
C5    C     C_R   0.628898 0.863386 0.588749 -0.015851
C6    C     C_R   0.052539 0.781508 0.063919 0.559683
C7    C     C_R   0.745251 0.490132 0.066947 0.576741
C8    C     C_R   0.742251 0.789231 0.066417 0.555423
C9    C     C_R   0.022026 0.731970 0.947634 0.545411
C10   C     C_R   0.711883 0.436788 0.949359 0.564873
C11   C     C_R   0.710017 0.740093 0.950524 0.540908
C12   C     C_R   0.798997 0.411894 0.165267 0.083328
C13   C     C_R   0.803558 0.426689 0.124082 0.249436
C14   C     C_R   0.638649 0.358927 0.245692 -0.127712
C15   C     C_R   0.627101 0.343785 0.285869 -0.171494
C16   C     C_R   0.713133 0.403119 0.315300 0.044729
C17   C     C_R   0.812578 0.478524 0.304383 0.111499
C18   C     C_R   0.824312 0.494402 0.263359 0.144854
C19   C     C_R   0.736697 0.433332 0.234207 0.131572
C20   C     C_R   0.633935 0.393367 0.382726 0.100888
C21   C     C_R   0.594034 0.204949 0.456292 0.587713
C22   C     C_R   0.603144 0.342366 0.416960 0.095306
C23   C     C_R   0.709623 0.256840 0.398022 0.044386
C24   C     C_R   0.740433 0.308865 0.364597 -0.125660
C25   C     C_R   0.700139 0.373415 0.355940 0.036342
C26   C     C_R   0.637791 0.270651 0.424022 0.059972
C27   C     C_R   0.242773 0.877856 0.393510 0.016834
C28   C     C_R   0.237019 0.962855 0.381495 -0.146886
C29   C     C_R   0.213256 0.963176 0.340647 0.267934
C30   C     C_R   0.189935 0.875563 0.311612 0.025452
C31   C     C_R   0.186206 0.787145 0.323647 -0.172512
C32   C     C_R   0.295276 0.892552 0.434355 0.566962
C33   C     C_R   0.212457 0.787375 0.364326 0.087131
C34   C     C_R   0.169096 0.789912 0.166017 -0.153674
C35   C     C_R   0.144842 0.768583 0.124249 -0.173944
C36   C     C_R   0.119839 0.920242 0.127403 0.125029
C37   C     C_R   0.144431 0.942234 0.170139 0.127204
C38   C     C_R   0.163687 0.872667 0.189415 0.033582
C39   C     C_1   0.172449 0.879092 0.232932 -0.020600
C40   C     C_1   0.178908 0.878705 0.268959 0.008813
C41   C     C_R   0.112366 0.828454 0.104733 0.034707
C42   C     C_R   0.641198 0.876154 0.396008 0.041834
C43   C     C_R   0.613154 0.905002 0.552186 0.537393
C44   C     C_R   0.563651 0.786546 0.369532 0.096703
C45   C     C_R   0.578827 0.775359 0.327770 -0.090968
C46   C     C_R   0.670590 0.850225 0.312697 0.018769
C47   C     C_R   0.751860 0.932060 0.339376 -0.129831
C48   C     C_R   0.737800 0.944441 0.380715 -0.158175
C49   C     C_R   0.779716 0.919606 0.174862 -0.124094
C50   C     C_R   0.791448 0.907506 0.133158 -0.169020
C51   C     C_R   0.616371 0.751218 0.122323 0.246815
C52   C     C_R   0.606183 0.763415 0.164287 -0.091345
C53   C     C_R   0.689077 0.845004 0.190549 0.003877
C54   C     C_R   0.589816 0.199481 0.570956 0.567965
C55   C     C_1   0.683465 0.847554 0.233637 -0.008726
C56   C     C_1   0.678079 0.847900 0.269677 -0.017427
C57   C     C_R   0.713602 0.819600 0.106851 0.021910
C58   C     C_R   0.621654 0.245776 0.614418 0.007871
C59   C     C_R   0.571510 0.296724 0.636307 0.126532
C60   C     C_R   0.582301 0.314242 0.679146 0.078989
C61   C     C_R   0.644811 0.282533 0.699909 0.054158
C62   C     C_R   0.701566 0.239380 0.678155 0.088710
C63   C     C_R   0.690303 0.222360 0.635631 -0.153774
C64   C     C_R   0.762650 0.353143 0.844106 -0.136419
C65   C     C_R   0.290372 0.887779 0.549054 0.591459
C66   C     C_R   0.775592 0.382842 0.886138 -0.165807
C67   C     C_R   0.584956 0.324773 0.887432 0.091128
C68   C     C_R   0.572858 0.294524 0.845056 -0.113524
C69   C     C_R   0.662268 0.312923 0.823432 0.013797
C70   C     C_1   0.653573 0.299511 0.779940 -0.027225
C71   C     C_1   0.649045 0.291772 0.743520 0.002358
C72   C     C_R   0.688479 0.374619 0.908100 0.058945
C73   C     C_R   0.068992 0.752068 0.908809 -0.036238
C74   C     C_R   0.115808 0.852484 0.898630 -0.138492
C75   C     C_R   0.141036 0.868143 0.858352 0.248730
C76   C     C_R   0.743890 0.469632 0.109033 -0.031060
C77   C     C_R   0.117101 0.780034 0.828798 0.073778
C78   C     C_R   0.076324 0.679789 0.839785 0.056969
C79   C     C_R   0.054478 0.667287 0.879973 -0.128820
C80   C     C_R   0.181208 0.752652 0.761235 -0.106174
C81   C     C_R   0.182695 0.758006 0.719979 -0.147009
C82   C     C_R   0.130988 0.805138 0.702916 0.074828
C83   C     C_R   0.078067 0.848390 0.727371 0.264056
C84   C     C_R   0.071991 0.837423 0.768586 -0.094672
C85   C     C_R   0.125013 0.791363 0.785642 0.036519
C86   C     C_R   0.210738 0.926654 0.654633 -0.125710
C87   C     C_R   0.689197 0.505744 0.135905 -0.177707
C88   C     C_R   0.250922 0.948893 0.617228 0.039031
C89   C     C_R   0.158091 0.761765 0.590392 0.068275
C90   C     C_R   0.118543 0.740576 0.628714 0.103703
C91   C     C_R   0.148813 0.823659 0.660952 0.075052
C92   C     C_R   0.228799 0.866046 0.585209 0.074653
C93   C     C_R   0.659068 0.747235 0.913532 -0.019904
C94   C     C_R   0.579278 0.657144 0.888838 -0.143975
C95   C     C_R   0.552309 0.661312 0.848341 0.321448
C96   C     C_R   0.606334 0.757797 0.834059 0.068183
C97   C     C_R   0.675765 0.849030 0.860530 -0.194402
C98   C     C_R   0.688320 0.495478 0.176887 0.225355
C99   C     C_R   0.701959 0.843855 0.899879 -0.144466
C100  C     C_R   0.578753 0.832159 0.775875 -0.175288
C101  C     C_R   0.591251 0.848550 0.735704 -0.145808
C102  C     C_R   0.632787 0.797117 0.709388 0.053314
C103  C     C_R   0.661708 0.727882 0.723215 0.119306
C104  C     C_R   0.649890 0.711578 0.764028 0.294800
C105  C     C_R   0.606753 0.763310 0.790257 0.050176
C106  C     C_R   0.547592 0.746422 0.639348 0.316399
C107  C     C_R   0.542719 0.770977 0.600533 0.071204
C108  C     C_R   0.723911 0.920786 0.615617 0.055367
Cr1   Cr    Cr6+3 0.424820 0.846020 0.489780 1.045530
Cr2   Cr    Cr6+3 0.657880 0.078580 0.505700 1.024270
Cr3   Cr    Cr6+3 0.417280 0.075360 0.504550 1.052083
Cr4   Cr    Cr6+3 0.903360 0.812540 0.006510 1.025110
Cr5   Cr    Cr6+3 0.914630 0.587050 0.006280 1.007038
Cr6   Cr    Cr6+3 0.673560 0.582680 0.008540 1.052678
H1    H     H_    0.650279 0.546276 0.125383 0.172711
H2    H     H_    0.144070 0.699860 0.107722 0.120045
H3    H     H_    0.186653 0.737842 0.180403 0.112150
H4    H     H_    0.166922 0.719027 0.301127 0.103503
H5    H     H_    0.256139 0.031831 0.403422 0.140682
H6    H     H_    0.864678 0.963065 0.121969 0.134917
H7    H     H_    0.843659 0.984202 0.195035 0.134319
H8    H     H_    0.823985 0.989478 0.327978 0.126357
H9    H     H_    0.800149 0.012072 0.400243 0.145858
H10   H     H_    0.535263 0.706417 0.176446 0.106240
H11   H     H_    0.517379 0.710515 0.306831 0.093853
H12   H     H_    0.855815 0.419697 0.900906 0.129052
H13   H     H_    0.790655 0.293132 0.343658 0.124440
H14   H     H_    0.832136 0.366725 0.827515 0.118634
H15   H     H_    0.729975 0.184099 0.619182 0.130617
H16   H     H_    0.494556 0.260985 0.828933 0.101180
H17   H     H_    0.130263 0.916903 0.922190 0.105596
H18   H     H_    0.017875 0.589478 0.887915 0.130266
H19   H     H_    0.551676 0.283233 0.293927 0.104508
H20   H     H_    0.227640 0.728850 0.701529 0.144189
H21   H     H_    0.223758 0.718251 0.774143 0.163006
H22   H     H_    0.026513 0.865139 0.787386 0.105360
H23   H     H_    0.234878 0.990329 0.679813 0.120274
H24   H     H_    0.543598 0.584155 0.900626 0.106522
H25   H     H_    0.571189 0.311716 0.223299 0.103231
H26   H     H_    0.761785 0.914850 0.918698 0.142454
H27   H     H_    0.795771 0.942441 0.675402 0.140964
H28   H     H_    0.567990 0.901199 0.724941 0.122129
H29   H     H_    0.548022 0.873918 0.795979 0.129213
H30   H     H_    0.716883 0.923355 0.849640 0.112707
O1    O     O_R   0.318160 0.824460 0.443680 -0.445738
O2    O     O_R   0.645130 0.163230 0.552140 -0.520281
O3    O     O_R   0.498360 0.178430 0.555780 -0.454266
O4    O     O_R   0.328690 0.978040 0.538950 -0.467108
O5    O     O_3   0.499990 0.999990 0.500010 -0.261248
O6    O     O_R   0.828710 0.851830 0.052170 -0.521281
O7    O     O_R   0.005980 0.823990 0.047210 -0.456936
O8    O     O_R   0.031900 0.688850 0.050170 -0.549518
O9    O     O_R   0.830940 0.518420 0.048680 -0.480473
O10   O     O_R   0.668160 0.499860 0.053480 -0.512039
O11   O     O_R   0.689170 0.693840 0.050110 -0.448084
O12   O     O_R   0.525040 0.857250 0.449830 -0.464519
O13   O     O_R   0.803860 0.812940 0.962540 -0.518561
O14   O     O_R   0.982950 0.787950 0.964120 -0.499700
O15   O     O_R   0.007050 0.649970 0.960540 -0.520286
O16   O     O_R   0.807910 0.482370 0.965590 -0.514218
O17   O     O_R   0.643310 0.460980 0.963840 -0.474565
O18   O     O_R   0.666140 0.657800 0.967020 -0.504231
O19   O     O_3   0.830520 0.660760 0.007110 -0.256246
O20   O     O_R   0.684760 0.998800 0.456360 -0.508521
O21   O     O_R   0.647540 0.166310 0.470260 -0.463790
O22   O     O_R   0.500960 0.181750 0.467450 -0.493387
O23   O     O_R   0.331100 0.981120 0.457080 -0.525383
O24   O     O_R   0.315560 0.821140 0.532010 -0.505167
O25   O     O_R   0.522630 0.854180 0.531710 -0.516069
O26   O     O_R   0.682160 0.995480 0.544690 -0.523540
N1    N     N_3   0.535499 0.362228 0.444283 -0.595539
H31   H     H_    0.464208 0.342788 0.427760 0.244814
H32   H     H_    0.573973 0.442212 0.455683 0.249442
N2    N     N_3   0.846760 0.356201 0.180401 -0.626865
H33   H     H_    0.929734 0.398803 0.179433 0.234952
H34   H     H_    0.818189 0.284138 0.161474 0.253481
N3    N     N_3   0.745785 0.184157 0.403529 -0.592744
H35   H     H_    0.829587 0.224429 0.406432 0.227611
H36   H     H_    0.720772 0.128064 0.377245 0.223589
N4    N     N_3   0.211489 0.696872 0.375370 -0.575394
H37   H     H_    0.261991 0.680026 0.357026 0.233504
H38   H     H_    0.133782 0.633953 0.368740 0.224762
N5    N     N_3   0.145014 0.032609 0.192909 -0.647402
H39   H     H_    0.213662 0.098590 0.186615 0.212013
H40   H     H_    0.151099 0.033684 0.224224 0.249528
N6    N     N_3   0.099750 0.989375 0.107264 -0.599431
H41   H     H_    0.169204 0.062342 0.111481 0.220114
H42   H     H_    0.038954 0.998501 0.121191 0.247770
O27   O     O_3   0.857531 0.390237 0.098039 -0.550656
C109  C     C_3   0.968681 0.463292 0.102702 -0.002570
H43   H     H_    0.997343 0.513217 0.133268 0.111059
H44   H     H_    0.988079 0.515983 0.079761 0.183690
C110  C     C_3   0.031814 0.405146 0.095151 -0.390188
H45   H     H_    0.009175 0.358843 0.064053 0.164295
H46   H     H_    0.119005 0.461939 0.098009 0.085053
H47   H     H_    0.014894 0.351653 0.117741 0.151286
O28   O     O_3   0.208219 0.047184 0.329255 -0.553106
C111  C     C_3   0.313291 0.130382 0.328561 -0.013138
H48   H     H_    0.360927 0.105441 0.308057 0.125485
H49   H     H_    0.355117 0.160710 0.359677 0.133777
C112  C     C_3   0.307180 0.218930 0.312579 -0.368888
H50   H     H_    0.260371 0.245824 0.332473 0.164550
H51   H     H_    0.388882 0.285638 0.312162 0.085269
H52   H     H_    0.267902 0.191822 0.281157 0.151088
N7    N     N_3   0.468530 0.709641 0.384632 -0.588259
H53   H     H_    0.492541 0.673695 0.404112 0.230562
H54   H     H_    0.419194 0.650702 0.360906 0.206362
O29   O     O_3   0.536427 0.665265 0.097327 -0.553189
C113  C     C_3   0.450649 0.684384 0.090296 -0.016018
H55   H     H_    0.477991 0.756055 0.076058 0.130918
H56   H     H_    0.414387 0.693152 0.119118 0.115974
C114  C     C_3   0.364242 0.592261 0.061368 -0.366086
H57   H     H_    0.334436 0.519636 0.074911 0.149328
H58   H     H_    0.296195 0.606374 0.055645 0.092986
H59   H     H_    0.397292 0.582162 0.031988 0.161997
N8    N     N_3   0.767173 0.209210 0.699417 -0.620433
H60   H     H_    0.715861 0.143925 0.712450 0.224796
H61   H     H_    0.809400 0.185280 0.679046 0.228525
N9    N     N_3   0.507642 0.328217 0.614995 -0.589163
H62   H     H_    0.429825 0.290972 0.624206 0.242972
H63   H     H_    0.539520 0.408848 0.623442 0.232904
N10   N     N_3   0.492853 0.308221 0.908956 -0.607552
H64   H     H_    0.457124 0.346354 0.896559 0.208427
H65   H     H_    0.438121 0.228140 0.903798 0.230166
N11   N     N_3   0.525683 0.360347 0.701056 -0.674405
H66   H     H_    0.471725 0.306162 0.718126 0.221120
H67   H     H_    0.580888 0.426208 0.721148 0.256269
N12   N     N_3   0.050597 0.635456 0.635672 -0.624737
H68   H     H_    0.091318 0.593121 0.629585 0.230392
H69   H     H_    0.981611 0.601367 0.615685 0.238402
O30   O     O_3   0.192774 0.966495 0.846201 -0.564221
C115  C     C_3   0.173936 0.041806 0.870086 -0.017576
H70   H     H_    0.223869 0.070846 0.899513 0.136345
H71   H     H_    0.087474 0.009676 0.875426 0.121344
C116  C     C_3   0.206810 0.134514 0.847842 -0.383005
H72   H     H_    0.155677 0.109679 0.818982 0.134468
H73   H     H_    0.197190 0.196505 0.867116 0.097520
H74   H     H_    0.291952 0.166956 0.840954 0.152097
O31   O     O_3   0.030211 0.897411 0.709882 -0.558978
C117  C     C_3   0.064540 0.998471 0.732008 -0.026070
H75   H     H_    0.148325 0.036104 0.746226 0.124036
H76   H     H_    0.009385 0.993669 0.756086 0.128783
C118  C     C_3   0.061997 0.068988 0.703368 -0.365246
H77   H     H_    0.980219 0.035631 0.688500 0.174785
H78   H     H_    0.085929 0.147611 0.720722 0.094546
H79   H     H_    0.118505 0.077157 0.679555 0.152182
N13   N     N_3   0.321230 0.055741 0.613173 -0.583777
H80   H     H_    0.279782 0.097297 0.619620 0.223479
H81   H     H_    0.386145 0.086332 0.635015 0.224770
N14   N     N_3   0.048973 0.589788 0.809440 -0.632696
H82   H     H_    0.980935 0.575017 0.791831 0.233955
H83   H     H_    0.027795 0.523583 0.823007 0.225263
N15   N     N_3   0.128997 0.678204 0.556967 -0.609553
H84   H     H_    0.153486 0.626703 0.565083 0.237053
H85   H     H_    0.045663 0.638103 0.551215 0.231234
O32   O     O_3   0.472976 0.576738 0.821841 -0.535542
C119  C     C_3   0.456776 0.478856 0.829284 0.004131
H86   H     H_    0.411705 0.457303 0.856687 0.113523
H87   H     H_    0.534252 0.478802 0.832750 0.146618
C120  C     C_3   0.389242 0.396360 0.793236 -0.365093
H88   H     H_    0.428105 0.419121 0.764805 0.180873
H89   H     H_    0.380566 0.319541 0.797159 0.073895
H90   H     H_    0.308363 0.389135 0.790745 0.154836
N16   N     N_3   0.702911 0.674849 0.695704 -0.626645
H91   H     H_    0.781741 0.699171 0.706073 0.254250
H92   H     H_    0.657175 0.594613 0.696042 0.249393
O33   O     O_3   0.673490 0.639853 0.777402 -0.559660
C121  C     C_3   0.779145 0.692109 0.796039 -0.024414
H93   H     H_    0.799284 0.767264 0.815864 0.120815
H94   H     H_    0.837429 0.708321 0.772464 0.134250
C122  C     C_3   0.791897 0.622124 0.822406 -0.364205
H95   H     H_    0.779811 0.549036 0.803307 0.160432
H96   H     H_    0.873381 0.663733 0.838219 0.108299
H97   H     H_    0.732692 0.602134 0.845692 0.155804
O34   O     O_3   0.457581 0.668228 0.653137 -0.538313
C123  C     C_3   0.452161 0.570594 0.640550 0.005852
H98   H     H_    0.532496 0.575825 0.639304 0.138289
H99   H     H_    0.408489 0.535866 0.609918 0.165352
C124  C     C_3   0.390659 0.497757 0.670470 -0.369239
H100  H     H_    0.309783 0.490317 0.672413 0.164230
H101  H     H_    0.381465 0.419144 0.660266 0.109793
H102  H     H_    0.434654 0.529164 0.701109 0.184181
N17   N     N_3   0.446648 0.701788 0.574835 -0.613975
H103  H     H_    0.400224 0.737969 0.572544 0.279314
H104  H     H_    0.466076 0.679033 0.546377 0.235204
O35   O     O_3   0.641951 0.538944 0.203989 -0.541432
C125  C     C_3   0.530499 0.490614 0.193645 -0.010305
H105  H     H_    0.493452 0.403859 0.186271 0.113288
H106  H     H_    0.514052 0.520974 0.167329 0.148689
C126  C     C_3   0.477573 0.516031 0.229702 -0.375865
H107  H     H_    0.511359 0.601966 0.237512 0.156199
H108  H     H_    0.389914 0.479257 0.221988 0.086871
H109  H     H_    0.491672 0.485687 0.256469 0.157200
N18   N     N_3   0.819070 0.007585 0.605391 -0.635014
H110  H     H_    0.805248 0.070347 0.604528 0.246040
H111  H     H_    0.839389 0.985509 0.577007 0.256356
N19   N     N_3   0.900461 0.536798 0.334887 -0.636362
H112  H     H_    0.963075 0.522748 0.326355 0.215196
H113  H     H_    0.926488 0.616397 0.336050 0.236905
N20   N     N_3   0.923557 0.571788 0.250993 -0.630158
H114  H     H_    0.983834 0.554540 0.258045 0.216411
H115  H     H_    0.942578 0.644829 0.267373 0.238207
N21   N     N_3   0.596595 0.464283 0.375458 -0.649937
H116  H     H_    0.663303 0.536570 0.373417 0.249254
H117  H     H_    0.550708 0.436235 0.347580 0.224453

loop_
_geom_bond_atom_site_label_1
_geom_bond_atom_site_label_2
_ccdc_geom_bond_type
C65   C92   S    
C21   C26   S    
C98   O35   S    
C101  C102  A    
C18   N20   S    
C63   H15   S    
C122  H97   S    
C126  H109  S    
N19   H113  S    
C112  H50   S    
Cr1   O5    S    
C95   C96   A    
C3    H27   S    
C104  O33   S    
C55   C56   T    
Cr2   O5    S    
C2    C12   A    
C48   H9    S    
N12   H69   S    
C81   C82   A    
C43   O25   A    
C21   O21   A    
C81   H20   S    
N21   H117  S    
C77   C78   A    
C27   C33   A    
C12   C13   A    
N1    H32   S    
C65   O24   A    
C28   C29   A    
C100  C105  A    
C80   C85   A    
C80   H21   S    
Cr4   O14   S    
C124  H102  S    
C50   H6    S    
C90   N12   S    
C36   C37   A    
C37   C38   A    
N8    H61   S    
C60   N11   S    
C75   O30   S    
C86   C91   A    
N5    H40   S    
C5    C107  A    
O35   C125  S    
C34   C35   A    
Cr2   O21   S    
C86   C88   A    
Cr6   O18   S    
N17   H104  S    
C106  C107  A    
C9    O15   A    
C50   C57   A    
N14   H83   S    
C122  H95   S    
C37   N5    S    
C16   C25   S    
C113  C114  S    
C13   O27   S    
C126  H107  S    
C73   C74   A    
C23   C26   A    
Cr5   O19   S    
Cr1   O12   S    
C8    O11   A    
C35   H2    S    
N2    H33   S    
C100  C101  A    
C109  H43   S    
C86   H23   S    
C113  H56   S    
C84   C85   A    
C66   C72   A    
O31   C117  S    
C1    O20   A    
C45   H11   S    
C16   C17   A    
C64   H14   S    
C6    C41   S    
C4    C102  S    
C24   H13   S    
C103  N16   S    
C13   C76   A    
C70   C71   T    
C51   C57   A    
N20   H115  S    
C103  C104  A    
C93   C99   A    
C87   H1    S    
C22   N1    S    
C109  C110  S    
C54   O2    A    
C87   C98   A    
C6    O8    A    
C11   C93   S    
C34   H3    S    
C53   C55   S    
C125  H106  S    
C2    C19   S    
N6    H41   S    
C77   C85   S    
C59   C60   A    
N21   H116  S    
C89   N15   S    
C74   H17   S    
O32   C119  S    
C33   N4    S    
C112  H52   S    
C116  H73   S    
Cr5   O8    S    
C36   C41   A    
N10   H64   S    
C42   C44   A    
C112  H51   S    
C111  C112  S    
C120  H90   S    
Cr3   O5    S    
C115  H71   S    
C104  C105  A    
C97   C99   A    
C43   O26   A    
Cr1   O25   S    
C17   C18   A    
C123  C124  S    
N2    H34   S    
N13   H81   S    
C38   C39   S    
C113  H55   S    
C83   O31   S    
Cr4   O7    S    
C20   N21   S    
C74   C75   A    
C106  O34   S    
C67   C68   A    
C47   C48   A    
C88   C92   A    
C67   C72   A    
C24   C25   A    
C120  H89   S    
Cr4   O13   S    
O29   C113  S    
C39   C40   T    
N15   H85   S    
Cr2   O20   S    
C51   O29   S    
C68   C69   A    
C47   H8    S    
Cr5   O9    S    
C32   O1    A    
N12   H68   S    
C118  H78   S    
N14   H82   S    
N7    H53   S    
C4    C106  A    
C82   C83   A    
C115  C116  S    
Cr5   O15   S    
C21   O22   A    
C66   H12   S    
C60   C61   A    
C89   C92   A    
C94   H24   S    
C64   C66   A    
C67   N10   S    
C8    O6    A    
N5    H39   S    
C97   H30   S    
C29   C30   A    
N15   H84   S    
Cr1   O24   S    
Cr3   O3    S    
C8    C57   S    
N9    H63   S    
C101  H28   S    
C121  C122  S    
C79   H18   S    
C83   C84   A    
C7    O9    A    
C114  H59   S    
C30   C31   A    
C116  H72   S    
C118  H79   S    
C49   H7    S    
C96   C97   A    
C62   C63   A    
C117  H76   S    
N11   H66   S    
C73   C79   A    
C125  C126  S    
C30   C40   S    
O27   C109  S    
Cr3   O22   S    
C42   C48   A    
C64   C69   A    
N8    H60   S    
C65   O4    A    
C68   H16   S    
C75   C77   A    
N1    H31   S    
C111  H48   S    
C117  C118  S    
C6    O7    A    
Cr2   O26   S    
O30   C115  S    
O34   C123  S    
C114  H58   S    
N3    H35   S    
C94   C95   A    
C29   O28   S    
C125  H105  S    
C22   C26   A    
N9    H62   S    
C78   N14   S    
C116  H74   S    
Cr4   O6    S    
C99   H26   S    
N10   H65   S    
C84   H22   S    
Cr3   O23   S    
C20   C22   A    
N6    H42   S    
C3    C4    A    
C10   O16   A    
Cr6   O11   S    
C119  H86   S    
C52   C53   A    
C11   O13   A    
C96   C105  S    
C12   N2    S    
C54   C58   S    
C126  H108  S    
C58   C63   A    
C122  H96   S    
Cr4   O19   S    
C46   C47   A    
O28   C111  S    
C31   C33   A    
C109  H44   S    
N4    H38   S    
C27   C32   S    
C34   C38   A    
C58   C59   A    
C62   N8    S    
C14   C19   A    
C9    C73   S    
Cr1   O1    S    
C44   C45   A    
C121  H94   S    
C80   C81   A    
Cr6   O17   S    
C100  H29   S    
C108  N18   S    
C45   C46   A    
C76   C87   A    
O33   C121  S    
C28   H5    S    
C7    C76   S    
C15   H19   S    
C3    C108  A    
C10   O17   A    
C17   N19   S    
C93   C94   A    
C31   H4    S    
C44   N7    S    
C119  C120  S    
N17   H103  S    
C121  H93   S    
C61   C62   A    
N16   H91   S    
C1    O12   A    
C107  N17   S    
C51   C52   A    
C110  H45   S    
C59   N9    S    
Cr3   O4    S    
C120  H88   S    
C110  H47   S    
N18   H111  S    
C123  H98   S    
C78   C79   A    
C124  H100  S    
Cr6   O19   S    
N18   H110  S    
C7    O10   A    
C90   C91   A    
C9    O14   A    
C49   C53   A    
C15   C16   A    
C52   H10   S    
C117  H75   S    
N11   H67   S    
N3    H36   S    
C36   N6    S    
C11   O18   A    
Cr5   O16   S    
C5    C43   S    
C102  C103  A    
C35   C41   A    
C69   C70   S    
C14   H25   S    
C23   N3    S    
C82   C91   S    
C23   C24   A    
C61   C71   S    
N19   H112  S    
C124  H101  S    
C1    C42   S    
N20   H114  S    
C114  H57   S    
C2    C98   A    
N16   H92   S    
C49   C50   A    
C20   C25   A    
C32   O23   A    
C46   C56   S    
C27   C28   A    
C18   C19   A    
C14   C15   A    
C111  H49   S    
C110  H46   S    
C119  H87   S    
C89   C90   A    
Cr2   O2    S    
N7    H54   S    
C123  H99   S    
C95   O32   S    
Cr6   O10   S    
N4    H37   S    
C118  H77   S    
N13   H80   S    
C115  H70   S    
C54   O3    A    
C88   N13   S    
C5    C108  A    
C10   C72   S    
