data_mof_unit_43842.cif
_audit_creation_date              2013-03-05T15:47:34-0500
_audit_creation_method            fapswitch 2.2
_symmetry_space_group_name_H-M    P1
_symmetry_Int_Tables_number       1
_space_group_crystal_system       triclinic
_cell_length_a                    7.243049
_cell_length_b                    15.149629
_cell_length_c                    22.29529
_cell_angle_alpha                 89.926151
_cell_angle_beta                  89.774653
_cell_angle_gamma                 89.18916
_cell_volume                      2446.18538245

loop_
_atom_site_label
_atom_site_type_symbol
_atom_site_description
_atom_site_fract_x
_atom_site_fract_y
_atom_site_fract_z
_atom_type_partial_charge
O1    O     O_R   0.390810 0.844810 0.447340 -0.554474
O2    O     O_R   0.109190 0.155190 0.947340 -0.557271
O3    O     O_R   0.890810 0.655190 0.552660 -0.551772
O4    O     O_R   0.609190 0.344810 0.052660 -0.557685
O5    O     O_R   0.720550 0.655820 0.440420 -0.568506
O6    O     O_R   0.779450 0.344180 0.940420 -0.587167
O7    O     O_R   0.220550 0.844180 0.559580 -0.568537
O8    O     O_R   0.279450 0.155820 0.059580 -0.574614
C1    C     C_R   0.553277 0.627065 0.426377 1.001219
C2    C     C_R   0.946150 0.374166 0.927098 1.009662
C3    C     C_R   0.051265 0.873592 0.573164 1.013736
C4    C     C_R   0.448418 0.126531 0.073233 1.019596
O9    O     O_R   0.720530 0.844130 0.440420 -0.592074
O10   O     O_R   0.779470 0.155870 0.940420 -0.581259
O11   O     O_R   0.220530 0.655870 0.559580 -0.597208
O12   O     O_R   0.279470 0.344130 0.059580 -0.592730
O13   O     O_R   0.890830 0.844810 0.552660 -0.598610
O14   O     O_R   0.609170 0.155190 0.052660 -0.596657
O15   O     O_R   0.390830 0.655190 0.447340 -0.594785
O16   O     O_R   0.109170 0.344810 0.947340 -0.580796
C5    C     C_R   0.552210 0.871301 0.425067 0.921152
C6    C     C_R   0.948885 0.127002 0.926364 0.924562
C7    C     C_R   0.053598 0.627424 0.574129 0.926740
C8    C     C_R   0.446023 0.372044 0.074519 0.929303
O17   O     O_3   0.557310 0.749980 0.536820 -0.289351
O18   O     O_3   0.942690 0.250020 0.036820 -0.292064
O19   O     O_3   0.057310 0.750020 0.463180 -0.287978
O20   O     O_3   0.442690 0.249980 0.963180 -0.284484
V1    V     V_3+5 0.832160 0.749980 0.493170 1.229128
V2    V     V_3+5 0.667840 0.250020 0.993170 1.232868
V3    V     V_3+5 0.332160 0.750020 0.506830 1.226915
V4    V     V_3+5 0.167840 0.249980 0.006830 1.232705
C9    C     C_R   0.815185 0.595352 0.859440 0.207027
C10   C     C_R   0.587029 0.394148 0.366609 0.238679
C11   C     C_R   0.438768 0.891649 0.131439 0.229759
C12   C     C_R   0.010156 0.107976 0.631640 0.229745
H1    H     H_    0.788517 0.714290 0.769219 0.167585
H2    H     H_    0.633500 0.275458 0.277773 0.141791
H3    H     H_    0.390631 0.772635 0.220378 0.147661
H4    H     H_    0.977906 0.231491 0.718618 0.163401
C13   C     C_R   0.943838 0.450823 0.885995 -0.284328
C14   C     C_R   0.549292 0.551352 0.385170 -0.297157
C15   C     C_R   0.457567 0.049923 0.113813 -0.293797
C16   C     C_R   0.040102 0.949716 0.614263 -0.290980
C17   C     C_R   0.151286 0.477103 0.600656 -0.020919
C18   C     C_R   0.351877 0.523017 0.100553 -0.004051
C19   C     C_R   0.634580 0.022057 0.399207 -0.027922
C20   C     C_R   0.970362 0.967520 0.907086 -0.014213
C21   C     C_R   0.190750 0.411121 0.642014 0.020146
C22   C     C_R   0.306942 0.588284 0.141950 0.021791
C23   C     C_R   0.681554 0.086327 0.357755 0.041730
C24   C     C_R   0.993509 0.895173 0.869492 0.022314
C25   C     C_R   0.133794 0.419384 0.701376 -0.229871
C26   C     C_R   0.359123 0.579622 0.201614 -0.212646
C27   C     C_R   0.632691 0.077846 0.297896 -0.226853
C28   C     C_R   0.004455 0.906246 0.807570 -0.214057
C29   C     C_R   0.035175 0.495194 0.721404 0.141284
C30   C     C_R   0.455368 0.503869 0.221865 0.136855
C31   C     C_R   0.541634 0.002183 0.277410 0.137129
C32   C     C_R   0.993780 0.991285 0.781187 0.128189
C33   C     C_R   0.997821 0.563786 0.678701 0.100220
C34   C     C_R   0.488706 0.433680 0.180211 0.090973
C35   C     C_R   0.510723 0.931986 0.318920 0.094925
C36   C     C_R   0.973231 0.065548 0.820330 0.098319
C37   C     C_R   0.976703 0.505844 0.782614 0.103895
C38   C     C_R   0.505442 0.493295 0.283426 0.097300
C39   C     C_R   0.497071 0.991403 0.215635 0.099528
C40   C     C_R   0.005593 0.005010 0.717512 0.103933
C41   C     C_R   0.880783 0.584606 0.799772 -0.030393
C42   C     C_R   0.558579 0.408438 0.304494 -0.041530
C43   C     C_R   0.456064 0.906094 0.193999 -0.039736
C44   C     C_R   0.997353 0.092654 0.694375 -0.044839
C45   C     C_R   0.853557 0.652068 0.757206 -0.121629
C46   C     C_R   0.585343 0.339567 0.263079 -0.110445
C47   C     C_R   0.430803 0.837132 0.235357 -0.111099
C48   C     C_R   0.980443 0.164009 0.734364 -0.121715
C49   C     C_R   0.909946 0.641770 0.698013 -0.228670
C50   C     C_R   0.556716 0.352573 0.201899 -0.220737
C51   C     C_R   0.451362 0.850517 0.296848 -0.223003
C52   C     C_R   0.967503 0.150788 0.795834 -0.211758
C53   C     C_R   0.007991 0.440236 0.827110 -0.274874
C54   C     C_R   0.506399 0.564616 0.324509 -0.274481
C55   C     C_R   0.490060 0.063146 0.174980 -0.285387
C56   C     C_R   0.025922 0.934570 0.676070 -0.274449
C57   C     C_R   0.847094 0.528447 0.902387 0.251846
C58   C     C_R   0.583151 0.465637 0.406831 0.239033
C59   C     C_R   0.441773 0.963686 0.091283 0.231136
C60   C     C_R   0.032726 0.036415 0.591660 0.234163
C61   C     C_R   0.056483 0.554033 0.617997 -0.193808
C62   C     C_R   0.441808 0.445036 0.118593 -0.200260
C63   C     C_R   0.551785 0.943913 0.380820 -0.200998
C64   C     C_R   0.961284 0.052892 0.883464 -0.203888
H5    H     H_    0.074198 0.377902 0.817021 0.127073
H6    H     H_    0.481307 0.631693 0.309900 0.126058
H7    H     H_    0.503427 0.130404 0.190323 0.128129
H8    H     H_    0.029545 0.866525 0.690129 0.121733
H9    H     H_    0.201233 0.469644 0.555047 0.169546
H10   H     H_    0.306286 0.531150 0.054601 0.173690
H11   H     H_    0.674054 0.030488 0.445571 0.174777
H12   H     H_    0.962442 0.956959 0.955109 0.164866
H13   H     H_    0.173022 0.365743 0.730518 0.122237
H14   H     H_    0.311241 0.630104 0.232120 0.116774
H15   H     H_    0.679789 0.128007 0.267387 0.119477
H16   H     H_    0.023204 0.846690 0.781877 0.127800
H17   H     H_    0.270903 0.353828 0.628337 0.189920
H18   H     H_    0.225904 0.645064 0.128071 0.182881
H19   H     H_    0.761635 0.142007 0.371804 0.198342
H20   H     H_    0.005262 0.829691 0.888556 0.182572
H21   H     H_    0.883982 0.696029 0.667420 0.120320
H22   H     H_    0.582233 0.297490 0.171969 0.107323
H23   H     H_    0.427431 0.795496 0.326769 0.105525
H24   H     H_    0.953738 0.208512 0.824192 0.096297
N1    N     N_R   0.773936 0.537694 0.962190 0.261081
O21   O     O_R   0.877404 0.520532 0.008473 -0.386379
O22   O     O_R   0.601274 0.559467 0.970531 -0.330211
N2    N     N_R   0.606181 0.450329 0.470028 0.250554
O23   O     O_R   0.737958 0.488553 0.499213 -0.372296
O24   O     O_R   0.501734 0.394259 0.497888 -0.312468
N3    N     N_R   0.438667 0.948484 0.027615 0.250177
O25   O     O_R   0.323460 0.991630 0.993487 -0.406209
O26   O     O_R   0.554952 0.892757 0.003297 -0.292612
N4    N     N_R   0.042881 0.051951 0.527982 0.246947
O27   O     O_R   0.169789 0.013094 0.495610 -0.379761
O28   O     O_R   0.929811 0.107718 0.502404 -0.315640
N5    N     N_R   0.712443 0.673304 0.876524 0.247031
O29   O     O_R   0.759695 0.717731 0.923819 -0.304070
O30   O     O_R   0.556632 0.692245 0.850287 -0.369497
N6    N     N_R   0.613189 0.306671 0.389579 0.232361
O31   O     O_R   0.477453 0.251544 0.386679 -0.360251
O32   O     O_R   0.753586 0.288621 0.423961 -0.301739
N7    N     N_R   0.422544 0.803889 0.108196 0.240050
O33   O     O_R   0.553172 0.745983 0.118275 -0.359287
O34   O     O_R   0.294635 0.786166 0.069366 -0.335690
N8    N     N_R   0.005018 0.196347 0.608201 0.245659
O35   O     O_R   0.857006 0.245145 0.614710 -0.340272
O36   O     O_R   0.136415 0.223087 0.572913 -0.312251

loop_
_geom_bond_atom_site_label_1
_geom_bond_atom_site_label_2
_geom_bond_distance
_ccdc_geom_bond_type
O17   V3    1.764947 S    
C30   C34   1.430017 A    
C54   H6    1.079883 S    
C27   C31   1.408058 A    
O19   V1    1.760097 S    
O13   V1    2.007572 S    
O3    C7    1.336472 A    
C14   C54   1.402468 A    
C44   C48   1.405824 A    
O15   V3    1.996727 S    
N6    O31   1.300811 A    
C35   C51   1.403058 A    
C12   C60   1.411696 A    
O1    C5    1.335097 A    
C30   C38   1.429254 A    
C1    C14   1.471193 S    
C22   C26   1.389840 A    
C58   N2    1.437636 S    
C4    C15   1.471567 S    
C56   H8    1.077063 S    
O4    C8    1.336649 A    
C37   C41   1.424214 A    
C12   C44   1.420428 A    
C27   H15   1.077349 S    
C15   C55   1.399943 A    
O1    V3    2.002443 S    
C19   H11   1.081806 S    
N2    O23   1.300467 A    
O2    V4    2.007102 S    
C10   C58   1.406909 A    
O3    V1    1.996023 S    
C9    C57   1.410747 A    
C42   C46   1.405031 A    
C31   C39   1.425958 A    
C11   C59   1.411029 A    
C1    O15   1.329059 A    
C2    O16   1.335841 A    
O2    C6    1.329676 A    
C12   N8    1.436570 S    
C7    C61   1.479848 S    
C41   C45   1.406175 A    
C14   C58   1.403535 A    
H3    C47   1.077289 S    
C17   C61   1.398457 A    
C10   C42   1.416824 A    
C39   C43   1.415911 A    
C9    C41   1.419651 A    
O11   C7    1.328214 A    
C18   H10   1.083986 S    
C55   H7    1.080999 S    
O12   C8    1.327785 A    
C2    C13   1.478374 S    
C36   C52   1.401597 A    
C35   C63   1.425180 A    
O10   V2    2.008865 S    
O16   V4    1.996488 S    
C9    N5    1.437902 S    
C33   C61   1.424183 A    
O5    V1    2.028785 S    
N3    O26   1.301373 A    
C34   C50   1.403383 A    
C20   H12   1.083785 S    
O7    V3    2.008914 S    
C40   C56   1.418163 A    
C28   H16   1.076043 S    
C60   N4    1.440573 S    
C25   H13   1.075563 S    
C25   C29   1.415719 A    
O18   V4    1.760081 S    
C19   C23   1.386542 A    
N7    O34   1.301469 A    
O11   V3    2.022911 S    
H4    C48   1.080424 S    
N6    O32   1.301600 A    
C40   C44   1.424389 A    
O8    V4    2.010484 S    
O7    C3    1.332531 A    
C59   N3    1.438665 S    
C38   C54   1.417486 A    
C53   H5    1.076663 S    
C37   C53   1.419960 A    
C17   C21   1.386633 A    
O8    C4    1.332126 A    
C13   C53   1.399587 A    
C52   H24   1.082982 S    
C26   C30   1.409031 A    
O9    C5    1.327268 A    
C3    C16   1.475014 S    
C50   H22   1.082555 S    
C39   C55   1.414820 A    
C49   H21   1.082359 S    
C32   C40   1.436920 A    
N2    O24   1.301088 A    
O14   V2    2.002911 S    
C23   H19   1.077982 S    
O6    V2    2.022959 S    
C33   C49   1.401481 A    
C46   C50   1.393827 A    
N5    O29   1.301219 A    
C36   C64   1.422800 A    
N4    O28   1.300968 A    
N7    O33   1.301126 A    
C11   N7    1.434104 S    
N5    O30   1.301431 A    
N1    O21   1.301500 A    
C5    C63   1.476627 S    
O9    V1    2.010435 S    
H1    C45   1.081358 S    
C3    O13   1.329840 A    
C45   C49   1.388265 A    
C19   C63   1.397298 A    
C26   H14   1.076903 S    
C21   H17   1.080942 S    
C48   C52   1.387798 A    
C29   C37   1.435922 A    
C16   C56   1.400307 A    
C8    C62   1.480185 S    
O6    C2    1.328458 A    
N8    O36   1.301190 A    
N3    O25   1.300305 A    
C29   C33   1.432129 A    
N8    O35   1.301347 A    
C18   C62   1.400273 A    
O12   V4    2.028738 S    
C13   C57   1.408281 A    
C18   C22   1.387936 A    
C31   C35   1.428339 A    
C51   H23   1.082412 S    
C32   C36   1.430484 A    
C15   C59   1.406631 A    
O10   C6    1.333166 A    
C57   N1    1.439095 S    
C17   H9    1.083478 S    
C43   C47   1.405992 A    
C38   C42   1.416774 A    
C21   C25   1.390017 A    
C34   C62   1.426087 A    
O20   V2    1.764964 S    
H2    C46   1.078309 S    
C23   C27   1.388640 A    
C11   C43   1.418460 A    
C28   C32   1.416793 A    
C20   C24   1.388531 A    
C24   H20   1.081120 S    
C10   N6    1.430513 S    
C20   C64   1.396618 A    
C4    O14   1.328217 A    
C22   H18   1.080125 S    
C6    C64   1.477394 S    
O5    C1    1.331898 A    
N4    O27   1.301129 A    
C16   C60   1.406592 A    
C47   C51   1.395001 A    
O4    V2    1.996263 S    
C24   C28   1.392598 A    
N1    O22   1.301555 A    
