data_mof_unit_31336.cif
_audit_creation_date              2012-12-10T18:07:38-0500
_audit_creation_method            fapswitch 2.2
_symmetry_space_group_name_H-M    P1
_symmetry_Int_Tables_number       1
_space_group_crystal_system       triclinic
_cell_length_a                    11.542429
_cell_length_b                    12.599887
_cell_length_c                    13.033982
_cell_angle_alpha                 81.850635
_cell_angle_beta                  90.426721
_cell_angle_gamma                 102.513096
_cell_volume                      1831.33053929

loop_
_atom_site_label
_atom_site_type_symbol
_atom_type_description
_atom_site_fract_x
_atom_site_fract_y
_atom_site_fract_z
_atom_type_partial_charge
Br1   Br    Br    0.750444 0.760538 0.270377 -0.353585
Br2   Br    Br    0.283024 0.864513 0.251087 -0.397900
Br3   Br    Br    0.747550 0.137101 0.580358 -0.395274
Br4   Br    Br    0.852421 0.794718 0.028944 -0.289862
Br5   Br    Br    0.296412 0.204902 0.759643 -0.392066
C1    C     C_R   0.486957 0.438057 0.691985 0.880798
C2    C     C_R   0.703648 0.613592 0.905216 -0.107687
C3    C     C_R   0.646990 0.542563 0.839291 -0.184210
C4    C     C_R   0.717811 0.500877 0.500224 0.886772
C5    C     C_R   0.491400 0.540212 0.128326 0.276992
C6    C     C_R   0.662394 0.675166 0.171894 0.172849
C7    C     C_R   0.477386 0.397468 0.803328 -0.190927
C8    C     C_R   0.356319 0.097754 0.330180 -0.225830
C9    C     C_R   0.640059 0.798596 0.628966 -0.075299
C10   C     C_R   0.686174 0.905907 0.645363 0.339658
C11   C     C_R   0.645615 0.992266 0.586468 0.212185
C12   C     C_R   0.553809 0.600135 0.200418 -0.234044
C13   C     C_R   0.548185 0.967160 0.519214 -0.118936
C14   C     C_R   0.512887 0.857253 0.499359 0.142887
C15   C     C_R   0.486757 0.045217 0.468126 -0.009997
C16   C     C_R   0.518652 0.561776 0.308654 0.974235
C17   C     C_R   0.410145 0.017944 0.384924 0.090690
C18   C     C_R   0.386209 0.910808 0.360600 0.220620
C19   C     C_R   0.433516 0.831502 0.420368 -0.155462
C20   C     C_R   0.491723 0.147312 0.500778 0.068461
C21   C     C_R   0.374831 0.200809 0.360500 0.024174
C22   C     C_R   0.282197 0.499155 0.499703 0.920034
C23   C     C_R   0.392552 0.301720 0.843856 0.274410
C24   C     C_1   0.838818 0.502336 0.500326 -0.104205
C25   C     C_1   0.940872 0.501299 0.499958 0.070187
C26   C     C_1   0.059173 0.498984 0.499410 0.068392
C27   C     C_1   0.161212 0.497855 0.499249 -0.105504
C28   C     C_R   0.709497 0.685137 0.070967 0.258491
C29   C     C_R   0.373038 0.275757 0.950646 -0.134873
C30   C     C_R   0.426998 0.348885 0.016093 -0.160680
C31   C     C_R   0.504329 0.448750 0.975706 0.146670
C32   C     C_R   0.543169 0.463234 0.871857 0.053886
C33   C     C_R   0.549471 0.531876 0.036774 -0.028574
C34   C     C_R   0.654997 0.611139 0.003952 -0.027475
Cl1   Cl    Cl    0.800489 0.929109 0.735133 -0.463489
Cl2   Cl    Cl    0.335690 0.491646 0.149380 -0.577810
H1    H     H_    0.300411 0.081854 0.264707 0.203300
H2    H     H_    0.532769 0.168260 0.571682 0.174771
H3    H     H_    0.674913 0.732337 0.670602 0.169413
H4    H     H_    0.407444 0.749925 0.402323 0.225426
H5    H     H_    0.784164 0.671425 0.876681 0.209888
H6    H     H_    0.410119 0.325146 0.098529 0.186756
H7    H     H_    0.311795 0.200745 0.982975 0.200130
H8    H     H_    0.687642 0.547716 0.763665 0.151717
H9    H     H_    0.336253 0.264044 0.317539 0.174858
N1    N     N_R   0.440320 0.222190 0.444690 -0.112940
N2    N     N_R   0.559060 0.776980 0.554780 -0.134356
O1    O     O_R   0.471500 0.366730 0.627160 -0.576341
O2    O     O_R   0.509620 0.544830 0.662520 -0.616672
O3    O     O_R   0.646490 0.410960 0.482310 -0.595761
O4    O     O_R   0.684610 0.589050 0.517670 -0.600683
O5    O     O_R   0.490380 0.455170 0.337480 -0.608839
O6    O     O_R   0.528500 0.633270 0.372840 -0.598718
O7    O     O_R   0.315390 0.410950 0.482330 -0.578835
O8    O     O_R   0.353510 0.589040 0.517690 -0.631145
Zn1   Zn    Zn3+2 0.474550 0.381080 0.476390 1.020906
Zn2   Zn    Zn3+2 0.525450 0.618920 0.523610 0.988420

loop_
_geom_bond_atom_site_label_1
_geom_bond_atom_site_label_2
_ccdc_geom_bond_type
O6    Zn2   S    
C18   C19   A    
C20   N1    A    
C9    N2    A    
O5    Zn1   S    
C24   C25   T    
C4    O3    A    
Br5   C23   S    
C5    C12   A    
C30   C31   A    
N1    Zn1   S    
C7    C32   A    
C4    C24   S    
C5    C33   A    
C30   H6    S    
C20   H2    S    
C31   C33   A    
C14   C19   A    
C23   C29   A    
C2    C3    A    
C4    O4    A    
C22   O7    A    
C21   N1    A    
C5    Cl2   S    
C16   O5    A    
C16   O6    A    
C28   C34   A    
C7    C23   A    
C19   H4    S    
O3    Zn1   S    
O8    Zn2   S    
C8    H1    S    
C15   C17   A    
C8    C17   A    
C1    O2    A    
C13   C15   A    
C22   O8    A    
C21   H9    S    
C1    C7    S    
C25   C26   S    
C10   Cl1   S    
O4    Zn2   S    
C8    C21   A    
O7    Zn1   S    
C29   H7    S    
C3    C32   A    
Br4   C28   S    
C1    O1    A    
C10   C11   A    
C2    H5    S    
C6    C28   A    
C33   C34   A    
C9    H3    S    
C29   C30   A    
C15   C20   A    
Br2   C18   S    
C13   C14   A    
C2    C34   A    
C17   C18   A    
C31   C32   A    
N2    Zn2   S    
Br1   C6    S    
O2    Zn2   S    
C3    H8    S    
C22   C27   S    
C9    C10   A    
O1    Zn1   S    
C14   N2    A    
C11   C13   A    
C12   C16   S    
Br3   C11   S    
C26   C27   T    
C6    C12   A    
