data_mof_unit_37625.cif
_audit_creation_date              2013-03-05T15:53:03-0500
_audit_creation_method            fapswitch 2.2
_symmetry_space_group_name_H-M    P1
_symmetry_Int_Tables_number       1
_space_group_crystal_system       triclinic
_cell_length_a                    20.052054
_cell_length_b                    17.128072
_cell_length_c                    15.393347
_cell_angle_alpha                 89.89133
_cell_angle_beta                  51.84044
_cell_angle_gamma                 89.888939
_cell_volume                      4157.03732952

loop_
_atom_site_label
_atom_site_type_symbol
_atom_site_description
_atom_site_fract_x
_atom_site_fract_y
_atom_site_fract_z
_atom_type_partial_charge
C1    C     C_R   0.846149 0.678754 0.034980 -0.104578
C2    C     C_R   0.125827 0.693205 0.004800 -0.147526
C3    C     C_R   0.347613 0.179887 0.033285 -0.106062
C4    C     C_R   0.653231 0.179138 0.965856 -0.106328
H1    H     H_    0.843688 0.735398 0.066501 0.102537
H2    H     H_    0.118815 0.749688 0.979634 0.123235
H3    H     H_    0.346002 0.236402 0.064476 0.104507
H4    H     H_    0.655323 0.235862 0.934516 0.103651
N1    N     N_R   0.908660 0.628630 0.995840 -0.055504
N2    N     N_R   0.091340 0.628630 0.004160 -0.054409
N3    N     N_R   0.408660 0.128630 0.995840 -0.056899
N4    N     N_R   0.591340 0.128630 0.004160 -0.056132
C5    C     C_R   0.902560 0.301338 0.207351 -0.073487
C6    C     C_R   0.097643 0.301422 0.792579 -0.074129
C7    C     C_R   0.402087 0.801327 0.207801 -0.096221
C8    C     C_R   0.598191 0.801600 0.792092 -0.050943
H5    H     H_    0.910804 0.244776 0.171703 0.213882
H6    H     H_    0.089699 0.244791 0.828103 0.214127
H7    H     H_    0.410944 0.744810 0.171656 0.218013
H8    H     H_    0.591280 0.744925 0.826762 0.220145
N5    N     N_R   0.922310 0.368460 0.151950 -0.084169
N6    N     N_R   0.077690 0.368460 0.848050 -0.084303
N7    N     N_R   0.422310 0.868460 0.151950 -0.088000
N8    N     N_R   0.577690 0.868460 0.848050 -0.084388
C9    C     C_R   0.864010 0.389474 0.899716 -0.165305
C10   C     C_R   0.137576 0.390549 0.098495 -0.134815
C11   C     C_R   0.343630 0.899811 0.928396 -0.140750
C12   C     C_R   0.635747 0.889165 0.100619 -0.163234
H9    H     H_    0.859204 0.415950 0.839955 0.177068
H10   H     H_    0.143549 0.417805 0.156705 0.174150
H11   H     H_    0.331942 0.925777 0.874952 0.163723
H12   H     H_    0.640420 0.915499 0.160454 0.177280
N9    N     N_R   0.903470 0.421430 0.936420 -0.069564
N10   N     N_R   0.096530 0.421430 0.063580 -0.069182
N11   N     N_R   0.403470 0.921430 0.936420 -0.067535
N12   N     N_R   0.596530 0.921430 0.063580 -0.070099
C13   C     C_R   0.860449 0.582088 0.317552 -0.022370
C14   C     C_R   0.142249 0.580074 0.683538 -0.023095
C15   C     C_R   0.360124 0.081861 0.317469 -0.013788
C16   C     C_R   0.639647 0.081836 0.682465 -0.018387
H13   H     H_    0.845421 0.544435 0.383071 0.161707
H14   H     H_    0.157589 0.542755 0.617660 0.158949
H15   H     H_    0.344940 0.044247 0.383036 0.160577
H16   H     H_    0.654494 0.044062 0.617225 0.157762
N13   N     N_R   0.927500 0.575670 0.211370 -0.046726
N14   N     N_R   0.072500 0.575670 0.788630 -0.041624
N15   N     N_R   0.427500 0.075670 0.211370 -0.044290
N16   N     N_R   0.572500 0.075670 0.788630 -0.045198
C17   C     C_R   0.869524 0.301773 0.001029 0.335661
C18   C     C_R   0.131295 0.302209 0.998390 0.333652
C19   C     C_R   0.351522 0.810732 0.028753 0.315217
C20   C     C_R   0.630086 0.801507 0.999664 0.334715
N17   N     N_R   0.908660 0.365680 0.995820 -0.105256
N18   N     N_R   0.091340 0.365680 0.004180 -0.106149
N19   N     N_R   0.408660 0.865680 0.995820 -0.103237
N20   N     N_R   0.591340 0.865680 0.004180 -0.104464
C21   C     C_R   0.855032 0.676837 0.223598 -0.115497
C22   C     C_R   0.150168 0.671459 0.779309 -0.095949
C23   C     C_R   0.354585 0.176474 0.223589 -0.110273
C24   C     C_R   0.645373 0.176350 0.776169 -0.108887
H17   H     H_    0.839177 0.731012 0.205095 0.106913
H18   H     H_    0.170925 0.719540 0.802356 0.105565
H19   H     H_    0.338402 0.230495 0.205228 0.107801
H20   H     H_    0.661674 0.230213 0.794437 0.106997
N21   N     N_R   0.922310 0.631420 0.151980 -0.051890
N22   N     N_R   0.077690 0.631420 0.848020 -0.051746
N23   N     N_R   0.422310 0.131420 0.151980 -0.052485
N24   N     N_R   0.577690 0.131420 0.848020 -0.052239
C25   C     C_R   0.908435 0.393026 0.303432 0.330296
C26   C     C_R   0.091720 0.393360 0.696483 0.320178
C27   C     C_R   0.407654 0.893177 0.303988 0.325898
C28   C     C_R   0.591218 0.893464 0.696753 0.323831
N25   N     N_R   0.927500 0.426330 0.211360 -0.097508
N26   N     N_R   0.072500 0.426330 0.788640 -0.097986
N27   N     N_R   0.427500 0.926330 0.211360 -0.098566
N28   N     N_R   0.572500 0.926330 0.788640 -0.098710
C29   C     C_R   0.830857 0.581525 0.951142 -0.030235
C30   C     C_R   0.136679 0.601897 0.099588 -0.021265
C31   C     C_R   0.332533 0.084134 0.947792 -0.035590
C32   C     C_R   0.668628 0.081810 0.049910 -0.030432
H21   H     H_    0.808225 0.545901 0.916352 0.135847
H22   H     H_    0.143464 0.574645 0.157197 0.155928
H23   H     H_    0.310983 0.051764 0.909406 0.137033
H24   H     H_    0.691035 0.046250 0.085225 0.136286
N29   N     N_R   0.903470 0.570760 0.936440 -0.043773
N30   N     N_R   0.096530 0.570760 0.063560 -0.050161
N31   N     N_R   0.403470 0.070760 0.936440 -0.044781
N32   N     N_R   0.596530 0.070760 0.063560 -0.044488
C33   C     C_R   0.792763 0.647988 0.016186 0.099447
C34   C     C_R   0.156232 0.678003 0.061288 0.098772
C35   C     C_R   0.294930 0.150339 0.012995 0.099212
C36   C     C_R   0.706338 0.148572 0.985380 0.098102
C37   C     C_R   0.895116 0.313528 0.301538 -0.087485
C38   C     C_R   0.105180 0.313856 0.698281 -0.087448
C39   C     C_R   0.393517 0.813666 0.302956 -0.081771
C40   C     C_R   0.605156 0.814031 0.698210 -0.090359
C41   C     C_R   0.842843 0.313402 0.938318 -0.003623
C42   C     C_R   0.158791 0.314568 0.060094 -0.010855
C43   C     C_R   0.308050 0.832345 0.989837 -0.013112
C44   C     C_R   0.656468 0.812928 0.062732 -0.006614
C45   C     C_R   0.812308 0.643788 0.327194 0.038132
C46   C     C_R   0.192996 0.638808 0.675232 0.026194
C47   C     C_R   0.311752 0.143329 0.327136 0.032329
C48   C     C_R   0.688031 0.143238 0.672629 0.037133
Ni1   Ni    Ni4+2 0.000000 0.630300 0.000000 0.240291
Ni2   Ni    Ni4+2 0.500000 0.130300 0.000000 0.245130
Ni3   Ni    Ni4+2 1.000000 0.369700 0.000000 0.278016
Ni4   Ni    Ni4+2 0.500000 0.869700 0.000000 0.281199
Ni5   Ni    Ni4+2 0.988090 0.497570 0.863760 0.303382
Ni6   Ni    Ni4+2 0.011910 0.497570 0.136240 0.290202
Ni7   Ni    Ni4+2 0.488090 0.997570 0.863760 0.306237
Ni8   Ni    Ni4+2 0.511910 0.997570 0.136240 0.299488
C49   C     C_R   0.710979 0.640559 0.529275 -0.031467
C50   C     C_R   0.293039 0.636493 0.473148 -0.035790
C51   C     C_R   0.210724 0.140227 0.529283 -0.026142
C52   C     C_R   0.789359 0.140000 0.470436 -0.024763
C53   C     C_R   0.733629 0.670129 0.429784 0.131413
C54   C     C_R   0.272403 0.664588 0.572117 0.133777
C55   C     C_R   0.232980 0.169556 0.429867 0.128898
C56   C     C_R   0.766855 0.169344 0.569878 0.128645
C57   C     C_R   0.182902 0.228121 0.432500 -0.115317
C58   C     C_R   0.817134 0.227468 0.567257 -0.114321
C59   C     C_R   0.683669 0.728664 0.432159 -0.117737
C60   C     C_R   0.320791 0.725253 0.568396 -0.113663
H25   H     H_    0.193286 0.247135 0.357894 0.126214
H26   H     H_    0.806657 0.246324 0.641903 0.125572
H27   H     H_    0.694300 0.747756 0.357423 0.126487
H28   H     H_    0.311465 0.744357 0.642193 0.128242
C61   C     C_R   0.122119 0.266045 0.531819 -0.086767
C62   C     C_R   0.878317 0.265148 0.467849 -0.086663
C63   C     C_R   0.622575 0.766395 0.531433 -0.090770
C64   C     C_R   0.377781 0.765526 0.469505 -0.085946
H29   H     H_    0.084357 0.311048 0.532308 0.183970
H30   H     H_    0.916202 0.309839 0.467363 0.184151
H31   H     H_    0.584941 0.811304 0.531582 0.187112
H32   H     H_    0.414941 0.811304 0.468365 0.185870
C65   C     C_R   0.117743 0.250617 0.624939 0.008070
C66   C     C_R   0.882881 0.249991 0.374612 0.006396
C67   C     C_R   0.617628 0.750757 0.624936 0.020319
C68   C     C_R   0.379737 0.750579 0.378019 0.011494
C69   C     C_R   0.653839 0.681491 0.627439 0.037944
C70   C     C_R   0.344621 0.680370 0.376052 0.052832
C71   C     C_R   0.153999 0.181394 0.627362 0.050121
C72   C     C_R   0.846659 0.180903 0.372165 0.051655
C73   C     C_3   0.605997 0.607433 0.685200 0.046486
C74   C     C_3   0.394611 0.608293 0.312774 0.026508
C75   C     C_3   0.106061 0.107528 0.685791 0.029541
C76   C     C_3   0.894548 0.106786 0.314710 0.029268
C77   C     C_3   0.668595 0.563651 0.579111 0.180249
C78   C     C_3   0.339187 0.561875 0.418310 0.193372
C79   C     C_3   0.168177 0.063479 0.579800 0.186391
C80   C     C_3   0.831599 0.062996 0.420714 0.183990
H33   H     H_    0.539698 0.608099 0.713534 0.160921
H34   H     H_    0.462646 0.611878 0.277149 0.149603
H35   H     H_    0.039578 0.108250 0.714769 0.151375
H36   H     H_    0.960697 0.107222 0.286929 0.150382
H37   H     H_    0.710077 0.522021 0.581367 0.169286
H38   H     H_    0.298069 0.517521 0.419898 0.165809
H39   H     H_    0.209727 0.021841 0.581895 0.170218
H40   H     H_    0.790108 0.021749 0.418184 0.166698
C81   C     C_2   0.782497 0.185897 0.954866 -0.107488
C82   C     C_2   0.218547 0.187523 0.044707 -0.109771
C83   C     C_2   0.199775 0.735505 0.075438 -0.095956
C84   C     C_2   0.715916 0.684971 0.047826 -0.107391
H41   H     H_    0.816467 0.155785 0.978048 0.205534
H42   H     H_    0.183395 0.157090 0.023741 0.203968
H43   H     H_    0.193718 0.735977 0.150231 0.192348
H44   H     H_    0.681643 0.654899 0.025174 0.202468
C85   C     C_2   0.249920 0.784255 0.991332 -0.164876
C86   C     C_2   0.697887 0.758066 0.086966 -0.178159
C87   C     C_2   0.800435 0.258985 0.915539 -0.178111
C88   C     C_2   0.201437 0.260691 0.082842 -0.176833
H45   H     H_    0.253248 0.785235 0.918095 0.142678
H46   H     H_    0.725976 0.783844 0.121659 0.141059
H47   H     H_    0.772262 0.284926 0.880913 0.141158
H48   H     H_    0.230610 0.287076 0.115730 0.142448
N33   N     N_R   0.611275 0.584736 0.772497 0.262661
O1    O     O_R   0.543807 0.559707 0.866592 -0.248239
O2    O     O_R   0.683932 0.582785 0.754160 -0.310629
N34   N     N_R   0.382881 0.584986 0.231578 0.264350
O3    O     O_R   0.448318 0.564603 0.132818 -0.254850
O4    O     O_R   0.307166 0.576165 0.260207 -0.309256
N35   N     N_R   0.111945 0.085007 0.772600 0.262143
O5    O     O_R   0.045204 0.058246 0.866013 -0.260956
O6    O     O_R   0.184690 0.084410 0.754090 -0.305197
N36   N     N_R   0.889868 0.084342 0.226933 0.261880
O7    O     O_R   0.957357 0.058318 0.133678 -0.263676
O8    O     O_R   0.817605 0.083444 0.244181 -0.306019
Cl1   Cl    Cl    0.620665 0.522156 0.522936 -0.552867
Cl2   Cl    Cl    0.396501 0.524462 0.463726 -0.552930
Cl3   Cl    Cl    0.119521 0.021865 0.524665 -0.568159
Cl4   Cl    Cl    0.879051 0.020751 0.477339 -0.569458
N37   N     N_R   0.865675 0.231943 0.053825 0.198883
O9    O     O_R   0.929610 0.184053 0.002608 -0.342624
O10   O     O_R   0.794452 0.211580 0.147280 -0.354055
N38   N     N_R   0.135618 0.232345 0.945564 0.199372
O11   O     O_R   0.071539 0.184741 0.996174 -0.343188
O12   O     O_R   0.207100 0.211876 0.852512 -0.353250
N39   N     N_R   0.362675 0.732289 0.049217 0.225618
O13   O     O_R   0.429819 0.693371 0.972390 -0.336236
O14   O     O_R   0.308348 0.700721 0.145805 -0.373950
N40   N     N_R   0.631633 0.731041 0.949982 0.198093
O15   O     O_R   0.564004 0.688036 0.999131 -0.349988
O16   O     O_R   0.702185 0.707753 0.857878 -0.358295
N41   N     N_R   0.924693 0.430147 0.371837 0.203375
O17   O     O_R   0.863365 0.436831 0.477301 -0.413355
O18   O     O_R   0.991213 0.474284 0.326814 -0.424669
N42   N     N_R   0.075961 0.431048 0.627704 0.203620
O19   O     O_R   0.137591 0.437729 0.522328 -0.410540
O20   O     O_R   0.009909 0.475942 0.672416 -0.407036
N43   N     N_R   0.423372 0.930463 0.372848 0.202277
O21   O     O_R   0.361637 0.937379 0.478144 -0.413346
O22   O     O_R   0.489900 0.974541 0.328183 -0.407300
N44   N     N_R   0.571413 0.930140 0.631633 0.205228
O23   O     O_R   0.631166 0.940114 0.526252 -0.414148
O24   O     O_R   0.501768 0.970347 0.680294 -0.400815

loop_
_geom_bond_atom_site_label_1
_geom_bond_atom_site_label_2
_geom_bond_distance
_ccdc_geom_bond_type
C36   C81   1.441435 S    
C22   H18   1.078070 S    
C13   C45   1.374892 A    
C80   H40   1.111427 S    
C58   H26   1.082408 S    
N12   Ni8   1.866193 S    
C70   C74   1.506948 S    
C84   C86   1.339074 D    
C3    N3    1.314286 A    
C32   H24   1.080694 S    
C48   C56   1.452837 S    
N26   Ni5   1.808231 S    
C31   N31   1.340923 A    
N25   Ni6   1.809699 S    
C2    H2    1.082209 S    
N41   O17   1.301586 A    
C30   C34   1.383467 A    
C7    H7    1.075855 S    
C88   H48   1.081921 S    
C29   C33   1.392028 A    
N27   Ni8   1.809699 S    
C18   N18   1.319260 A    
N40   O16   1.300797 A    
N18   Ni3   1.873123 S    
C1    H1    1.072911 S    
C50   C70   1.398920 A    
C73   N33   1.463466 S    
C8    H8    1.074009 S    
C26   C38   1.391282 A    
C68   C70   1.404498 A    
N14   N22   1.371017 A    
C3    H3    1.072867 S    
N35   O6    1.302075 A    
C7    C39   1.381910 A    
C28   C40   1.391351 A    
N44   O24   1.300465 A    
C27   C39   1.393721 A    
C76   N36   1.463240 S    
N6    Ni3   1.842742 S    
N5    N25   1.396819 A    
C60   C64   1.395874 A    
C9    H9    1.081199 S    
C3    C35   1.371145 A    
N21   Ni1   1.843063 S    
C4    H4    1.073231 S    
C2    C34   1.359878 A    
C30   H22   1.081685 S    
N20   Ni4   1.873123 S    
C73   C77   1.507577 S    
C37   C66   1.471474 S    
C23   N23   1.343201 A    
C82   H42   1.075127 S    
C18   N38   1.420176 S    
C22   N22   1.342687 A    
C78   H38   1.111288 S    
C85   H45   1.087496 S    
C56   C58   1.400965 A    
N42   O19   1.301632 A    
N37   O10   1.300793 A    
C26   N26   1.344049 A    
C35   C82   1.436429 S    
C25   N25   1.344815 A    
C22   C46   1.385050 A    
C29   H21   1.080594 S    
C4    N4    1.316913 A    
C75   H35   1.114213 S    
C57   C61   1.393888 A    
C33   C84   1.443233 S    
C31   C35   1.388392 A    
C46   C54   1.458332 S    
C28   N28   1.343350 A    
C60   H28   1.082207 S    
C73   H33   1.114084 S    
C25   N41   1.430687 S    
C30   N30   1.339648 A    
C7    N7    1.339039 A    
C65   C71   1.402043 A    
C29   N29   1.340602 A    
N39   O13   1.299082 A    
C8    N8    1.336699 A    
C52   C72   1.396666 A    
C32   N32   1.339989 A    
N9    N17   1.368431 A    
C62   H30   1.076256 S    
N24   Ni2   1.843033 S    
C40   C67   1.471156 S    
N15   N23   1.368318 A    
C10   N10   1.337876 A    
N29   Ni5   1.831285 S    
C55   C57   1.400775 A    
C19   C43   1.378012 A    
C51   C71   1.396149 A    
C18   C42   1.378157 A    
C8    C40   1.379446 A    
N40   O15   1.299188 A    
N4    N32   1.393960 A    
N1    Ni1   1.872073 S    
C44   C86   1.445837 S    
C49   C77   1.496966 S    
C12   H12   1.081179 S    
C1    N1    1.317511 A    
N38   O12   1.300786 A    
N3    N31   1.396709 A    
N31   Ni7   1.831285 S    
N13   Ni6   1.889454 S    
N8    N28   1.394069 A    
C15   H15   1.070039 S    
C19   N19   1.319134 A    
N33   O2    1.301969 A    
C87   H47   1.082070 S    
C20   C44   1.377092 A    
N11   N19   1.368431 A    
C52   C56   1.395666 A    
C5    C37   1.378966 A    
C79   H39   1.111139 S    
C28   N44   1.430292 S    
C32   C36   1.391744 A    
C75   C79   1.507459 S    
N35   O5    1.300275 A    
C57   H25   1.082446 S    
N12   N20   1.371130 A    
C16   C48   1.375549 A    
N17   Ni3   1.873397 S    
C63   H31   1.075543 S    
C59   H27   1.082434 S    
N43   O21   1.301679 A    
C74   H34   1.114185 S    
C84   H44   1.075802 S    
C83   H43   1.080548 S    
C64   H32   1.075363 S    
C11   C43   1.379884 A    
C59   C63   1.393195 A    
N3    Ni2   1.872073 S    
C39   C68   1.476805 S    
C74   N34   1.463693 S    
C54   C60   1.399791 A    
N16   N24   1.371017 A    
C21   H17   1.073764 S    
C24   N24   1.342905 A    
C50   C54   1.395255 A    
C19   N39   1.427850 S    
C10   C42   1.383505 A    
N8    Ni4   1.842742 S    
C6    C38   1.379529 A    
C9    C41   1.385105 A    
N5    Ni3   1.842708 S    
C27   N27   1.345554 A    
C71   C75   1.505211 S    
C51   C55   1.395522 A    
C42   C88   1.439168 S    
C11   H11   1.079807 S    
N13   N21   1.368318 A    
C72   C76   1.505320 S    
N10   Ni6   1.866193 S    
C49   C53   1.395245 A    
C77   Cl1   1.791241 S    
N1    N29   1.396709 A    
C31   H23   1.077490 S    
N9    Ni5   1.867825 S    
C50   C78   1.495519 S    
N22   Ni1   1.843033 S    
N36   O8    1.301937 A    
C2    N2    1.308837 A    
C52   C80   1.497058 S    
N11   Ni7   1.867825 S    
N34   O3    1.300014 A    
C15   N15   1.333192 A    
C86   H46   1.082102 S    
C75   N35   1.463233 S    
N43   O22   1.300335 A    
C74   C78   1.507938 S    
C16   N16   1.332523 A    
N2    N30   1.393960 A    
C1    C33   1.375816 A    
C61   H29   1.076252 S    
N34   O4    1.302281 A    
N30   Ni6   1.832881 S    
N44   O23   1.301617 A    
C23   H19   1.073544 S    
C6    H6    1.075268 S    
C47   C55   1.452874 S    
C76   C80   1.507417 S    
N7    N27   1.396819 A    
N38   O11   1.299004 A    
N2    Ni1   1.871959 S    
N23   Ni2   1.843063 S    
C15   C47   1.374652 A    
C43   C85   1.417103 S    
C69   C73   1.505420 S    
C64   C68   1.408338 A    
C21   C45   1.381182 A    
N19   Ni4   1.873397 S    
C25   C37   1.391913 A    
C41   C87   1.444846 S    
C5    H5    1.075325 S    
C34   C83   1.420901 S    
C24   H20   1.073682 S    
C11   N11   1.333114 A    
C45   C53   1.451798 S    
C6    N6    1.336938 A    
C53   C59   1.400400 A    
C23   C47   1.381088 A    
C14   C46   1.380771 A    
C66   C72   1.402350 A    
C5    N5    1.336619 A    
N32   Ni8   1.832881 S    
N4    Ni2   1.871959 S    
C67   C69   1.402614 A    
N10   N18   1.371130 A    
C12   C44   1.385367 A    
C26   N42   1.430907 S    
C17   N37   1.419909 S    
N28   Ni7   1.808231 S    
C17   N17   1.321237 A    
N7    Ni4   1.842708 S    
C79   Cl3   1.791230 S    
C49   C69   1.396104 A    
C20   N40   1.420088 S    
C21   N21   1.342329 A    
C13   H13   1.070819 S    
C83   C85   1.332273 D    
C82   C88   1.336095 D    
C14   N14   1.335255 A    
C63   C67   1.405509 A    
C80   Cl4   1.791234 S    
N33   O1    1.300178 A    
C17   C41   1.376531 A    
C78   Cl2   1.791235 S    
C81   C87   1.338947 D    
C14   H14   1.071370 S    
C20   N20   1.321683 A    
C16   H16   1.071471 S    
N16   Ni7   1.890991 S    
C61   C65   1.405499 A    
C12   N12   1.341655 A    
N42   O20   1.300326 A    
N37   O9    1.298998 A    
N14   Ni5   1.890991 S    
C51   C79   1.497068 S    
N39   O14   1.299017 A    
C38   C65   1.470859 S    
N6    N26   1.394069 A    
C27   N43   1.430713 S    
C76   H36   1.114200 S    
C77   H37   1.111230 S    
N36   O7    1.300115 A    
C24   C48   1.382196 A    
N41   O18   1.300226 A    
C13   N13   1.332624 A    
C58   C62   1.393809 A    
C81   H41   1.075018 S    
N15   Ni8   1.889454 S    
C9    N9    1.341695 A    
C4    C36   1.375196 A    
C10   H10   1.081478 S    
C62   C66   1.405218 A    
