data_mof_unit_14917.cif
_audit_creation_date              2012-12-11T16:26:34-0500
_audit_creation_method            fapswitch 2.2
_symmetry_space_group_name_H-M    P1
_symmetry_Int_Tables_number       1
_space_group_crystal_system       triclinic
_cell_length_a                    6.936766
_cell_length_b                    17.590255
_cell_length_c                    19.408553
_cell_angle_alpha                 108.568417
_cell_angle_beta                  89.675153
_cell_angle_gamma                 90.544941
_cell_volume                      2244.83140691

loop_
_atom_site_label
_atom_site_type_symbol
_atom_type_description
_atom_site_fract_x
_atom_site_fract_y
_atom_site_fract_z
_atom_type_partial_charge
O1    O     O_R   0.494330 0.415720 0.413720 -0.535316
O2    O     O_R   0.819330 0.430070 0.560210 -0.545921
O3    O     O_R   0.994320 0.584280 0.586280 -0.537438
C1    C     C_R   0.650330 0.415564 0.582324 0.704562
O4    O     O_R   0.823730 0.406300 0.412670 -0.536693
O5    O     O_R   0.998760 0.560340 0.437690 -0.543376
C2    C     C_R   0.654809 0.384072 0.384489 0.698446
O6    O     O_R   0.489890 0.439660 0.562310 -0.541996
O7    O     O_3   0.662340 0.550560 0.508380 -0.369526
V1    V     V_3+5 0.935370 0.490620 0.498450 1.415973
O8    O     O_R   0.328750 0.569930 0.439790 -0.542877
C3    C     C_R   0.160325 0.586215 0.419150 0.711474
O9    O     O_R   0.324340 0.593700 0.587330 -0.538236
C4    C     C_R   0.155471 0.616618 0.614890 0.694515
V2    V     V_3+5 0.435940 0.509380 0.501550 1.417480
O10   O     O_3   0.159100 0.449440 0.491620 -0.368089
H1    H     H_    0.911032 0.855846 0.567134 0.112036
C5    C     C_R   0.267994 0.599104 0.752341 -0.226091
C6    C     C_R   0.323478 0.587938 0.817722 0.339637
C7    C     C_R   0.308951 0.651924 0.882414 -0.126519
C8    C     C_R   0.243439 0.726387 0.881925 -0.207072
C9    C     C_R   0.189598 0.739239 0.816396 0.069544
C10   C     C_R   0.202168 0.674302 0.750253 0.033923
C11   C     C_R   0.119886 0.814791 0.816255 -0.169016
C12   C     C_R   0.062511 0.825247 0.749834 0.065399
C13   C     C_R   0.075354 0.760311 0.683615 0.068580
C14   C     C_R   0.145498 0.684880 0.683777 -0.164452
C15   C     C_R   0.994911 0.900183 0.747731 -0.147032
C16   C     C_R   0.940274 0.910650 0.682393 -0.121705
C17   C     C_R   0.952764 0.847293 0.617809 -0.118523
C18   C     C_R   0.020009 0.772977 0.618053 -0.134740
H2    H     H_    0.276843 0.548117 0.703300 0.106246
H3    H     H_    0.345290 0.643916 0.933821 0.133425
H4    H     H_    0.233146 0.773386 0.933740 0.119219
H5    H     H_    0.984376 0.951626 0.796319 0.105760
H6    H     H_    0.888824 0.968389 0.681872 0.116241
H7    H     H_    0.029198 0.725924 0.566242 0.097051
C19   C     C_R   0.986560 0.634981 0.328630 -0.180068
C20   C     C_R   0.150727 0.637785 0.371747 -0.073554
C21   C     C_R   0.304671 0.689553 0.368813 -0.205314
C22   C     C_R   0.295926 0.737326 0.322949 0.109772
C23   C     C_R   0.132824 0.732296 0.278491 0.071099
C24   C     C_R   0.977717 0.681045 0.281541 0.091978
C25   C     C_R   0.448157 0.789393 0.320029 -0.186419
C26   C     C_R   0.440904 0.834663 0.272364 -0.191094
C27   C     C_R   0.281234 0.828700 0.226724 0.093115
C28   C     C_R   0.125634 0.777828 0.230242 0.060929
C29   C     C_R   0.963255 0.771984 0.185249 0.082961
C30   C     C_R   0.810342 0.720525 0.188637 -0.163593
C31   C     C_R   0.817521 0.675676 0.236491 -0.154994
C32   C     C_R   0.274373 0.872632 0.177676 -0.213367
C33   C     C_R   0.112284 0.867535 0.132877 -0.086384
C34   C     C_R   0.956759 0.817397 0.137505 -0.225032
H8    H     H_    0.867312 0.595246 0.330212 0.130855
H9    H     H_    0.431083 0.692765 0.402244 0.123490
H10   H     H_    0.574101 0.794424 0.354022 0.127442
H11   H     H_    0.561333 0.873745 0.270663 0.127578
H12   H     H_    0.394275 0.911662 0.175118 0.123201
H13   H     H_    0.831425 0.812889 0.103259 0.129984
H14   H     H_    0.684634 0.715153 0.154455 0.148204
H15   H     H_    0.697491 0.636817 0.238473 0.169465
C35   C     C_R   0.784086 0.182130 0.866778 -0.224293
C36   C     C_R   0.622587 0.133660 0.868247 -0.086067
C37   C     C_R   0.465625 0.132234 0.822103 -0.215251
C38   C     C_R   0.469285 0.178044 0.774684 0.089771
C39   C     C_R   0.630342 0.227440 0.774279 0.051343
C40   C     C_R   0.787829 0.229834 0.820786 0.086294
C41   C     C_R   0.314611 0.175305 0.727601 -0.185637
C42   C     C_R   0.317993 0.222007 0.681158 -0.187567
C43   C     C_R   0.476305 0.272136 0.680817 0.093924
C44   C     C_R   0.633948 0.274448 0.727226 0.054297
C45   C     C_R   0.795271 0.323630 0.726615 0.075726
C46   C     C_R   0.949461 0.326713 0.773992 -0.189379
C47   C     C_R   0.945808 0.280222 0.820634 -0.176066
C48   C     C_R   0.480365 0.319482 0.634563 -0.240002
C49   C     C_R   0.642390 0.367451 0.632641 -0.080245
C50   C     C_R   0.799313 0.369061 0.678865 -0.216468
H16   H     H_    0.905084 0.183867 0.902380 0.129669
H17   H     H_    0.341141 0.094581 0.822446 0.123679
H18   H     H_    0.190159 0.137392 0.727031 0.131314
H19   H     H_    0.196156 0.219162 0.645698 0.132983
H20   H     H_    0.359247 0.317745 0.599014 0.128842
H21   H     H_    0.923915 0.406597 0.678371 0.121265
H22   H     H_    0.073754 0.364686 0.774615 0.142901
H23   H     H_    0.067414 0.283256 0.856240 0.140640
H24   H     H_    0.866081 0.136882 0.426509 0.113816
C51   C     C_R   0.514579 0.403900 0.250073 -0.170662
C52   C     C_R   0.447275 0.414805 0.186171 0.206616
C53   C     C_R   0.441352 0.350803 0.122056 -0.126000
C54   C     C_R   0.500079 0.275271 0.121194 -0.177572
C55   C     C_R   0.563826 0.261575 0.185338 0.072971
C56   C     C_R   0.573243 0.327276 0.251124 0.038401
C57   C     C_R   0.621015 0.184120 0.184152 -0.172879
C58   C     C_R   0.689012 0.172076 0.248642 0.067852
C59   C     C_R   0.700241 0.237731 0.314408 0.070884
C60   C     C_R   0.643306 0.315516 0.315701 -0.171669
C61   C     C_R   0.742558 0.094838 0.249424 -0.146161
C62   C     C_R   0.806957 0.082745 0.312942 -0.123031
C63   C     C_R   0.817537 0.146707 0.377128 -0.117900
C64   C     C_R   0.764006 0.223257 0.378274 -0.136625
H25   H     H_    0.520432 0.455946 0.298270 0.127392
H26   H     H_    0.391379 0.359561 0.072395 0.144946
H27   H     H_    0.495412 0.228077 0.069409 0.118918
H28   H     H_    0.733723 0.042744 0.201315 0.104728
H29   H     H_    0.847373 0.023256 0.312433 0.114612
H30   H     H_    0.771408 0.270482 0.429996 0.105911
O11   O     O_R   0.775200 0.060470 0.937800 -0.541619
O12   O     O_R   0.441110 0.093720 0.087350 -0.538596
O13   O     O_R   0.266330 0.939630 0.062280 -0.541847
C65   C     C_R   0.609908 0.115787 0.115504 0.696117
O14   O     O_R   0.445750 0.069950 0.939820 -0.545098
O15   O     O_R   0.271000 0.915700 0.913700 -0.535448
C66   C     C_R   0.614800 0.084905 0.918059 0.706306
O16   O     O_R   0.770530 0.084400 0.086380 -0.536044
O17   O     O_3   0.602830 0.949510 0.991680 -0.368681
V3    V     V_3+5 0.329710 0.009370 0.001550 1.415094
O18   O     O_R   0.940990 0.906170 0.912570 -0.538257
C67   C     C_R   0.109921 0.883192 0.885100 0.696534
O19   O     O_R   0.936350 0.929940 0.060100 -0.545872
C68   C     C_R   0.104456 0.915449 0.082278 0.704719
V4    V     V_3+5 0.829160 0.990450 0.998310 1.414811
O20   O     O_3   0.105910 0.050480 0.008320 -0.367789
I1    I     I_    0.353402 0.527626 0.184638 -0.483599
N1    N     N_2   0.384741 0.511110 0.818590 -0.529668
H31   H     H_    0.356236 0.464678 0.771501 0.250583
C69   C     C_3   0.578440 0.508220 0.844901 -0.505970
H32   H     H_    0.608077 0.446704 0.845999 0.209622
H33   H     H_    0.595526 0.549990 0.901075 0.201422
H34   H     H_    0.684903 0.523751 0.808375 0.191908

loop_
_geom_bond_atom_site_label_1
_geom_bond_atom_site_label_2
_ccdc_geom_bond_type
C41   H18   S    
C51   C52   A    
C57   C58   A    
O17   V4    S    
C53   H26   S    
C46   C47   A    
C59   C60   A    
C1    O6    A    
C61   C62   A    
C34   H13   S    
C26   C27   A    
C33   C34   A    
C12   C15   A    
C2    C60   S    
C16   H6    S    
C26   H11   S    
C13   C14   A    
C35   C36   A    
C62   H29   S    
V3    O20   S    
C35   C40   A    
C69   H32   S    
N1    C69   S    
C15   C16   A    
O5    C3    A    
C19   C20   A    
C50   H21   S    
O17   V3    S    
C56   C60   A    
C5    C6    A    
C22   C23   A    
O18   V4    S    
O11   C66   A    
O13   V3    S    
C8    C9    A    
C51   H25   S    
O16   V4    S    
O8    V2    S    
C39   C44   A    
C15   H5    S    
C41   C42   A    
O14   V3    S    
O1    V2    S    
C10   C14   A    
C4    C14   S    
O7    V1    S    
C65   O16   A    
C46   H22   S    
C55   C56   A    
C57   C65   S    
C52   C53   A    
C38   C41   A    
C39   C40   A    
C13   C18   A    
O9    C4    A    
H1    C17   S    
C42   C43   A    
C52   I1    S    
O19   V4    S    
C29   C34   A    
C6    N1    S    
C32   C33   A    
C11   C12   A    
C20   C21   A    
C32   H12   S    
C59   C64   A    
C8    H4    S    
C69   H34   S    
C12   C13   A    
C27   C32   A    
C18   H7    S    
O2    C1    A    
C48   C49   A    
C16   C17   A    
C55   C57   A    
C25   H10   S    
C28   C29   A    
C19   H8    S    
O19   C68   A    
C21   H9    S    
O14   C66   A    
C40   C47   A    
C49   C50   A    
H24   C63   S    
C30   H14   S    
V4    O20   S    
C43   C44   A    
O3    C4    A    
C7    H3    S    
C33   C68   S    
C21   C22   A    
C62   C63   A    
O6    V2    S    
O9    V2    S    
C37   H17   S    
C9    C11   A    
C5    H2    S    
C23   C24   A    
O11   V4    S    
O2    V1    S    
C24   C31   A    
O15   V3    S    
C25   C26   A    
O4    C2    A    
C27   C28   A    
C29   C30   A    
C69   H33   S    
O1    C2    A    
C11   C67   S    
C35   H16   S    
C45   C46   A    
O5    V1    S    
C45   C50   A    
O8    C3    A    
C48   H20   S    
C64   H30   S    
C58   C61   A    
C63   C64   A    
C37   C38   A    
O12   V3    S    
C6    C7    A    
O7    V2    S    
O4    V1    S    
O3    V1    S    
V1    O10   S    
O18   C67   A    
O15   C67   A    
C54   C55   A    
C17   C18   A    
C3    C20   S    
C5    C10   A    
C22   C25   A    
O12   C65   A    
C23   C28   A    
C38   C39   A    
C47   H23   S    
C58   C59   A    
C54   H27   S    
C1    C49   S    
C61   H28   S    
C42   H19   S    
C36   C37   A    
C36   C66   S    
C19   C24   A    
C44   C45   A    
C7    C8    A    
C30   C31   A    
C43   C48   A    
C31   H15   S    
C9    C10   A    
C53   C54   A    
C51   C56   A    
V2    O10   S    
O13   C68   A    
N1    H31   S    
