data_mof_unit_35620.cif
_audit_creation_date              2012-12-10T16:57:42-0500
_audit_creation_method            fapswitch 2.2
_symmetry_space_group_name_H-M    P1
_symmetry_Int_Tables_number       1
_space_group_crystal_system       triclinic
_cell_length_a                    7.77094
_cell_length_b                    8.57411
_cell_length_c                    19.12611
_cell_angle_alpha                 91.328534
_cell_angle_beta                  84.493714
_cell_angle_gamma                 93.849661
_cell_volume                      1265.4293156

loop_
_atom_site_label
_atom_site_type_symbol
_atom_type_description
_atom_site_fract_x
_atom_site_fract_y
_atom_site_fract_z
_atom_type_partial_charge
C1    C     C_R   0.545967 0.794844 0.498187 0.970396
C2    C     C_R   0.682159 0.553361 0.177695 0.191056
C3    C     C_R   0.497459 0.543728 0.855539 0.079981
C4    C     C_R   0.528747 0.573194 0.145710 0.053553
C5    C     C_R   0.654362 0.552970 0.812938 -0.206346
C6    C     C_R   0.369028 0.574814 0.186381 -0.207072
C7    C     C_R   0.656007 0.535623 0.740868 -0.200106
C8    C     C_R   0.358290 0.549214 0.257953 -0.200844
C9    C     C_R   0.499872 0.509687 0.710566 -0.059581
C10   C     C_R   0.508082 0.522955 0.289732 -0.069392
C11   C     C_R   0.527808 0.574626 0.069915 0.269667
C12   C     C_R   0.454034 0.205156 0.501802 0.972834
C13   C     C_R   0.507176 0.556518 0.930517 0.283054
C14   C     C_3   0.164963 0.496072 0.869706 -0.433112
C15   C     C_3   0.143859 0.343437 0.910223 -0.816721
C16   C     C_3   0.861204 0.567425 0.138309 -0.427831
C17   C     C_3   0.936311 0.407690 0.126510 -0.837117
C18   C     C_2   0.570130 0.958388 0.497124 -0.380232
C19   C     C_2   0.429871 0.041606 0.502838 -0.381420
C20   C     C_R   0.500051 0.500751 0.634595 0.872278
C21   C     C_R   0.500838 0.503063 0.365372 0.870699
C22   C     C_R   0.342051 0.498931 0.753006 -0.230282
C23   C     C_R   0.669283 0.526811 0.249600 -0.209501
C24   C     C_R   0.338395 0.514452 0.825946 0.184983
H1    H     H_    0.221408 0.476956 0.729259 0.154649
H2    H     H_    0.985813 0.618355 0.552777 0.187559
H3    H     H_    0.161456 0.242316 0.873460 0.259297
H4    H     H_    0.238556 0.342053 0.949993 0.262799
H5    H     H_    0.011556 0.330839 0.937995 0.259932
H6    H     H_    0.147117 0.597261 0.906233 0.223286
H7    H     H_    0.057801 0.494923 0.835246 0.196451
H8    H     H_    0.960714 0.357822 0.177447 0.249605
H9    H     H_    0.846072 0.325508 0.099931 0.277075
H10   H     H_    0.060826 0.420218 0.092793 0.253401
H11   H     H_    0.860744 0.625418 0.087085 0.221976
H12   H     H_    0.786864 0.511881 0.274265 0.161993
H13   H     H_    0.948341 0.644025 0.169066 0.194276
H14   H     H_    0.775912 0.575544 0.835768 0.142224
H15   H     H_    0.251462 0.591022 0.162254 0.161505
H16   H     H_    0.779037 0.545396 0.708928 0.156176
H17   H     H_    0.233040 0.549366 0.288173 0.160094
H18   H     H_    0.702472 0.009765 0.491665 0.179729
H19   H     H_    0.297529 0.990227 0.508294 0.179755
H20   H     H_    0.014182 0.381639 0.447227 0.188685
N1    N     N_R   0.611906 0.464173 0.960965 -0.178692
N2    N     N_R   0.422869 0.667345 0.039419 -0.178957
N3    N     N_R   0.620817 0.472232 0.029733 -0.171529
N4    N     N_R   0.413481 0.659014 0.970468 -0.179198
N5    N     N_2   0.950330 0.457950 0.481240 -0.176063
N6    N     N_2   0.049670 0.542050 0.518760 -0.175793
O1    O     O_R   0.389250 0.738570 0.504600 -0.610826
O2    O     O_R   0.610750 0.261430 0.495400 -0.609736
O3    O     O_R   0.678400 0.711620 0.492580 -0.629478
O4    O     O_R   0.321600 0.288380 0.507420 -0.627926
O5    O     O_R   0.355380 0.513500 0.607880 -0.622254
O6    O     O_R   0.644620 0.486500 0.392120 -0.624502
O7    O     O_R   0.644530 0.486550 0.595850 -0.626625
O8    O     O_R   0.355470 0.513450 0.404150 -0.626940
Zn1   Zn    Zn3+2 0.306930 0.517990 0.508030 0.939873
Zn2   Zn    Zn3+2 0.693070 0.482010 0.491970 0.939231

loop_
_geom_bond_atom_site_label_1
_geom_bond_atom_site_label_2
_ccdc_geom_bond_type
H20   N5    S    
C21   O6    A    
C2    C4    A    
C7    H16   S    
C5    C7    A    
O5    Zn1   S    
C10   C23   A    
C13   N4    A    
C2    C16   S    
C14   H7    S    
C9    C20   S    
C11   N3    A    
C3    C13   S    
C16   H13   S    
C18   H18   S    
C15   H4    S    
C21   O8    A    
C16   H11   S    
C5    H14   S    
C4    C11   S    
C13   N1    A    
C1    O1    A    
C1    C18   S    
N5    Zn2   S    
C17   H9    S    
C14   H6    S    
C20   O5    A    
N6    Zn1   S    
C12   C19   S    
C4    C6    A    
C12   O2    A    
O3    Zn2   S    
C19   H19   S    
C15   H5    S    
N2    N4    A    
O4    Zn1   S    
H2    N6    S    
C10   C21   S    
C15   H3    S    
C22   C24   A    
C9    C22   A    
O1    Zn1   S    
C17   H10   S    
C23   H12   S    
C8    H17   S    
C8    C10   A    
N5    N6    D    
N1    N3    A    
C14   C24   S    
C2    C23   A    
C7    C9    A    
C17   H8    S    
C1    O3    A    
C14   C15   S    
C18   C19   D    
C11   N2    A    
C6    C8    A    
O2    Zn2   S    
C3    C5    A    
O8    Zn1   S    
C6    H15   S    
C20   O7    A    
C12   O4    A    
O6    Zn2   S    
C3    C24   A    
C16   C17   S    
O7    Zn2   S    
C22   H1    S    
