data_mof_unit_20798.cif
_audit_creation_date              2012-12-11T14:24:52-0500
_audit_creation_method            fapswitch 2.2
_symmetry_space_group_name_H-M    P1
_symmetry_Int_Tables_number       1
_space_group_crystal_system       triclinic
_cell_length_a                    19.161981
_cell_length_b                    11.020341
_cell_length_c                    18.813339
_cell_angle_alpha                 89.818919
_cell_angle_beta                  91.908108
_cell_angle_gamma                 90.827541
_cell_volume                      3970.21093075

loop_
_atom_site_label
_atom_site_type_symbol
_atom_type_description
_atom_site_fract_x
_atom_site_fract_y
_atom_site_fract_z
_atom_type_partial_charge
C1    C     C_R   0.728517 0.375209 0.145818 0.527759
C2    C     C_R   0.250499 0.920093 0.076181 -0.003774
C3    C     C_R   0.705160 0.617918 0.404980 -0.076075
C4    C     C_R   0.949717 0.947590 0.509501 -0.104864
C5    C     C_R   0.124532 0.159784 0.431421 -0.098781
C6    C     C_R   0.458748 0.468043 0.501441 -0.108319
C7    C     C_R   0.656023 0.700500 0.425465 -0.106473
C8    C     C_R   0.938536 0.030178 0.456497 -0.132654
C9    C     C_R   0.100641 0.141811 0.499616 -0.150672
C10   C     C_R   0.449884 0.450987 0.428772 -0.107056
C11   C     C_R   0.628347 0.691238 0.492569 -0.155545
C12   C     C_R   0.871189 0.064174 0.439117 -0.092790
C13   C     C_R   0.256537 0.410513 0.927300 -0.007974
C14   C     C_R   0.137013 0.067384 0.546968 -0.011344
C15   C     C_R   0.386004 0.409209 0.401273 -0.096338
C16   C     C_R   0.653777 0.606551 0.541166 -0.038333
C17   C     C_R   0.743129 0.003098 0.438592 -0.003291
C18   C     C_R   0.237282 0.929141 0.572470 0.052614
C19   C     C_R   0.259469 0.403011 0.419400 0.002037
C20   C     C_R   0.738682 0.439560 0.570496 0.046400
C21   C     C_R   0.731550 0.378982 0.353547 0.546165
C22   C     C_R   0.289157 0.331454 0.638851 0.542360
C23   C     C_R   0.231624 0.879127 0.353969 0.552485
C24   C     C_R   0.741660 0.409706 0.071797 0.008205
C25   C     C_R   0.783976 0.841538 0.637438 0.521283
C26   C     C_R   0.563213 0.151284 0.360974 0.575072
C27   C     C_R   0.463152 0.156165 0.644653 0.574394
C28   C     C_R   0.065575 0.651002 0.360886 0.602386
C29   C     C_R   0.967520 0.656320 0.647027 0.568231
C30   C     C_R   0.729863 0.025797 0.363212 0.545176
C31   C     C_R   0.255171 0.970436 0.644318 0.528550
C32   C     C_R   0.244054 0.465979 0.353549 0.531143
C33   C     C_R   0.755726 0.473640 0.643353 0.528118
C34   C     C_3   0.517938 0.270940 0.973408 -0.104881
C35   C     C_R   0.695867 0.861214 0.961173 -0.013209
C36   C     C_3   0.462319 0.247365 0.029985 -0.115448
C37   C     C_3   0.996298 0.780670 0.976874 -0.099623
C38   C     C_3   0.948807 0.719803 0.032174 -0.124349
C39   C     C_3   0.568422 0.183746 0.013125 -0.117128
C40   C     C_3   0.432781 0.138579 0.986221 -0.118882
C41   C     C_3   0.061348 0.724211 0.014255 -0.114187
C42   C     C_3   0.941497 0.606079 0.984643 -0.115081
C43   C     C_3   0.512246 0.160363 0.068382 0.046370
C44   C     C_3   0.488983 0.162244 0.930899 0.046237
C45   C     C_3   0.013175 0.662780 0.068030 0.048143
C46   C     C_R   0.304852 0.864997 0.039106 0.012413
C47   C     C_3   0.989594 0.666188 0.930577 0.044312
C48   C     C_2   0.045944 0.179852 0.894972 0.214458
C49   C     C_2   0.952826 0.203905 0.111092 0.194148
C50   C     C_2   0.550639 0.635654 0.921273 0.198370
C51   C     C_2   0.451015 0.651916 0.083781 0.173580
C52   C     C_R   0.193550 0.377969 0.959240 -0.016541
C53   C     C_R   0.805015 0.383814 0.040283 0.002299
C54   C     C_R   0.700309 0.857868 0.036512 0.018450
C55   C     C_R   0.300458 0.859733 0.963757 0.008597
C56   C     C_R   0.192013 0.367657 0.034396 0.031156
C57   C     C_R   0.270962 0.375942 0.853865 0.537953
C58   C     C_R   0.806227 0.369129 0.965515 0.002997
C59   C     C_R   0.796775 0.001751 0.033502 -0.141617
C60   C     C_R   0.200841 0.992629 0.965086 -0.155228
C61   C     C_R   0.309791 0.448187 0.043455 -0.156473
C62   C     C_R   0.687222 0.438186 0.954898 -0.153516
C63   C     C_R   0.797820 0.993310 0.960588 -0.153045
C64   C     C_R   0.200825 0.987371 0.038053 -0.166128
C65   C     C_R   0.314667 0.442027 0.970862 -0.142182
C66   C     C_R   0.682743 0.433556 0.027811 -0.160754
C67   C     C_R   0.639913 0.800370 0.925988 -0.062359
C68   C     C_R   0.230601 0.877960 0.147289 0.526125
C69   C     C_R   0.361404 0.809215 0.075080 -0.117589
C70   C     C_R   0.134944 0.340833 0.917658 -0.067726
C71   C     C_R   0.864447 0.355933 0.082354 -0.120336
C72   C     C_R   0.088683 0.256188 0.944629 0.014994
C73   C     C_R   0.910687 0.271900 0.057793 0.006700
C74   C     C_R   0.600070 0.714817 0.961622 0.031174
C75   C     C_R   0.402033 0.725806 0.040595 0.020505
C76   C     C_R   0.611692 0.699196 0.034843 -0.159154
C77   C     C_R   0.391393 0.708607 0.967353 -0.087645
C78   C     C_R   0.092076 0.231464 0.017537 -0.196908
C79   C     C_R   0.769395 0.878160 0.852661 0.544405
C80   C     C_R   0.907377 0.241606 0.985536 -0.115478
C81   C     C_R   0.658909 0.773222 0.072535 -0.111991
C82   C     C_R   0.343313 0.778150 0.928757 -0.104286
C83   C     C_R   0.139147 0.294417 0.063208 -0.115932
C84   C     C_R   0.859801 0.298455 0.938309 -0.111261
C85   C     C_R   0.533004 0.154804 0.143885 0.553209
C86   C     C_R   0.467896 0.155703 0.855561 0.553443
C87   C     C_R   0.033839 0.655059 0.143462 0.559305
C88   C     C_R   0.967405 0.656229 0.855736 0.554541
C89   C     C_R   0.748401 0.935194 0.072885 -0.005365
C90   C     C_3   0.483300 0.051609 0.025568 -0.104300
C91   C     C_R   0.250876 0.931713 0.926506 -0.005239
C92   C     C_R   0.248186 0.418309 0.076432 -0.007738
C93   C     C_R   0.749818 0.414575 0.922596 -0.002837
C94   C     C_R   0.489075 0.156561 0.572018 -0.043615
C95   C     C_R   0.543200 0.146718 0.435749 -0.050999
C96   C     C_R   0.997149 0.654976 0.575414 -0.050197
C97   C     C_R   0.050803 0.644993 0.438003 -0.034447
C98   C     C_R   0.473035 0.055491 0.526607 -0.053558
C99   C     C_R   0.509088 0.041370 0.464181 -0.034391
C100  C     C_R   0.977753 0.558992 0.527974 -0.048546
C101  C     C_3   0.538855 0.075288 0.969491 -0.111426
C102  C     C_R   0.015912 0.542318 0.466926 -0.030004
C103  C     C_R   0.560049 0.244447 0.481012 0.350568
C104  C     C_R   0.537037 0.244878 0.550565 0.365192
C105  C     C_R   0.070501 0.738967 0.484642 0.340956
C106  C     C_R   0.050248 0.735614 0.555867 0.337822
C107  C     C_R   0.425332 0.962529 0.544107 -0.067938
C108  C     C_R   0.510658 0.921195 0.434566 -0.075965
C109  C     C_R   0.924231 0.473608 0.541359 -0.064972
C110  C     C_R   0.014587 0.424938 0.436287 -0.073066
C111  C     C_R   0.923771 0.359652 0.510322 -0.109271
C112  C     C_3   0.006317 0.549289 0.021118 -0.097744
C113  C     C_R   0.967627 0.337752 0.456073 -0.136887
C114  C     C_R   0.430269 0.845934 0.517208 -0.115290
C115  C     C_R   0.471703 0.825872 0.460903 -0.143055
C116  C     C_R   0.768541 0.887227 0.566836 0.008626
C117  C     C_R   0.250740 0.915398 0.426130 0.032899
C118  C     C_R   0.282140 0.356866 0.563347 0.000426
C119  C     C_R   0.750480 0.414120 0.425191 0.040377
C120  C     C_R   0.824783 0.924453 0.524884 0.016655
C121  C     C_R   0.215715 0.014106 0.454954 0.047794
C122  C     C_R   0.340160 0.389941 0.520383 0.000651
C123  C     C_3   0.053987 0.610443 0.966594 -0.123127
C124  C     C_R   0.724623 0.522326 0.451146 0.040450
C125  C     C_R   0.812618 0.001378 0.467805 0.041421
C126  C     C_R   0.197812 0.006594 0.526318 0.103981
C127  C     C_R   0.328650 0.395169 0.446124 0.019557
C128  C     C_R   0.706760 0.525222 0.522632 0.084556
C129  C     C_R   0.688101 0.969835 0.480775 -0.169191
C130  C     C_R   0.271901 0.832147 0.544392 -0.145598
C131  C     C_R   0.203973 0.386919 0.464234 -0.151906
C132  C     C_R   0.764260 0.333061 0.544530 -0.142369
C133  C     C_R   0.740930 0.971705 0.147510 0.548945
C134  C     C_R   0.749397 0.920158 0.923385 -0.009891
C135  C     C_R   0.258780 0.971159 0.852188 0.538448
C136  C     C_R   0.240767 0.468477 0.148454 0.537129
C137  C     C_R   0.758704 0.468176 0.851259 0.540305
C138  C     C_R   0.700573 0.919143 0.547027 -0.128795
C139  C     C_R   0.277113 0.823336 0.471265 -0.118868
C140  C     C_R   0.214785 0.355998 0.533871 -0.141343
C141  C     C_R   0.766894 0.318937 0.471973 -0.121919
C142  C     C_R   0.893409 0.890501 0.540441 -0.089566
C143  C     C_R   0.185101 0.104128 0.411082 -0.062366
C144  C     C_R   0.407038 0.429000 0.547211 -0.106580
Cr1   Cr    Cr6+3 0.772820 0.169820 0.252640 1.007883
Cr2   Cr    Cr6+3 0.383280 0.011130 0.749340 1.028952
Cr3   Cr    Cr6+3 0.116720 0.511130 0.250660 0.982422
Cr4   Cr    Cr6+3 0.883280 0.511130 0.749340 1.046489
Cr5   Cr    Cr6+3 0.227180 0.169820 0.747360 1.058521
Cr6   Cr    Cr6+3 0.272820 0.669820 0.252640 1.002255
Cr7   Cr    Cr6+3 0.727180 0.669820 0.747360 1.053897
Cr8   Cr    Cr6+3 0.615040 0.323610 0.249150 1.037891
Cr9   Cr    Cr6+3 0.384960 0.323610 0.750850 1.051468
Cr10  Cr    Cr6+3 0.115040 0.823610 0.249150 1.074286
Cr11  Cr    Cr6+3 0.884960 0.823610 0.750850 1.058203
Cr12  Cr    Cr6+3 0.616720 0.011130 0.250660 0.983430
F1    F     F_    0.600065 0.338166 0.458326 -0.627487
F2    F     F_    0.560172 0.332816 0.596338 -0.628011
F3    F     F_    0.108345 0.833544 0.460846 -0.632621
F4    F     F_    0.077397 0.817110 0.603557 -0.639935
H1    H     H_    0.624714 0.199928 0.025980 0.126027
H2    H     H_    0.965877 0.254304 0.427824 0.088026
H3    H     H_    0.402457 0.770241 0.539699 0.113315
H4    H     H_    0.475627 0.735512 0.439008 0.111651
H5    H     H_    0.636144 0.979633 0.461257 0.111582
H6    H     H_    0.295344 0.764810 0.579348 0.124582
H7    H     H_    0.151527 0.403831 0.446426 0.127768
H8    H     H_    0.782550 0.261902 0.580121 0.128444
H9    H     H_    0.901716 0.816938 0.574408 0.134512
H10   H     H_    0.202690 0.120334 0.357684 0.107768
H11   H     H_    0.421202 0.437238 0.602535 0.199282
H12   H     H_    0.376599 0.119988 0.973616 0.126409
H13   H     H_    0.723297 0.622511 0.351082 0.117396
H14   H     H_    0.657111 0.899480 0.580791 0.145452
H15   H     H_    0.300039 0.742304 0.450082 0.151885
H16   H     H_    0.169386 0.341838 0.565845 0.155826
H17   H     H_    0.779757 0.232176 0.452176 0.117575
H18   H     H_    0.002259 0.932530 0.526783 0.207676
H19   H     H_    0.096243 0.215455 0.393575 0.090983
H20   H     H_    0.507642 0.505020 0.522781 0.193368
H21   H     H_    0.637602 0.767918 0.388095 0.132216
H22   H     H_    0.982379 0.065913 0.428350 0.133566
H23   H     H_    0.111046 0.772704 0.028198 0.135797
H24   H     H_    0.053915 0.184824 0.516595 0.117129
H25   H     H_    0.491994 0.472461 0.393679 0.167362
H26   H     H_    0.588909 0.752448 0.508896 0.113919
H27   H     H_    0.866794 0.139148 0.402281 0.143724
H28   H     H_    0.112899 0.050654 0.597201 0.195955
H29   H     H_    0.380080 0.397802 0.344232 0.133597
H30   H     H_    0.626619 0.601244 0.590361 0.177779
H31   H     H_    0.532559 0.358475 0.949110 0.116495
H32   H     H_    0.431550 0.315660 0.057625 0.151818
H33   H     H_    0.992838 0.875537 0.957214 0.127485
H34   H     H_    0.891425 0.560177 0.970166 0.138245
H35   H     H_    0.905663 0.763459 0.060085 0.134972
H36   H     H_    0.470070 0.961823 0.048337 0.132729
H37   H     H_    0.570148 0.006822 0.942557 0.128577
H38   H     H_    0.010359 0.454249 0.039975 0.148084
H39   H     H_    0.097514 0.570770 0.937782 0.122057
H40   H     H_    0.834377 0.062008 0.059087 0.202556
H41   H     H_    0.161109 0.046357 0.938861 0.155395
H42   H     H_    0.354703 0.476827 0.074836 0.196305
H43   H     H_    0.641400 0.461157 0.923192 0.146785
H44   H     H_    0.627357 0.817783 0.870505 0.177932
H45   H     H_    0.385186 0.979320 0.579524 0.165809
H46   H     H_    0.373362 0.827341 0.130652 0.119970
H47   H     H_    0.129733 0.365526 0.862069 0.174718
H48   H     H_    0.869038 0.383390 0.137552 0.120568
H49   H     H_    0.839192 0.039817 0.933403 0.144982
H50   H     H_    0.158646 0.030387 0.064519 0.153916
H51   H     H_    0.365712 0.456789 0.949395 0.162049
H52   H     H_    0.631507 0.443030 0.049302 0.155987
H53   H     H_    0.061231 0.158428 0.038074 0.160137
H54   H     H_    0.938346 0.168962 0.966986 0.126971
H55   H     H_    0.585626 0.628887 0.063599 0.162784
H56   H     H_    0.546651 0.892161 0.395817 0.144112
H57   H     H_    0.419192 0.640743 0.939506 0.154513
H58   H     H_    0.665959 0.757479 0.129071 0.135829
H59   H     H_    0.336704 0.760797 0.872384 0.147599
H60   H     H_    0.139693 0.272149 0.119244 0.139078
H61   H     H_    0.859313 0.273069 0.882804 0.155089
H62   H     H_    0.027476 0.091163 0.911875 0.084543
H63   H     H_    0.971192 0.248192 0.159811 0.104739
H64   H     H_    0.526743 0.559206 0.947278 0.133822
H65   H     H_    0.468196 0.682099 0.136465 0.105989
H66   H     H_    0.883554 0.494156 0.576110 0.156127
H67   H     H_    0.049921 0.394779 0.397423 0.141144
H68   H     H_    0.891142 0.286898 0.528745 0.121694
O1    O     O_R   0.788190 0.043000 0.172520 -0.495479
O2    O     O_R   0.454170 0.051610 0.669840 -0.529740
O3    O     O_R   0.045830 0.551610 0.330160 -0.551690
O4    O     O_R   0.954170 0.551610 0.669840 -0.519078
O5    O     O_R   0.681920 0.959720 0.327070 -0.530019
O6    O     O_R   0.318080 0.959720 0.672930 -0.535832
O7    O     O_R   0.181920 0.459720 0.327070 -0.539802
O8    O     O_R   0.818080 0.459720 0.672930 -0.529842
O9    O     O_3   0.668190 0.168190 0.250820 -0.293818
O10   O     O_3   0.331810 0.168190 0.749180 -0.295362
O11   O     O_3   0.168190 0.668190 0.250820 -0.275264
O12   O     O_R   0.211810 0.043000 0.827480 -0.500294
O13   O     O_3   0.831810 0.668190 0.749180 -0.290297
O14   O     O_R   0.766240 0.292300 0.176860 -0.507678
O15   O     O_R   0.233760 0.292300 0.823140 -0.496807
O16   O     O_R   0.266240 0.792300 0.176860 -0.509529
O17   O     O_R   0.733760 0.792300 0.823140 -0.502910
O18   O     O_R   0.670310 0.409160 0.168720 -0.528903
O19   O     O_R   0.329690 0.409160 0.831280 -0.517398
O20   O     O_R   0.170310 0.909160 0.168720 -0.525516
O21   O     O_R   0.829690 0.909160 0.831280 -0.514935
O22   O     O_R   0.556160 0.251900 0.173380 -0.491306
O23   O     O_R   0.288190 0.543000 0.172520 -0.518373
O24   O     O_R   0.443840 0.251900 0.826620 -0.495696
O25   O     O_R   0.056160 0.751900 0.173380 -0.482994
O26   O     O_R   0.943840 0.751900 0.826620 -0.499565
O27   O     O_R   0.545410 0.050140 0.168240 -0.523901
O28   O     O_R   0.454590 0.050140 0.831760 -0.502281
O29   O     O_R   0.045410 0.550140 0.168240 -0.533236
O30   O     O_R   0.954590 0.550140 0.831760 -0.493520
O31   O     O_R   0.681530 0.958350 0.176970 -0.505457
O32   O     O_R   0.318470 0.958350 0.823030 -0.503798
O33   O     O_R   0.181530 0.458350 0.176970 -0.512267
O34   O     O_R   0.711810 0.543000 0.827480 -0.485812
O35   O     O_R   0.818470 0.458350 0.823030 -0.507789
O36   O     O_R   0.788610 0.044480 0.334450 -0.518881
O37   O     O_R   0.211390 0.044480 0.665550 -0.524490
O38   O     O_R   0.288610 0.544480 0.334450 -0.523356
O39   O     O_R   0.711390 0.544480 0.665550 -0.519570
O40   O     O_R   0.766630 0.293670 0.326970 -0.547897
O41   O     O_R   0.233370 0.293670 0.673030 -0.498887
O42   O     O_R   0.266630 0.793670 0.326970 -0.518252
O43   O     O_R   0.733370 0.793670 0.673030 -0.509713
O44   O     O_R   0.670730 0.410640 0.330640 -0.474563
O45   O     O_R   0.556550 0.253260 0.323480 -0.457360
O46   O     O_R   0.329270 0.410640 0.669360 -0.531419
O47   O     O_R   0.170730 0.910640 0.330640 -0.477756
O48   O     O_R   0.829270 0.910640 0.669360 -0.504198
O49   O     O_2   0.032161 0.213527 0.834271 -0.505983
O50   O     O_2   0.963581 0.095848 0.103409 -0.548589
O51   O     O_2   0.536942 0.653153 0.858224 -0.522717
O52   O     O_2   0.470317 0.553820 0.062668 -0.609937
O53   O     O_R   0.443450 0.253260 0.676520 -0.489392
O54   O     O_R   0.056550 0.753260 0.323480 -0.443522
O55   O     O_R   0.943450 0.753260 0.676520 -0.494324
O56   O     O_R   0.545830 0.051610 0.330160 -0.554242

loop_
_geom_bond_atom_site_label_1
_geom_bond_atom_site_label_2
_ccdc_geom_bond_type
Cr2   O6    S    
C52   C70   A    
Cr10  O54   S    
Cr5   O37   S    
C57   O19   A    
C114  C115  A    
C28   O54   A    
C50   H64   S    
C135  O32   A    
C45   C87   S    
C84   H61   S    
C4    C142  A    
C95   C99   A    
C5    C143  A    
C10   H25   S    
C38   H35   S    
C5    H19   S    
C38   C45   S    
C131  C140  A    
Cr3   O3    S    
C46   C55   A    
C138  H14   S    
C97   C105  A    
C137  O34   A    
C94   C104  A    
C100  C109  A    
C15   C127  A    
C17   C30   S    
C64   H50   S    
C117  C139  A    
C20   C132  A    
C118  C140  A    
C19   C32   S    
C35   C134  A    
C112  H38   S    
C31   O6    A    
C85   O27   A    
C43   C85   S    
Cr8   O44   S    
C71   C73   A    
C7    H21   S    
C120  C125  A    
C103  F1    S    
C17   C129  A    
C37   H33   S    
Cr7   O17   S    
C37   C38   S    
C47   C123  S    
C44   C101  S    
Cr1   O36   S    
C69   H46   S    
C34   C44   S    
C111  C113  A    
C67   C74   A    
C33   O8    A    
C20   C33   S    
C119  C141  A    
C49   C73   S    
C18   C130  A    
C66   H52   S    
C53   C71   A    
C56   C83   A    
C22   C118  S    
C136  O33   A    
C29   O4    A    
Cr11  O48   S    
C80   H54   S    
C53   C58   A    
Cr12  O9    S    
C59   C63   A    
C14   C126  A    
C60   C64   A    
C21   C119  S    
C9    H24   S    
C76   H55   S    
C77   H57   S    
C48   H62   S    
C77   C82   A    
C50   O51   D    
Cr1   O40   S    
C30   O5    A    
Cr11  O55   S    
C107  H45   S    
C61   C65   A    
Cr6   O11   S    
C62   C93   A    
C41   C45   S    
C18   C31   S    
C1    O18   A    
C54   C81   A    
C21   O44   A    
Cr10  O25   S    
C28   C97   S    
C23   O42   A    
Cr2   O32   S    
C87   O29   A    
Cr8   O22   S    
Cr11  O21   S    
C68   O20   A    
C99   C108  A    
C144  H11   S    
C74   C76   A    
C108  C115  A    
C123  H39   S    
C25   O48   A    
C2    C68   S    
C109  C111  A    
C101  H37   S    
C13   C57   S    
C86   O28   A    
C118  C122  A    
C122  C127  A    
C42   C112  S    
C72   C78   A    
Cr7   O34   S    
Cr8   O9    S    
Cr2   O10   S    
C37   C47   S    
C26   O56   A    
C15   H29   S    
C131  H7    S    
C23   O47   A    
C48   C72   S    
C95   C103  A    
C89   C133  S    
C62   C66   A    
C34   C39   S    
C25   C116  S    
C70   H47   S    
C12   H27   S    
C116  C120  A    
C5    C9    A    
C61   H42   S    
Cr7   O13   S    
C110  C113  A    
C35   C67   A    
C59   H40   S    
C8    C12   A    
C75   C77   A    
C25   O43   A    
C22   O41   A    
C98   C99   A    
C6    C144  A    
C132  C141  A    
C79   C134  S    
Cr1   O1    S    
C6    H20   S    
C36   H32   S    
C143  H10   S    
C4    H18   S    
C27   C94   S    
C23   C117  S    
C29   C96   S    
C109  H66   S    
C61   C92   A    
Cr3   O11   S    
C18   C126  A    
C96   C100  A    
Cr1   O14   S    
C34   C36   S    
C37   C41   S    
C1    O14   A    
C40   C44   S    
C90   H36   S    
C24   C66   A    
C1    C24   S    
C31   O37   A    
C11   H26   S    
C80   C84   A    
C48   O49   D    
Cr9   O10   S    
C141  H17   S    
C111  H68   S    
C79   O17   A    
C58   C93   A    
C3    C7    A    
Cr8   O45   S    
Cr11  O26   S    
C94   C98   A    
C135  O12   A    
C55   C91   A    
C21   O40   A    
C78   C83   A    
Cr4   O4    S    
Cr6   O38   S    
Cr8   O18   S    
C97   C102  A    
Cr12  O27   S    
C88   O30   A    
C124  C128  A    
Cr12  O31   S    
Cr6   O16   S    
C49   H63   S    
C35   C54   A    
Cr6   O42   S    
C92   C136  S    
C63   H49   S    
C130  C139  A    
C78   H53   S    
C86   O24   A    
Cr9   O24   S    
C43   C90   S    
C63   C134  A    
C112  C123  S    
C104  F2    S    
Cr12  O56   S    
C88   O26   A    
C12   C125  A    
C24   C53   A    
C98   C107  A    
Cr3   O29   S    
C9    C14   A    
C107  C114  A    
C26   O45   A    
C13   C52   A    
C14   H28   S    
C11   C16   A    
C130  H6    S    
C27   O2    A    
Cr5   O10   S    
C108  H56   S    
C16   H30   S    
C142  H9    S    
C137  O35   A    
Cr7   O39   S    
C71   H48   S    
C102  C110  A    
C40   H12   S    
C3    C124  A    
C8    H22   S    
C6    C10   A    
C38   C42   S    
C105  C106  A    
C129  H5    S    
C110  H67   S    
C50   C74   S    
Cr5   O41   S    
C57   O15   A    
C105  F3    S    
C106  F4    S    
Cr9   O19   S    
C51   O52   D    
C69   C75   A    
C133  O1    A    
C60   H41   S    
C133  O31   A    
C91   C135  S    
C103  C104  A    
C41   H23   S    
C36   C43   S    
C40   C90   S    
C22   O46   A    
C140  H16   S    
C32   O7    A    
Cr3   O7    S    
C121  C143  A    
C139  H15   S    
C122  C144  A    
C4    C8    A    
Cr7   O43   S    
C45   C112  S    
Cr6   O23   S    
C13   C65   A    
C119  C124  A    
C2    C46   A    
C7    C11   A    
C33   O39   A    
C34   H31   S    
C51   C75   S    
C20   C128  A    
C10   C15   A    
C59   C89   A    
Cr5   O12   S    
C115  H4    S    
C42   H34   S    
C117  C121  A    
C46   C69   A    
C67   H44   S    
C113  H2    S    
C3    H13   S    
C129  C138  A    
Cr1   O9    S    
C51   H65   S    
C136  O23   A    
C32   O38   A    
Cr9   O46   S    
C39   H1    S    
Cr5   O15   S    
C85   O22   A    
C79   O21   A    
C44   C86   S    
C2    C64   A    
C39   C101  S    
C116  C138  A    
C19   C131  A    
C82   H59   S    
Cr9   O53   S    
C36   C40   S    
C120  C142  A    
C54   C89   A    
C87   O25   A    
C39   C43   S    
Cr10  O11   S    
Cr4   O8    S    
C90   C101  S    
C58   C84   A    
Cr12  O5    S    
C29   O55   A    
C100  C102  A    
C55   C82   A    
C16   C128  A    
C28   O3    A    
Cr10  O20   S    
Cr4   O13   S    
Cr3   O33   S    
Cr11  O13   S    
Cr2   O2    S    
C60   C91   A    
C26   C95   S    
C96   C106  A    
Cr2   O28   S    
C132  H8    S    
Cr4   O30   S    
C76   C81   A    
C27   O53   A    
C47   C88   S    
C41   C123  S    
C121  C126  A    
C83   H60   S    
C17   C125  A    
C114  H3    S    
C49   O50   D    
C68   O16   A    
C81   H58   S    
C19   C127  A    
C73   C80   A    
C30   O36   A    
C42   C47   S    
Cr4   O35   S    
Cr10  O47   S    
C62   H43   S    
C65   H51   S    
C93   C137  S    
C56   C92   A    
C70   C72   A    
C52   C56   A    
