data_mof_unit_40159.cif
_audit_creation_date              2012-12-11T14:52:41-0500
_audit_creation_method            fapswitch 2.2
_symmetry_space_group_name_H-M    P1
_symmetry_Int_Tables_number       1
_space_group_crystal_system       triclinic
_cell_length_a                    20.573457
_cell_length_b                    7.243705
_cell_length_c                    20.427805
_cell_angle_alpha                 90.003058
_cell_angle_beta                  101.400649
_cell_angle_gamma                 90.00364
_cell_volume                      2984.24840522

loop_
_atom_site_label
_atom_site_type_symbol
_atom_type_description
_atom_site_fract_x
_atom_site_fract_y
_atom_site_fract_z
_atom_type_partial_charge
O1    O     O_R   0.673670 0.377510 0.185950 -0.537319
O2    O     O_R   0.326330 0.622490 0.814050 -0.537319
O3    O     O_R   0.826330 0.877510 0.314050 -0.537293
O4    O     O_R   0.173670 0.122490 0.685950 -0.537292
O5    O     O_R   0.806260 0.705340 0.185590 -0.530269
O6    O     O_R   0.193740 0.294660 0.814410 -0.530270
O7    O     O_R   0.693740 0.205340 0.314410 -0.530268
O8    O     O_R   0.306260 0.794660 0.685590 -0.530265
C1    C     C_R   0.825634 0.538818 0.170833 0.712669
C2    C     C_R   0.174366 0.461182 0.829167 0.712672
C3    C     C_R   0.674365 0.038817 0.329166 0.712663
C4    C     C_R   0.325635 0.961183 0.670834 0.712668
O9    O     O_R   0.672940 0.707120 0.178050 -0.541898
O10   O     O_R   0.327060 0.292880 0.821950 -0.541897
O11   O     O_R   0.827060 0.207120 0.321950 -0.541900
O12   O     O_R   0.172940 0.792880 0.678050 -0.541901
O13   O     O_R   0.692060 0.879040 0.306460 -0.532004
O14   O     O_R   0.307940 0.120960 0.693540 -0.531996
O15   O     O_R   0.807940 0.379040 0.193540 -0.531992
O16   O     O_R   0.192060 0.620960 0.806460 -0.532007
C5    C     C_R   0.648456 0.536917 0.161301 0.703143
C6    C     C_R   0.351544 0.463083 0.838699 0.703150
C7    C     C_R   0.851543 0.036938 0.338701 0.703102
C8    C     C_R   0.148457 0.963062 0.661299 0.703094
O17   O     O_3   0.756430 0.544390 0.292140 -0.373707
O18   O     O_3   0.243570 0.455610 0.707860 -0.373699
O19   O     O_3   0.743570 0.044390 0.207860 -0.373702
O20   O     O_3   0.256430 0.955610 0.792140 -0.373712
V1    V     V_3+5 0.748810 0.818610 0.242180 1.480719
V2    V     V_3+5 0.251190 0.181390 0.757820 1.480710
V3    V     V_3+5 0.751190 0.318610 0.257820 1.480724
V4    V     V_3+5 0.248810 0.681390 0.742180 1.480714
C9    C     C_R   0.087188 0.988417 0.608681 -0.080759
C10   C     C_R   0.912812 0.011583 0.391319 -0.080759
C11   C     C_R   0.412801 0.488521 0.891328 -0.080790
C12   C     C_R   0.587199 0.511479 0.108672 -0.080790
C13   C     C_R   0.004818 0.806341 0.440297 -0.014941
C14   C     C_R   0.995182 0.193659 0.559703 -0.014939
C15   C     C_R   0.495328 0.305908 0.059560 -0.014785
C16   C     C_R   0.504673 0.694090 0.940439 -0.014790
C17   C     C_R   0.951469 0.852482 0.388946 -0.195549
C18   C     C_R   0.048531 0.147518 0.611054 -0.195554
C19   C     C_R   0.548645 0.352100 0.110938 -0.195308
C20   C     C_R   0.451356 0.647899 0.889061 -0.195306
C21   C     C_R   0.929294 0.128602 0.446567 -0.201198
C22   C     C_R   0.070706 0.871398 0.553433 -0.201197
C23   C     C_R   0.570628 0.628742 0.053511 -0.201232
C24   C     C_R   0.429372 0.371258 0.946488 -0.201235
C25   C     C_R   0.980711 0.081638 0.501563 0.112778
C26   C     C_R   0.019288 0.918362 0.498437 0.112777
C27   C     C_R   0.519231 0.581784 0.998493 0.112844
C28   C     C_R   0.480769 0.418216 0.001507 0.112843
C29   C     C_3   0.555717 0.087348 0.531528 -0.272258
C30   C     C_3   0.444283 0.912645 0.468473 -0.272264
C31   C     C_3   0.944290 0.587353 0.968472 -0.272293
C32   C     C_3   0.055711 0.412653 0.031526 -0.272224
C33   C     C_3   0.528181 0.903319 0.553774 0.005977
C34   C     C_3   0.471820 0.096678 0.446228 0.005956
C35   C     C_3   0.971818 0.403322 0.946221 0.006013
C36   C     C_3   0.028183 0.596686 0.053777 0.006004
H1    H     H_    0.601057 0.160048 0.557463 0.159837
H2    H     H_    0.398944 0.839945 0.442539 0.159826
H3    H     H_    0.898954 0.660050 0.942537 0.159825
H4    H     H_    0.101046 0.339958 0.057461 0.159852
C37   C     C_1   0.371214 0.968418 0.625095 -0.119825
C38   C     C_1   0.628785 0.031581 0.374905 -0.119856
C39   C     C_1   0.128788 0.468416 0.874907 -0.119934
C40   C     C_1   0.871213 0.531585 0.125093 -0.119882
C41   C     C_3   0.484238 0.167056 0.518889 -0.034346
C42   C     C_3   0.515763 0.832936 0.481114 -0.034320
C43   C     C_3   0.015774 0.667065 0.981120 -0.034318
C44   C     C_3   0.984227 0.332943 0.018877 -0.034295
C45   C     C_3   0.457450 0.984344 0.541500 0.105326
C46   C     C_3   0.542551 0.015650 0.458502 0.105327
C47   C     C_3   0.042553 0.484350 0.958503 0.105269
C48   C     C_3   0.957447 0.515657 0.041496 0.105289
C49   C     C_1   0.409851 0.974142 0.587255 0.089950
C50   C     C_1   0.590150 0.025855 0.412746 0.089898
C51   C     C_1   0.090152 0.474144 0.912748 0.089784
C52   C     C_1   0.909848 0.525860 0.087252 0.089884
H5    H     H_    0.099685 0.747277 0.553542 0.174187
H6    H     H_    0.900315 0.252723 0.446458 0.174186
H7    H     H_    0.400480 0.246934 0.946291 0.174161
H8    H     H_    0.599519 0.753067 0.053709 0.174161
H9    H     H_    0.059720 0.237448 0.654291 0.128897
H10   H     H_    0.940280 0.762552 0.345709 0.128899
H11   H     H_    0.440109 0.738035 0.845891 0.128911
H12   H     H_    0.559891 0.261963 0.154108 0.128909
C53   C     C_2   0.042937 0.638576 0.429746 0.366607
H13   H     H_    0.017280 0.521878 0.402902 0.054435
O21   O     O_2   0.103225 0.632869 0.446460 -0.514867
C54   C     C_2   0.957063 0.361424 0.570254 0.366601
H14   H     H_    0.982720 0.478122 0.597097 0.054433
O22   O     O_2   0.896775 0.367131 0.553540 -0.514868
C55   C     C_2   0.457336 0.137780 0.069988 0.366311
H15   H     H_    0.483085 0.021090 0.096737 0.054349
O23   O     O_2   0.397052 0.131731 0.053279 -0.514885
C56   C     C_2   0.542666 0.862215 0.930011 0.366317
H16   H     H_    0.516919 0.978903 0.903259 0.054352
O24   O     O_2   0.602950 0.868262 0.946720 -0.514883
C57   C     C_2   0.561837 0.794724 0.613243 0.381833
H17   H     H_    0.611894 0.744514 0.615560 0.090111
O25   O     O_2   0.533465 0.762191 0.659061 -0.527138
C58   C     C_2   0.438166 0.205281 0.386761 0.381785
H18   H     H_    0.388107 0.255476 0.384440 0.090080
O26   O     O_2   0.466540 0.237829 0.340947 -0.527145
C59   C     C_2   0.938161 0.294708 0.886749 0.381787
H19   H     H_    0.888093 0.244551 0.884417 0.090108
O27   O     O_2   0.966544 0.262106 0.840946 -0.527203
C60   C     C_2   0.061842 0.705287 0.113251 0.381858
H20   H     H_    0.111908 0.755460 0.115580 0.090145
O28   O     O_2   0.033464 0.737858 0.159061 -0.527195
C61   C     C_2   0.533457 0.646790 0.458188 0.346140
H21   H     H_    0.496598 0.566676 0.424737 0.094145
O29   O     O_2   0.589624 0.586762 0.475590 -0.530592
C62   C     C_2   0.466558 0.353206 0.541824 0.346270
H22   H     H_    0.503448 0.433368 0.575223 0.094135
O30   O     O_2   0.410382 0.413203 0.524478 -0.530564
C63   C     C_2   0.966525 0.146788 0.041790 0.346284
H23   H     H_    0.003385 0.066660 0.075220 0.094201
O31   O     O_2   0.910350 0.086786 0.024408 -0.530585
C64   C     C_2   0.033472 0.853213 0.958196 0.346119
H24   H     H_    0.996641 0.933193 0.924670 0.094201
O32   O     O_2   0.089614 0.913371 0.975670 -0.530627

loop_
_geom_bond_atom_site_label_1
_geom_bond_atom_site_label_2
_ccdc_geom_bond_type
C40   C52   T    
C41   C62   S    
O1    C5    A    
C57   H17   S    
C31   C35   S    
O19   V1    S    
O13   V1    S    
C43   C64   S    
O3    C7    A    
C55   H15   S    
C44   C48   S    
O15   V3    S    
C58   O26   D    
C5    C12   S    
C2    C39   S    
O7    C3    A    
C17   H10   S    
C19   H12   S    
O9    V1    S    
C14   C18   A    
C16   C56   S    
O4    C8    A    
C22   H5    S    
C14   C54   S    
O1    V3    S    
C62   H22   S    
C12   C23   A    
O2    V4    S    
C33   C45   S    
O3    V1    S    
C42   C46   S    
C60   H20   S    
C29   H1    S    
C1    O15   A    
C21   H6    S    
C2    O16   A    
C32   C44   S    
C31   H3    S    
O2    C6    A    
C59   H19   S    
C32   H4    S    
C41   C45   S    
O14   V2    S    
C33   C42   S    
C53   O21   D    
C20   H11   S    
C16   C20   A    
C3    C38   S    
C35   C44   S    
O11   C7    A    
C15   C28   A    
C29   C41   S    
C57   O25   D    
C32   C47   S    
C9    C22   A    
C59   O27   D    
C10   C17   A    
O10   V2    S    
C11   C24   A    
C58   H18   S    
O5    V1    S    
C63   O31   D    
C42   C61   S    
C38   C50   T    
O7    V3    S    
C27   C28   A    
O8    V4    S    
C37   C49   T    
C14   C25   A    
C29   C33   S    
O18   V4    S    
C15   C19   A    
C30   H2    S    
C36   C43   S    
C36   C48   S    
C35   C59   S    
C32   C36   S    
C31   C43   S    
O5    C1    A    
C6    C11   S    
C30   C45   S    
C30   C42   S    
C21   C25   A    
O8    C4    A    
C7    C10   S    
C54   O22   D    
O9    C5    A    
C18   H9    S    
C23   H8    S    
C11   C20   A    
C15   C55   S    
C10   C21   A    
C31   C48   S    
O6    V2    S    
C56   H16   S    
C56   O24   D    
C30   C34   S    
C34   C58   S    
C9    C18   A    
C64   O32   D    
C35   C47   S    
C34   C46   S    
C61   H21   S    
O16   V4    S    
C3    O13   A    
O17   V3    S    
C48   C52   S    
O6    C2    A    
C23   C27   A    
C63   H23   S    
C55   O23   D    
C34   C41   S    
O11   V3    S    
O12   V4    S    
C16   C27   A    
C33   C57   S    
C4    C37   S    
C22   C26   A    
C8    C9    S    
C24   H7    S    
C13   C53   S    
O10   C6    A    
O20   V2    S    
C64   H24   S    
C1    C40   S    
C43   C47   S    
C13   C26   A    
C44   C63   S    
C54   H14   S    
C62   O30   D    
C13   C17   A    
C60   O28   D    
C36   C60   S    
C24   C28   A    
O12   C8    A    
C25   C26   A    
C46   C50   S    
C4    O14   A    
C45   C49   S    
C12   C19   A    
C53   H13   S    
C47   C51   S    
C39   C51   T    
O4    V2    S    
C61   O29   D    
C29   C46   S    
