data_mof_unit_44697.cif
_audit_creation_date              2013-03-05T15:47:08-0500
_audit_creation_method            fapswitch 2.2
_symmetry_space_group_name_H-M    P1
_symmetry_Int_Tables_number       1
_space_group_crystal_system       triclinic
_cell_length_a                    10.22188
_cell_length_b                    10.35869
_cell_length_c                    13.735093
_cell_angle_alpha                 93.413601
_cell_angle_beta                  102.032118
_cell_angle_gamma                 93.638881
_cell_volume                      1415.57482839

loop_
_atom_site_label
_atom_site_type_symbol
_atom_site_description
_atom_site_fract_x
_atom_site_fract_y
_atom_site_fract_z
_atom_type_partial_charge
O1    O     O_R   0.935190 0.693030 0.507870 -0.575358
O2    O     O_R   0.064810 0.306970 0.492130 -0.596409
O3    O     O_R   0.142080 0.658430 0.482770 -0.538833
O4    O     O_R   0.857920 0.341570 0.517230 -0.524656
C1    C     C_R   0.049065 0.735660 0.491982 0.950342
C2    C     C_R   0.949862 0.264245 0.505957 0.938851
O5    O     O_R   0.969700 0.527180 0.651960 -0.631423
O6    O     O_R   0.030300 0.472820 0.348040 -0.600059
O7    O     O_R   0.176600 0.492580 0.626860 -0.519865
O8    O     O_R   0.823400 0.507420 0.373140 -0.549231
C3    C     C_R   0.095758 0.514483 0.686145 0.905145
C4    C     C_R   0.904737 0.485477 0.313925 1.015070
Zn1   Zn    Zn3+2 0.861850 0.523100 0.516760 1.138809
Zn2   Zn    Zn3+2 0.138150 0.476900 0.483240 1.124147
C5    C     C_R   0.145986 0.515208 0.794287 -0.163604
C6    C     C_R   0.848458 0.454135 0.207581 -0.085085
C7    C     C_R   0.112827 0.554419 0.963569 0.379466
C8    C     C_R   0.835961 0.306389 0.061180 0.383811
C9    C     C_R   0.064627 0.550304 0.860265 -0.305844
C10   C     C_R   0.907687 0.366121 0.152324 -0.192874
C11   C     C_R   0.275922 0.481238 0.831979 0.439744
C12   C     C_R   0.722118 0.492290 0.167507 0.458813
C13   C     C_R   0.312990 0.454974 0.932881 -0.129528
C14   C     C_R   0.639017 0.415310 0.087575 -0.143863
C15   C     C_R   0.237811 0.503133 0.001552 -0.106502
C16   C     C_R   0.698768 0.330354 0.027135 -0.101903
C17   C     C_R   0.430454 0.392000 0.967391 -0.106402
C18   C     C_R   0.498766 0.424511 0.065192 -0.133677
C19   C     C_R   0.423049 0.462604 0.136900 0.374969
C20   C     C_R   0.484373 0.302141 0.906722 0.371532
C21   C     C_R   0.289825 0.496485 0.104754 0.487711
C22   C     C_R   0.619810 0.273591 0.935581 0.457051
H1    H     H_    0.007024 0.337073 0.182816 0.242700
H2    H     H_    0.966795 0.584056 0.831598 0.221500
C23   C     C_2   0.060704 0.873301 0.473785 -0.407219
C24   C     C_2   0.923772 0.123420 0.495816 -0.375630
C25   C     C_2   0.961044 0.920250 0.407519 0.267885
C26   C     C_2   0.937893 0.059151 0.410710 0.285373
H3    H     H_    0.923207 0.072885 0.562807 0.153453
H4    H     H_    0.133018 0.938182 0.526599 0.154904
N1    N     N_2   0.322180 0.446120 0.460900 -0.025565
N2    N     N_2   0.677820 0.553880 0.539100 -0.030499
C27   C     C_2   0.429219 0.504396 0.522820 0.443334
C28   C     C_2   0.576227 0.466940 0.533162 0.424106
O9    O     O_3   0.209311 0.521725 0.172012 -0.700129
H5    H     H_    0.258198 0.512664 0.241098 0.397865
O10   O     O_3   0.677809 0.195501 0.873803 -0.687304
H6    H     H_    0.614322 0.171290 0.809462 0.396133
O11   O     O_3   0.682516 0.604445 0.208465 -0.624389
H7    H     H_    0.618346 0.642865 0.155733 0.374495
O12   O     O_3   0.367342 0.480815 0.770601 -0.705996
H8    H     H_    0.457272 0.510957 0.811256 0.340046
N3    N     N_R   0.037506 0.618563 0.026781 0.254597
O13   O     O_R   0.907254 0.600381 0.006595 -0.385803
O14   O     O_R   0.094008 0.718521 0.085916 -0.239781
N4    N     N_R   0.900499 0.211922 0.011278 0.268242
O15   O     O_R   0.016908 0.243411 0.991489 -0.372688
O16   O     O_R   0.860577 0.089716 0.008728 -0.226724
O17   O     O_3   0.473353 0.460504 0.237958 -0.687028
H9    H     H_    0.541843 0.396377 0.248294 0.391772
O18   O     O_3   0.405585 0.235957 0.822152 -0.733776
H10   H     H_    0.310469 0.233595 0.827995 0.365709
N5    N     N_R   0.915744 0.121014 0.318292 0.231047
O19   O     O_R   0.814261 0.191482 0.296274 -0.405344
O20   O     O_R   0.976751 0.084350 0.248327 -0.272752
N6    N     N_R   0.879493 0.837052 0.327346 0.258784
O21   O     O_R   0.936982 0.760073 0.273828 -0.315600
O22   O     O_R   0.755317 0.860593 0.293575 -0.242913
O23   O     O_3   0.606063 0.341590 0.551978 -0.686037
H11   H     H_    0.524997 0.294785 0.565779 0.347601
O24   O     O_3   0.406325 0.606192 0.585127 -0.686440
H12   H     H_    0.488804 0.628833 0.637279 0.334710
N7    N     N_R   0.643480 0.677709 0.514863 0.258982
O25   O     O_R   0.703813 0.777646 0.572107 -0.346780
O26   O     O_R   0.576294 0.695559 0.425778 -0.276290
N8    N     N_R   0.331154 0.333497 0.401823 0.251666
O27   O     O_R   0.442801 0.302443 0.378993 -0.342168
O28   O     O_R   0.221202 0.266491 0.356785 -0.308392

loop_
_geom_bond_atom_site_label_1
_geom_bond_atom_site_label_2
_geom_bond_distance
_ccdc_geom_bond_type
C15   C21   1.413775 A    
N6    O22   1.301173 A    
N5    O20   1.301164 A    
C16   C22   1.416692 A    
N7    O26   1.302189 A    
N7    O25   1.300026 A    
C8    C16   1.425325 A    
O7    Zn2   1.924226 S    
O9    H5    0.988842 S    
O5    C3    1.294124 A    
O1    C1    1.284409 A    
C18   C19   1.426571 A    
C23   C25   1.353407 D    
N8    O28   1.299073 A    
O23   H11   0.991510 S    
N4    O15   1.300892 A    
O4    Zn1   1.878715 S    
C3    C5    1.466335 S    
C19   O17   1.378038 S    
N4    O16   1.301322 A    
C27   O24   1.380729 S    
C13   C17   1.410983 A    
C6    C10   1.397504 A    
N6    O21   1.300499 A    
O17   H9    0.990133 S    
C17   C20   1.424370 A    
N1    C27   1.323599 D    
O2    C2    1.284354 A    
N2    C28   1.316566 D    
Zn1   N2    2.009876 S    
N3    O14   1.301443 A    
O12   H8    0.991526 S    
C4    C6    1.462643 S    
N8    O27   1.299238 A    
O4    C2    1.300104 A    
O6    Zn2   1.948526 S    
N3    O13   1.301182 A    
C9    H2    1.083483 S    
C5    C9    1.399413 A    
C27   C28   1.555771 S    
C25   C26   1.472481 S    
O10   H6    0.989374 S    
C5    C11   1.396519 A    
O6    C4    1.289202 A    
C25   N6    1.436424 S    
C28   O23   1.379550 S    
O7    C3    1.296047 A    
O3    Zn2   1.878715 S    
O8    C4    1.299347 A    
Zn2   N1    2.009876 S    
C10   H1    1.083280 S    
C11   C13   1.406180 A    
C22   O10   1.383720 S    
C12   C14   1.408439 A    
O1    Zn1   1.889885 S    
C7    N3    1.436320 S    
C11   O12   1.382942 S    
C26   N5    1.438298 S    
C12   O11   1.380910 S    
N2    N7    1.392360 S    
C6    C12   1.386116 A    
C24   H3    1.086224 S    
C14   C18   1.412791 A    
C14   C16   1.424523 A    
O3    C1    1.301789 A    
O8    Zn1   1.924225 S    
C8    N4    1.432879 S    
C7    C15   1.424027 A    
C24   C26   1.349191 D    
C23   H4    1.086110 S    
O24   H12   0.990975 S    
C19   C21   1.414586 A    
N1    N8    1.399908 S    
C20   C22   1.413626 A    
C1    C23   1.463820 S    
C7    C9    1.398752 A    
C2    C24   1.459260 S    
C8    C10   1.398238 A    
C13   C15   1.422625 A    
O18   H10   0.990998 S    
O2    Zn2   1.889885 S    
N5    O19   1.300774 A    
O5    Zn1   1.948526 S    
O11   H7    0.991270 S    
C21   O9    1.383701 S    
C20   O18   1.383091 S    
C17   C18   1.389479 A    
