data_mof_unit_39281.cif
_audit_creation_date              2013-03-05T15:56:04-0500
_audit_creation_method            fapswitch 2.2
_symmetry_space_group_name_H-M    P1
_symmetry_Int_Tables_number       1
_space_group_crystal_system       triclinic
_cell_length_a                    8.720569
_cell_length_b                    16.331232
_cell_length_c                    27.137495
_cell_angle_alpha                 97.846227
_cell_angle_beta                  92.322549
_cell_angle_gamma                 86.760322
_cell_volume                      3820.45254973

loop_
_atom_site_label
_atom_site_type_symbol
_atom_site_description
_atom_site_fract_x
_atom_site_fract_y
_atom_site_fract_z
_atom_type_partial_charge
P1    P     P_3+3 0.086060 0.566890 0.610430 0.584796
O1    O     O_2   0.915540 0.542930 0.617950 -0.314894
O2    O     O_3   0.147530 0.542870 0.557780 -0.397531
O3    O     O_3   0.664390 0.396160 0.588360 -0.364102
O4    O     O_2   0.750768 0.483730 0.668783 -0.290652
O5    O     O_3   0.093973 0.674789 0.628664 -0.511243
O6    O     O_3   0.716951 0.343182 0.687632 -0.479144
C1    C     C_3   0.660316 0.235858 0.735151 -0.631180
H1    H     H_    0.777583 0.205244 0.731932 0.231468
H2    H     H_    0.656588 0.280169 0.770264 0.270022
P2    P     P_3+3 0.625290 0.314770 0.461990 0.693469
P3    P     P_3+3 0.102171 0.246883 0.559810 0.658533
O7    O     O_2   0.802410 0.302720 0.476520 -0.276292
O8    O     O_3   0.070880 0.354870 0.564040 -0.340079
O9    O     O_2   0.978513 0.208579 0.522585 -0.248435
O10   O     O_3   0.619027 0.257453 0.401331 -0.535565
O11   O     O_3   0.051292 0.210803 0.614615 -0.471726
C2    C     C_3   0.141058 0.244402 0.655766 0.591482
H3    H     H_    0.261671 0.248929 0.646205 0.013277
C3    C     C_3   0.135716 0.189540 0.697513 0.395724
H4    H     H_    0.019803 0.197761 0.713449 0.108273
C4    C     C_3   0.143802 0.255712 0.377768 0.792311
C5    C     C_3   0.125693 0.182967 0.333793 -0.174052
H5    H     H_    0.218296 0.183056 0.307057 0.139224
H6    H     H_    0.018859 0.195874 0.312008 0.204279
Ba1   Ba    Ba6+2 0.851940 0.461560 0.523510 1.814686
C6    C     C_3   0.018680 0.724238 0.595852 0.687244
H7    H     H_    0.993816 0.689749 0.558776 -0.022901
C7    C     C_3   0.111940 0.799597 0.590314 -0.151805
H8    H     H_    0.036108 0.849666 0.576757 0.114695
H9    H     H_    0.195935 0.782774 0.561122 0.129934
C8    C     C_3   0.625002 0.289916 0.355782 0.760168
C9    C     C_3   0.581357 0.218041 0.314138 0.240962
H10   H     H_    0.463733 0.202332 0.321130 0.052907
P4    P     P_3+3 0.103630 0.433040 0.389570 0.666224
O12   O     O_2   0.274150 0.457040 0.382020 -0.261408
O13   O     O_3   0.042160 0.457070 0.442220 -0.318402
O14   O     O_3   0.525310 0.603770 0.411640 -0.268745
O15   O     O_3   0.113078 0.329894 0.356335 -0.585009
P5    P     P_3+3 0.088032 0.753770 0.440628 0.654125
O16   O     O_3   0.637620 0.597020 0.524620 -0.337850
O17   O     O_3   0.118810 0.645070 0.435950 -0.378647
O18   O     O_2   0.229797 0.793624 0.468177 -0.305654
O19   O     O_3   0.091819 0.780986 0.380334 -0.397519
Ba2   Ba    Ba6+2 0.337880 0.538370 0.476480 1.801711
P6    P     P_3+3 0.634008 0.418337 0.652709 0.532089
C10   C     C_3   0.615418 0.280221 0.689863 0.705769
H11   H     H_    0.495209 0.306231 0.694895 0.027790
H12   H     H_    0.580451 0.186267 0.737267 0.263754
O20   O     O_3   0.552080 0.402920 0.475380 -0.335687
C11   C     C_3   0.547400 0.653858 0.630649 0.181825
H13   H     H_    0.447221 0.616500 0.617116 0.033955
H14   H     H_    0.654602 0.615614 0.621585 0.108836
C12   C     C_3   0.542860 0.677186 0.687813 0.419923
H15   H     H_    0.585253 0.623198 0.705828 0.032923
P7    P     P_3+3 0.561217 0.699386 0.542666 0.580154
O21   O     O_2   0.387280 0.697260 0.523450 -0.361959
O22   O     O_3   0.543544 0.725396 0.607228 -0.477944
C13   C     C_3   0.112858 0.709010 0.345572 0.531800
H16   H     H_    0.236131 0.687099 0.346485 0.112087
H17   H     H_    0.041273 0.657918 0.352937 0.062037
C14   C     C_3   0.064569 0.727875 0.293521 -0.733001
H18   H     H_    0.130696 0.686170 0.265213 0.232667
H19   H     H_    0.940752 0.717427 0.285749 0.208595
H20   H     H_    0.083022 0.793268 0.289874 0.330735
P8    P     P_3+3 0.548409 0.593392 0.346155 0.621374
C15   C     C_3   0.558827 0.760820 0.335427 0.607605
O23   O     O_2   0.414994 0.539467 0.324804 -0.297075
O24   O     O_3   0.503518 0.681794 0.315688 -0.618357
H21   H     H_    0.636389 0.791587 0.264539 0.062048
C16   C     C_3   0.544788 0.814040 0.291205 0.584837
C17   C     C_R   0.125814 0.511583 0.192414 0.609321
O25   O     O_2   0.229933 0.508607 0.223501 -0.528413
N1    N     N_R   0.974768 0.529468 0.206954 -0.170027
C18   C     C_R   0.866196 0.544126 0.169231 0.644009
C19   C     C_2   0.790106 0.560258 0.276136 -0.243766
C20   C     C_3   0.726775 0.532867 0.321984 0.359491
C21   C     C_1   0.987157 0.489776 0.345198 0.202631
C22   C     C_2   0.031075 0.488392 0.298218 -0.168082
C23   C     C_2   0.929058 0.527377 0.259361 0.076881
C24   C     C_R   0.060765 0.530402 0.106308 -0.109138
C25   C     C_R   0.162800 0.499066 0.141225 -0.165399
C26   C     C_R   0.297059 0.454339 0.123982 0.393389
C27   C     C_R   0.911763 0.558013 0.121304 -0.210175
C28   C     C_2   0.852734 0.523318 0.360560 -0.292066
H22   H     H_    0.135118 0.452278 0.287782 0.240716
C29   C     C_2   0.314694 0.467992 0.642958 -0.467630
C30   C     C_R   0.277064 0.481866 0.985873 -0.050199
C31   C     C_R   0.060383 0.583328 0.975912 -0.084648
C32   C     C_R   0.182715 0.530537 0.955156 0.068308
C33   C     C_R   0.400791 0.431602 0.962011 0.188433
C34   C     C_R   0.410273 0.419152 0.909733 0.307392
C35   C     C_R   0.315260 0.466868 0.879988 -0.215026
C36   C     C_R   0.212670 0.528273 0.903509 -0.115367
C37   C     C_R   0.141461 0.587688 0.875333 -0.278247
C38   C     C_R   0.187982 0.587584 0.825502 0.726357
N2    N     N_R   0.264275 0.518602 0.800204 -0.177487
C39   C     C_R   0.324664 0.457414 0.827299 0.649957
C40   C     C_2   0.432559 0.488327 0.729019 -0.189531
C41   C     C_3   0.459182 0.480916 0.674000 0.040780
C42   C     C_1   0.194472 0.515423 0.658613 0.233088
C43   C     C_2   0.164874 0.528505 0.707777 0.493164
C44   C     C_2   0.291150 0.512263 0.746405 0.023244
O26   O     O_2   0.386358 0.394405 0.805526 -0.511459
C45   C     C_R   0.243107 0.487497 0.038347 0.081499
C46   C     C_R   0.105549 0.530938 0.056079 0.115926
C47   C     C_R   0.008335 0.572096 0.023499 0.068253
C48   C     C_R   0.331505 0.446244 0.073497 -0.177944
H23   H     H_    0.529614 0.480020 0.754439 0.198653
H24   H     H_    0.423595 0.402527 0.063664 0.209661
O27   O     O_2   0.729605 0.540303 0.175874 -0.499873
C49   C     C_R   0.808886 0.590861 0.086239 0.427682
H25   H     H_    0.716499 0.600396 0.255838 0.207674
C50   C     C_R   0.997106 0.646726 0.948755 0.310424
C51   C     C_R   0.033238 0.647331 0.898684 0.487642
O28   O     O_2   0.166547 0.649845 0.805369 -0.413300
C52   C     C_R   0.857211 0.595863 0.038179 -0.139242
H26   H     H_    0.772485 0.616576 0.011709 0.207058
H27   H     H_    0.815868 0.515306 0.397083 0.206905
H28   H     H_    0.315133 0.431040 0.606617 0.161910
C53   C     C_R   0.391190 0.270382 0.522073 -0.341931
C54   C     C_R   0.534388 0.246212 0.501080 0.330812
C55   C     C_R   0.586133 0.162549 0.497889 -0.172828
C56   C     C_R   0.493829 0.102757 0.513544 0.149901
C57   C     C_R   0.345744 0.127469 0.530762 0.410922
C58   C     C_R   0.294516 0.211461 0.535673 0.108713
C59   C     C_R   0.631862 0.856916 0.518722 -0.259178
C60   C     C_R   0.672864 0.772231 0.513117 0.222242
C61   C     C_R   0.723218 0.912821 0.498719 0.099497
N3    N     N_2   0.542317 0.017171 0.511316 0.010093
N4    N     N_2   0.678801 0.999021 0.500522 0.019962
C62   C     C_R   0.806528 0.742877 0.487365 0.110921
H29   H     H_    0.528208 0.878619 0.538182 0.219704
C63   C     C_R   0.906678 0.797398 0.471457 0.021548
C64   C     C_R   0.863320 0.882795 0.476643 0.359463
H30   H     H_    0.694303 0.143606 0.480556 0.212609
H31   H     H_    0.349511 0.334395 0.524428 0.160203
N5    N     N_R   0.626125 0.220755 0.644849 0.234080
O29   O     O_R   0.509976 0.213795 0.613699 -0.525620
O30   O     O_R   0.755996 0.182262 0.632217 -0.293176
N6    N     N_R   0.120740 0.099658 0.348058 0.302038
O31   O     O_R   0.246348 0.058545 0.360684 -0.197814
O32   O     O_R   0.998510 0.058155 0.337405 -0.179977
Cl1   Cl    Cl    0.848545 0.766238 0.623647 -0.543615
N7    N     N_R   0.189933 0.833604 0.636693 0.332641
O33   O     O_R   0.115125 0.849630 0.677764 -0.141979
O34   O     O_R   0.324160 0.863551 0.634800 -0.233190
Cl2   Cl    Cl    0.808460 0.317449 0.345718 -0.661529
N8    N     N_R   0.525424 0.363464 0.354201 0.212799
O35   O     O_R   0.561650 0.429399 0.383687 -0.359167
O36   O     O_R   0.436277 0.371445 0.315262 -0.357861
N9    N     N_R   0.679456 0.142769 0.317295 0.272261
O37   O     O_R   0.676444 0.105102 0.356491 -0.218579
O38   O     O_R   0.748612 0.105166 0.278223 -0.230255
N10   N     N_R   0.580994 0.241033 0.263601 0.270854
O39   O     O_R   0.455604 0.235657 0.235997 -0.244338
O40   O     O_R   0.706407 0.259836 0.244424 -0.250170
Cl3   Cl    Cl    0.351629 0.702947 0.707406 -0.464243
N11   N     N_R   0.638535 0.745861 0.706243 0.306693
O41   O     O_R   0.760917 0.733515 0.733931 -0.207493
O42   O     O_R   0.592314 0.821118 0.700782 -0.159099
Cl4   Cl    Cl    0.265526 0.224145 0.747938 -0.509853
N12   N     N_R   0.721848 0.757835 0.352020 0.155638
O43   O     O_R   0.774943 0.702865 0.379157 -0.457630
O44   O     O_R   0.799798 0.823702 0.353235 -0.344709
N13   N     N_R   0.464924 0.797657 0.377268 0.230668
O45   O     O_R   0.488951 0.771990 0.420337 -0.356602
O46   O     O_R   0.359772 0.856284 0.372949 -0.257573
Cl5   Cl    Cl    0.568485 0.922564 0.308889 -0.316497
Cl6   Cl    Cl    0.060833 0.344317 0.678409 -0.564651
Cl7   Cl    Cl    0.370254 0.803664 0.255683 -0.471865
N14   N     N_R   0.383205 0.403093 0.154994 0.277026
O47   O     O_R   0.316642 0.341595 0.169873 -0.266146
O48   O     O_R   0.532287 0.404040 0.157718 -0.254725
N15   N     N_R   0.534676 0.366911 0.887944 0.280461
O49   O     O_R   0.671927 0.395035 0.888967 -0.327311
O50   O     O_R   0.515145 0.288826 0.872952 -0.232293
N16   N     N_R   0.526890 0.397655 0.989280 0.240225
O51   O     O_R   0.551905 0.317793 0.986065 -0.268668
O52   O     O_R   0.631141 0.446030 0.010425 -0.360943
N17   N     N_R   0.658836 0.625572 0.099704 0.274785
O53   O     O_R   0.542362 0.613606 0.068538 -0.339256
O54   O     O_R   0.644075 0.681151 0.138650 -0.297251
Cl8   Cl    Cl    0.899881 0.736962 0.979188 -0.433757
Cl9   Cl    Cl    0.928093 0.719832 0.865087 -0.311262
Cl10  Cl    Cl    0.980675 0.563388 0.728145 -0.438159
Cl11  Cl    Cl    0.228580 0.052435 0.548391 -0.461209
Cl12  Cl    Cl    0.979189 0.952647 0.453117 -0.349295
Cl13  Cl    Cl    0.847435 0.636663 0.471505 -0.549931
N18   N     N_R   0.164408 0.101355 0.678791 0.263152
O55   O     O_R   0.289302 0.059942 0.692062 -0.219509
O56   O     O_R   0.052559 0.060096 0.656310 -0.252248
N19   N     N_R   0.297751 0.254909 0.398345 0.155613
O57   O     O_R   0.363113 0.185600 0.409394 -0.419175
O58   O     O_R   0.331862 0.322570 0.425929 -0.407060
N20   N     N_R   0.041711 0.251644 0.417854 0.225439
O59   O     O_R   0.070266 0.298632 0.459312 -0.341448
O60   O     O_R   0.951125 0.189941 0.417608 -0.312782

loop_
_geom_bond_atom_site_label_1
_geom_bond_atom_site_label_2
_geom_bond_distance
_ccdc_geom_bond_type
P8    O23   1.544920 D    
C1    H2    1.115476 S    
C35   C36   1.408397 A    
C6    C7    1.540184 S    
C37   C38   1.427243 A    
C12   H15   1.104197 S    
C45   C46   1.425221 A    
C40   C44   1.355885 D    
N12   O43   1.291714 A    
N2    C39   1.387905 Am   
N8    O35   1.297030 A    
C55   C56   1.418365 A    
N15   O50   1.303074 A    
O3    P6    1.762049 S    
N17   O53   1.301104 A    
C26   C48   1.401466 A    
Ba2   O21   2.778927 S    
C42   C43   1.355058 D    
P4    O13   1.538834 S    
C2    H3    1.102377 S    
P1    O2    1.538818 S    
N6    O32   1.297047 A    
C7    N7    1.462052 S    
C49   C52   1.401007 A    
C51   Cl9   1.782769 S    
C50   Cl8   1.776473 S    
C18   C27   1.426013 A    
C1    H12   1.106333 S    
P8    O24   1.776791 S    
P3    C58   1.858273 S    
C46   C47   1.410433 A    
O19   C13   1.411440 S    
C40   H23   1.084388 S    
C33   N16   1.428763 S    
P7    O21   1.584551 D    
O11   C2    1.404048 S    
P1    O1    1.586878 D    
C53   H31   1.081557 S    
C28   H27   1.081109 S    
O14   Ba2   2.802150 S    
C14   H19   1.109959 S    
Ba1   Ba2   4.757789 S    
C12   N11   1.457022 S    
C61   C64   1.415435 A    
P5    O18   1.547296 D    
C8    N8    1.446311 S    
N11   O41   1.302409 A    
C37   C51   1.420239 A    
C1    H1    1.113965 S    
N19   O58   1.289612 A    
P3    O11   1.754518 S    
C5    H5    1.107448 S    
N11   O42   1.297638 A    
C4    N19   1.433037 S    
C47   C52   1.410210 A    
H21   C16   1.112432 S    
C19   H25   1.080520 S    
P7    O22   1.756460 S    
P5    O19   1.755136 S    
C2    C3    1.540976 S    
O5    C6    1.401857 S    
N17   O54   1.301285 A    
C57   C58   1.408736 A    
C20   C28   1.502938 S    
C13   H16   1.114042 S    
N1    C23   1.497808 S    
C26   N14   1.429348 S    
N13   O46   1.301544 A    
N8    O36   1.302902 A    
C4    N20   1.444068 S    
C36   C37   1.416962 A    
C60   C62   1.410064 A    
N7    O34   1.299399 A    
N14   O48   1.300031 A    
C32   C36   1.431246 A    
C2    Cl6   1.778104 S    
C34   N15   1.436698 S    
C45   C48   1.419597 A    
O3    Ba1   2.803000 S    
C13   H17   1.113712 S    
N1    C18   1.401607 Am   
C11   H13   1.115077 S    
O6    P6    1.757694 S    
N16   O51   1.301751 A    
C19   C20   1.512834 S    
C17   N1    1.393997 Am   
C31   C32   1.418020 A    
C33   C34   1.410575 A    
C21   C22   1.342876 D    
C17   O25   1.217633 D    
P2    Ba1   3.408236 S    
P5    C63   1.877740 S    
O2    Ba2   2.804870 S    
C24   C25   1.401472 A    
P1    O5    1.768508 S    
C11   H14   1.111423 S    
P4    O12   1.587251 D    
O6    C10   1.403260 S    
P4    O15   1.798149 S    
C59   C61   1.419681 A    
O16   P7    1.776390 S    
C7    H8    1.114716 S    
N15   O49   1.303948 A    
C12   Cl3   1.781087 S    
P2    O10   1.779537 S    
P6    C41   1.853839 S    
C10   H11   1.115099 S    
C30   C33   1.438300 A    
C29   C42   1.316864 D    
C3    Cl4   1.791360 S    
C38   N2    1.387163 Am   
C31   C47   1.424423 A    
C14   H18   1.111426 S    
C16   Cl5   1.793129 S    
C9    H10   1.101266 S    
C56   N3    1.431181 S    
O12   Ba2   2.771728 S    
O1    Ba1   2.771283 S    
C11   O22   1.402358 S    
C27   C49   1.419139 A    
O8    Ba1   2.804997 S    
N10   O40   1.299607 A    
C53   C54   1.407244 A    
N2    C44   1.476784 S    
N5    O30   1.299041 A    
C21   C28   1.323901 D    
N20   O60   1.314239 A    
C49   N17   1.437170 S    
C30   C32   1.433532 A    
N19   O57   1.304566 A    
P3    O9    1.546008 D    
P1    Ba1   3.404415 S    
C16   Cl7   1.772053 S    
O7    Ba1   2.778600 S    
P2    C54   1.870837 S    
N18   O55   1.313330 A    
O13   Ba2   3.022145 S    
C59   C60   1.398136 A    
P4    Ba2   3.404936 S    
P1    C42   1.849348 S    
C64   Cl12  1.763917 S    
C6    H7    1.103634 S    
C24   C27   1.408501 A    
N14   O47   1.305494 A    
C15   N13   1.467977 S    
C29   C41   1.495760 S    
C59   H29   1.083028 S    
P8    C20   1.886429 S    
O14   P8    1.780529 S    
C24   C46   1.434350 A    
C13   C14   1.524282 S    
N18   O56   1.300540 A    
C43   Cl10  1.758648 S    
C14   H20   1.107159 S    
N12   O44   1.300545 A    
O2    Ba1   3.021292 S    
C5    N6    1.467854 S    
N7    O33   1.302447 A    
C19   C23   1.366866 D    
N9    O38   1.302803 A    
N20   O59   1.296073 A    
C9    N9    1.467741 S    
N16   O52   1.301940 A    
C9    N10   1.470366 S    
Ba1   O13   2.803968 S    
C50   C51   1.408697 A    
C63   C64   1.413826 A    
C8    Cl2   1.728167 S    
O10   C8    1.413832 S    
O4    P6    1.525542 D    
P4    C21   1.854526 S    
C18   O27   1.218244 D    
C40   C41   1.507780 S    
C55   H30   1.081673 S    
C57   Cl11  1.765108 S    
C11   C12   1.547623 S    
C8    C9    1.566300 S    
Ba1   O20   3.020889 S    
N3    N4    1.246978 D    
C31   C50   1.424917 A    
C1    C10   1.536454 S    
C53   C58   1.409528 A    
C7    H9    1.097481 S    
P2    O20   1.544076 S    
N6    O31   1.310478 A    
C3    N18   1.471262 S    
C30   C45   1.455773 A    
P2    O7    1.586639 D    
C6    Cl1   1.753603 S    
N13   O45   1.299869 A    
Ba2   O20   2.811195 S    
C39   O26   1.222556 D    
C4    O15   1.421562 S    
C62   Cl13  1.749291 S    
C10   N5    1.455748 S    
P5    O17   1.768298 S    
C34   C35   1.410649 A    
C48   H24   1.061320 S    
C15   C16   1.572078 S    
P7    C60   1.860342 S    
C43   C44   1.526825 S    
N5    O29   1.292608 A    
C22   C23   1.533630 S    
C15   N12   1.473933 S    
P3    O8    1.758020 S    
C29   H28   1.083667 S    
C5    H6    1.108647 S    
C3    H4    1.109527 S    
C62   C63   1.401900 A    
C25   C26   1.406316 A    
N10   O39   1.300413 A    
O16   Ba2   3.020126 S    
C4    C5    1.574591 S    
C38   O28   1.220342 D    
N9    O37   1.301241 A    
C15   O24   1.430334 S    
C54   C55   1.406813 A    
C52   H26   1.082309 S    
C35   C39   1.422260 A    
O17   Ba2   2.805816 S    
C22   H22   1.079822 S    
C17   C25   1.423672 A    
Ba1   O16   2.811947 S    
C56   C57   1.409752 A    
C61   N4    1.433633 S    
