data_mof_unit_56843.cif
_audit_creation_date              2012-12-11T14:17:34-0500
_audit_creation_method            fapswitch 2.2
_symmetry_space_group_name_H-M    P1
_symmetry_Int_Tables_number       1
_space_group_crystal_system       triclinic
_cell_length_a                    6.942711
_cell_length_b                    13.645453
_cell_length_c                    20.412995
_cell_angle_alpha                 102.085595
_cell_angle_beta                  90.034526
_cell_angle_gamma                 90.354971
_cell_volume                      1890.95241886

loop_
_atom_site_label
_atom_site_type_symbol
_atom_type_description
_atom_site_fract_x
_atom_site_fract_y
_atom_site_fract_z
_atom_type_partial_charge
O1    O     O_R   0.506860 0.599390 0.449240 -0.542788
O2    O     O_R   0.180220 0.594600 0.586780 -0.546320
O3    O     O_R   0.004500 0.400610 0.550760 -0.537847
C1    C     C_R   0.348951 0.616060 0.613477 0.732692
O4    O     O_R   0.177490 0.611290 0.451970 -0.542284
O5    O     O_R   0.001750 0.417420 0.414990 -0.508207
C2    C     C_R   0.346309 0.638224 0.435372 0.724681
O6    O     O_R   0.509610 0.582580 0.585010 -0.546027
O7    O     O_3   0.337420 0.436370 0.488020 -0.356725
V1    V     V_3+5 0.064680 0.511800 0.502220 1.455028
O8    O     O_R   0.671710 0.405400 0.413220 -0.550260
C3    C     C_R   0.840748 0.383822 0.386472 0.763715
O9    O     O_R   0.674440 0.388710 0.548030 -0.539711
C4    C     C_R   0.843066 0.362067 0.564750 0.700164
V2    V     V_3+5 0.564010 0.488200 0.497780 1.446057
O10   O     O_3   0.841140 0.563630 0.511980 -0.380649
C5    C     C_R   0.871829 0.111522 0.612416 -0.131798
H1    H     H_    0.865159 0.161734 0.519620 0.134855
H2    H     H_    0.887850 0.986405 0.695532 0.123954
H3    H     H_    0.880873 0.033392 0.587338 0.127806
C6    C     C_R   0.851358 0.285249 0.604857 -0.044472
C7    C     C_R   0.849978 0.314981 0.928668 -0.169316
C8    C     C_R   0.841142 0.390974 0.892954 -0.119292
C9    C     C_R   0.843450 0.368396 0.823153 -0.156947
C10   C     C_R   0.854924 0.267914 0.786925 0.079614
C11   C     C_R   0.864163 0.190283 0.823983 0.066961
C12   C     C_R   0.857456 0.241878 0.715333 0.073516
C13   C     C_R   0.869283 0.139202 0.682662 0.127970
C14   C     C_R   0.878573 0.064753 0.720148 -0.195416
C15   C     C_R   0.876061 0.089669 0.789618 -0.193170
C16   C     C_R   0.848710 0.314038 0.674750 -0.214985
C17   C     C_R   0.862858 0.184202 0.573762 -0.130217
C18   C     C_R   0.861367 0.214984 0.894954 -0.073297
H4    H     H_    0.839843 0.393230 0.695561 0.093780
H5    H     H_    0.847785 0.334177 0.982937 0.102041
H6    H     H_    0.836031 0.431533 0.799292 0.106468
H7    H     H_    0.832283 0.468260 0.919601 0.118997
H8    H     H_    0.883616 0.028970 0.816215 0.116092
C19   C     C_2   0.012184 0.283530 0.285433 0.322792
C20   C     C_2   0.847497 0.314507 0.319683 -0.327788
H9    H     H_    0.708902 0.287081 0.299114 0.096237
C21   C     C_2   0.013441 0.212470 0.218732 -0.201554
C22   C     C_2   0.857956 0.183353 0.180000 -0.345499
H10   H     H_    0.153811 0.185187 0.199898 0.140465
H11   H     H_    0.715275 0.209199 0.196340 0.128532
C23   C     C_2   0.204685 0.790941 0.782375 -0.135609
C24   C     C_2   0.363913 0.815778 0.819905 -0.305075
H12   H     H_    0.066863 0.821202 0.801793 0.130776
H13   H     H_    0.502603 0.785921 0.801783 0.127659
C25   C     C_2   0.202822 0.722509 0.714881 -0.130756
C26   C     C_2   0.360887 0.684272 0.680204 -0.306308
H14   H     H_    0.061483 0.703747 0.692810 0.133112
H15   H     H_    0.504059 0.702630 0.700252 0.125035
C27   C     C_R   0.326346 0.889576 0.388208 0.626381
H16   H     H_    0.318025 0.838136 0.480609 0.134811
H17   H     H_    0.317325 0.014809 0.303878 0.177120
C28   C     C_R   0.353576 0.715851 0.395713 -0.120500
C29   C     C_R   0.370929 0.685180 0.072133 -0.169641
C30   C     C_R   0.373962 0.609409 0.108118 -0.124919
C31   C     C_R   0.368650 0.632462 0.177878 -0.159518
C32   C     C_R   0.359555 0.733224 0.213800 0.113353
C33   C     C_R   0.352156 0.810487 0.176427 0.073348
C34   C     C_R   0.355890 0.759753 0.285384 0.007553
C35   C     C_R   0.337739 0.862290 0.317859 0.013083
C36   C     C_R   0.330051 0.936385 0.279891 -0.145478
C37   C     C_R   0.338540 0.911144 0.210474 -0.222829
C38   C     C_R   0.368531 0.687913 0.326049 -0.232898
C39   C     C_R   0.331498 0.816415 0.426636 -0.246960
C40   C     C_R   0.359510 0.785371 0.105482 -0.076302
H18   H     H_    0.387871 0.609485 0.305296 0.106915
H19   H     H_    0.377953 0.665667 0.017922 0.103571
H20   H     H_    0.370480 0.569400 0.201917 0.103846
H21   H     H_    0.381532 0.531945 0.081729 0.119483
H22   H     H_    0.332487 0.971611 0.183637 0.118415
O11   O     O_R   0.203230 0.917310 0.915020 -0.539269
O12   O     O_R   0.535500 0.888690 0.048040 -0.540072
O13   O     O_R   0.711080 0.082610 0.085000 -0.544153
C41   C     C_R   0.366858 0.862532 0.065236 0.690628
O14   O     O_R   0.532630 0.905370 0.913230 -0.548111
O15   O     O_R   0.708190 0.099410 0.949230 -0.538684
C42   C     C_R   0.364480 0.884224 0.886495 0.744368
O16   O     O_R   0.206120 0.900510 0.050790 -0.539856
O17   O     O_3   0.375360 0.063570 0.011990 -0.372822
V3    V     V_3+5 0.648170 0.988200 0.997780 1.416962
O18   O     O_R   0.038240 0.111390 0.951940 -0.541184
C43   C     C_R   0.869640 0.137685 0.935011 0.686799
O19   O     O_R   0.041120 0.094710 0.086750 -0.543690
C44   C     C_R   0.872176 0.115360 0.113533 0.764673
V4    V     V_3+5 0.148810 0.011930 0.002180 1.419065
O20   O     O_3   0.871750 0.936430 0.988010 -0.373172
F1    F     F_    0.306921 0.987013 0.419823 -0.698287
N1    N     N_2   0.195137 0.317186 0.313296 -0.474872
H23   H     H_    0.295609 0.260718 0.308285 0.243692
C45   C     C_3   0.269458 0.403564 0.290658 -0.529946
H24   H     H_    0.405395 0.429193 0.317646 0.191135
H25   H     H_    0.164309 0.465949 0.301177 0.194189
H26   H     H_    0.299651 0.384061 0.236012 0.167089

loop_
_geom_bond_atom_site_label_1
_geom_bond_atom_site_label_2
_ccdc_geom_bond_type
O19   C44   A    
O15   V3    S    
O12   V3    S    
H16   C39   S    
C24   H13   S    
O18   C43   A    
C7    H5    S    
C6    C16   A    
C9    H6    S    
O16   V4    S    
V3    O20   S    
C22   C44   S    
C4    C6    S    
C13   C14   A    
O12   C41   A    
O5    C3    A    
O14   V3    S    
C29   H19   S    
C27   C39   A    
C31   H20   S    
H17   C36   S    
C37   H22   S    
C5    H3    S    
C15   H8    S    
C32   C34   A    
O15   C43   A    
O8    V2    S    
O13   C44   A    
C25   H14   S    
C8    C9    A    
O1    V2    S    
O7    V1    S    
C30   H21   S    
C1    O6    A    
C30   C31   A    
O9    C4    A    
C40   C41   S    
C32   C33   A    
C21   H10   S    
C28   C38   A    
C19   C21   S    
C23   H12   S    
O17   V4    S    
C6    C17   A    
C34   C38   A    
C33   C37   A    
C1    C26   S    
C12   C16   A    
C9    C10   A    
C19   C20   D    
O4    C2    A    
O18   V4    S    
O11   C42   A    
C45   H26   S    
C29   C30   A    
C8    H7    S    
C33   C40   A    
C31   C32   A    
C26   H15   S    
C3    C20   S    
O2    C1    A    
C18   C43   S    
C14   C15   A    
C41   O16   A    
C11   C18   A    
O17   V3    S    
N1    C45   S    
C25   C26   D    
C16   H4    S    
C45   H25   S    
C22   H11   S    
O3    C4    A    
C20   H9    S    
C11   C15   A    
O6    V2    S    
O19   V4    S    
H1    C17   S    
C21   C22   D    
C28   C39   A    
O2    V1    S    
C19   N1    S    
O14   C42   A    
C7    C18   A    
C23   C24   D    
O1    C2    A    
C5    C13   A    
O5    V1    S    
O8    C3    A    
C29   C40   A    
C10   C12   A    
C23   C25   S    
O13   V3    S    
C38   H18   S    
C35   C36   A    
O9    V2    S    
C10   C11   A    
O4    V1    S    
O3    V1    S    
V1    O10   S    
C27   C35   A    
N1    H23   S    
C24   C42   S    
O7    V2    S    
C45   H24   S    
O11   V4    S    
C34   C35   A    
C27   F1    S    
C36   C37   A    
C12   C13   A    
C5    C17   A    
C7    C8    A    
V4    O20   S    
C2    C28   S    
V2    O10   S    
H2    C14   S    
