data_mof_unit_38250.cif
_audit_creation_date              2012-12-10T17:47:16-0500
_audit_creation_method            fapswitch 2.2
_symmetry_space_group_name_H-M    P1
_symmetry_Int_Tables_number       1
_space_group_crystal_system       triclinic
_cell_length_a                    11.699594
_cell_length_b                    14.874141
_cell_length_c                    14.836746
_cell_angle_alpha                 63.833373
_cell_angle_beta                  106.894302
_cell_angle_gamma                 102.827515
_cell_volume                      2204.01210728

loop_
_atom_site_label
_atom_site_type_symbol
_atom_type_description
_atom_site_fract_x
_atom_site_fract_y
_atom_site_fract_z
_atom_type_partial_charge
C1    C     C_R   0.489496 0.119303 0.312364 0.872042
C2    C     C_R   0.510744 0.880689 0.687711 0.874337
C3    C     C_R   0.466290 0.326070 0.996026 -0.071466
C4    C     C_R   0.533887 0.673959 0.004218 -0.074633
C5    C     C_R   0.508417 0.465037 0.052043 0.028497
C6    C     C_R   0.490424 0.535009 0.948020 0.034823
C7    C     C_R   0.472711 0.499322 0.871092 -0.156177
C8    C     C_R   0.525714 0.500710 0.128891 -0.128951
C9    C     C_R   0.451759 0.396691 0.892499 0.414965
C10   C     C_R   0.547907 0.603260 0.107685 0.403966
C11   C     C_R   0.743415 0.306782 0.619896 0.286856
C12   C     C_R   0.256868 0.693979 0.378454 0.199720
C13   C     C_R   0.686957 0.212316 0.622736 0.393068
C14   C     C_R   0.313437 0.788176 0.376532 0.361067
C15   C     C_R   0.509302 0.285207 0.510960 0.383994
C16   C     C_R   0.490623 0.714791 0.488897 0.401668
C17   C     C_R   0.548456 0.373170 0.532939 -0.084243
C18   C     C_R   0.451475 0.626984 0.466676 -0.080375
C19   C     C_R   0.671221 0.386363 0.582788 -0.121269
C20   C     C_R   0.328843 0.614033 0.416272 -0.109238
C21   C     C_R   0.473868 0.451972 0.500361 0.151805
C22   C     C_R   0.526082 0.548182 0.499325 0.142189
C23   C     C_R   0.284084 0.999909 0.499323 0.847560
C24   C     C_R   0.715914 0.000095 0.500666 0.844387
C25   C     C_R   0.651169 0.562199 0.530899 -0.123175
C26   C     C_R   0.348804 0.438009 0.468773 -0.148759
C27   C     C_R   0.717533 0.480685 0.588152 0.358642
C28   C     C_R   0.282624 0.519603 0.411012 0.354205
C29   C     C_1   0.162034 0.999191 0.499265 -0.049367
C30   C     C_1   0.837962 0.000807 0.500717 -0.032090
C31   C     C_1   0.059714 0.999556 0.499663 0.083653
C32   C     C_1   0.940280 0.000434 0.500318 0.089821
C33   C     C_R   0.494873 0.186871 0.203598 -0.203855
C34   C     C_R   0.505679 0.813206 0.796620 -0.221245
C35   C     C_R   0.450927 0.221937 0.021628 -0.097059
C36   C     C_R   0.550378 0.778093 0.978705 -0.094036
C37   C     C_R   0.461372 0.152530 0.123529 0.241534
C38   C     C_R   0.540180 0.847505 0.876791 0.243322
C39   C     C_R   0.540299 0.289120 0.178871 0.274985
C40   C     C_R   0.459270 0.711160 0.821385 0.337530
C41   C     C_R   0.504381 0.360542 0.076570 -0.063323
C42   C     C_R   0.495059 0.639565 0.923618 -0.037945
Cu1   Cu    Cu3+1 0.469550 0.918260 0.475690 1.097589
Cu2   Cu    Cu3+1 0.530450 0.081740 0.524310 1.113745
H1    H     H_    0.699002 0.636120 0.517036 0.199039
H2    H     H_    0.300945 0.364088 0.482693 0.194165
H3    H     H_    0.430363 0.192575 0.963253 0.244045
H4    H     H_    0.571586 0.807418 0.037167 0.242907
H5    H     H_    0.474020 0.551649 0.792982 0.240391
H6    H     H_    0.523439 0.448448 0.206840 0.229012
N1    N     N_R   0.576230 0.204580 0.560790 -0.245123
N2    N     N_R   0.423770 0.795420 0.439210 -0.239735
O1    O     O_R   0.459870 0.022090 0.338120 -0.536290
O2    O     O_R   0.540130 0.977910 0.661880 -0.540017
O3    O     O_R   0.511290 0.160150 0.379180 -0.511962
O4    O     O_R   0.488710 0.839850 0.620820 -0.505175
O5    O     O_R   0.311490 0.930960 0.479480 -0.546338
O6    O     O_R   0.688510 0.069040 0.520520 -0.526043
O7    O     O_R   0.362910 0.069020 0.520540 -0.554372
O8    O     O_R   0.637090 0.930980 0.479460 -0.556236
S1    S     S_3+6 0.408395 0.361086 0.786717 0.029720
O9    O     O_2   0.508245 0.313065 0.786064 -0.250779
O10   O     O_2   0.297398 0.286631 0.795874 -0.252953
O11   O     O_3   0.379724 0.462364 0.675189 -0.534271
H7    H     H_    0.292849 0.467516 0.661467 0.385700
S2    S     S_3+6 0.592636 0.638478 0.213747 0.048330
O12   O     O_2   0.703967 0.712523 0.204489 -0.219410
O13   O     O_2   0.493504 0.686711 0.215210 -0.247086
O14   O     O_3   0.621474 0.536858 0.324936 -0.526791
H8    H     H_    0.705444 0.526506 0.333688 0.409782
S3    S     S_3+6 0.317065 0.685931 0.744598 0.034472
O15   O     O_2   0.245875 0.595356 0.809592 -0.224174
O16   O     O_2   0.247552 0.775372 0.699963 -0.288723
O17   O     O_3   0.335074 0.665049 0.647397 -0.534917
H9    H     H_    0.252568 0.650311 0.610885 0.363882
S4    S     S_3+6 0.681953 0.315221 0.255902 0.051335
O18   O     O_2   0.664643 0.332502 0.343235 -0.241390
O19   O     O_2   0.753499 0.227021 0.300358 -0.275754
O20   O     O_3   0.761142 0.418004 0.184510 -0.458529
H10   H     H_    0.776434 0.399776 0.132717 0.368839
Br1   Br    Br    0.554187 0.986261 0.855614 -0.321425
Br2   Br    Br    0.449140 0.013852 0.144934 -0.315922
Br3   Br    Br    0.852194 0.502003 0.690905 -0.247426
Br4   Br    Br    0.149291 0.497989 0.307526 -0.225173
Br5   Br    Br    0.617840 0.710767 0.608039 -0.427013
Br6   Br    Br    0.381997 0.289071 0.391948 -0.431482
Br7   Br    Br    0.229534 0.905420 0.287663 -0.268384
Br8   Br    Br    0.771962 0.095652 0.711332 -0.270413
S5    S     S_3+6 0.902782 0.327031 0.634367 0.118528
O21   O     O_2   0.941431 0.433993 0.569222 -0.206923
O22   O     O_2   0.962527 0.303170 0.745557 -0.183288
O23   O     O_3   0.947767 0.252389 0.595777 -0.464454
H11   H     H_    0.036349 0.267594 0.607209 0.394964
S6    S     S_3+6 0.096889 0.674790 0.360063 0.117771
O24   O     O_2   0.040954 0.697682 0.248450 -0.127692
O25   O     O_2   0.055621 0.568350 0.424547 -0.211601
O26   O     O_3   0.047567 0.750759 0.394265 -0.445556
H12   H     H_    0.082019 0.729211 0.469079 0.351171

loop_
_geom_bond_atom_site_label_1
_geom_bond_atom_site_label_2
_ccdc_geom_bond_type
S2    O13   D    
C21   C26   A    
C4    C36   A    
C40   S3    S    
C8    H6    S    
C28   Br4   S    
S4    O20   S    
C35   H3    S    
O26   H12   S    
C1    C33   S    
C39   C41   A    
C23   O7    A    
C11   C19   A    
C33   C39   A    
C9    S1    S    
C23   C29   S    
C35   C37   A    
S4    O19   D    
C14   Br7   S    
C5    C6    A    
Cu1   N2    S    
S2    O14   S    
Cu2   O7    S    
C7    C9    A    
S1    O10   D    
C1    O1    A    
C13   N1    A    
Cu1   O1    S    
C14   N2    A    
Cu2   O6    S    
C22   C25   A    
C15   N1    A    
S5    O22   D    
C19   C27   A    
C2    C34   S    
C40   C42   A    
S2    O12   D    
C34   C38   A    
C21   C22   A    
C12   S6    S    
O14   H8    S    
C10   S2    S    
O17   H9    S    
S4    O18   D    
C7    H5    S    
C2    O2    A    
S3    O16   D    
C26   H2    S    
C20   C28   A    
S6    O26   S    
C33   C37   A    
S1    O11   S    
Cu1   Cu2   S    
C3    C9    A    
C5    C8    A    
C11   S5    S    
C31   C32   S    
C3    C35   A    
C24   O8    A    
C12   C20   A    
S6    O24   D    
C16   C18   A    
C39   S4    S    
S5    O23   S    
S6    O25   D    
Cu1   O8    S    
C15   Br6   S    
Cu2   N1    S    
C8    C10   A    
C12   C14   A    
C38   Br1   S    
C16   Br5   S    
C34   C40   A    
C37   Br2   S    
C4    C10   A    
C25   H1    S    
C23   O5    A    
C5    C41   A    
C3    C41   A    
C18   C22   A    
C16   N2    A    
S3    O17   S    
C15   C17   A    
C6    C7    A    
C25   C27   A    
C26   C28   A    
O11   H7    S    
C36   C38   A    
C1    O3    A    
S3    O15   D    
C29   C31   T    
C2    O4    A    
C30   C32   T    
C11   C13   A    
Cu2   O3    S    
C4    C42   A    
C13   Br8   S    
C27   Br3   S    
O23   H11   S    
C17   C19   A    
C36   H4    S    
C18   C20   A    
S1    O9    D    
C24   C30   S    
Cu1   O5    S    
O20   H10   S    
Cu2   O2    S    
Cu1   O4    S    
C24   O6    A    
C6    C42   A    
S5    O21   D    
C17   C21   A    
