data_mof_unit_20619.cif
_audit_creation_date              2012-12-10T16:42:59-0500
_audit_creation_method            fapswitch 2.2
_symmetry_space_group_name_H-M    P1
_symmetry_Int_Tables_number       1
_space_group_crystal_system       triclinic
_cell_length_a                    7.446282
_cell_length_b                    8.750258
_cell_length_c                    12.992445
_cell_angle_alpha                 87.852566
_cell_angle_beta                  79.85289
_cell_angle_gamma                 102.46534
_cell_volume                      811.148367258

loop_
_atom_site_label
_atom_site_type_symbol
_atom_type_description
_atom_site_fract_x
_atom_site_fract_y
_atom_site_fract_z
_atom_type_partial_charge
C1    C     C_R   0.453756 0.200466 0.505611 0.830442
C2    C     C_R   0.546244 0.799534 0.494389 0.830442
C3    C     C_R   0.467703 0.495745 0.700781 0.801081
C4    C     C_R   0.532297 0.504254 0.299219 0.801082
C5    C     C_R   0.546335 0.497217 0.187094 -0.078239
C6    C     C_R   0.453663 0.502780 0.812907 -0.078241
C7    C     C_R   0.327200 0.612123 0.969429 -0.193211
C8    C     C_R   0.672795 0.387870 0.030573 -0.193212
C9    C     C_R   0.334257 0.590548 0.864226 -0.194990
C10   C     C_R   0.665734 0.409441 0.135776 -0.194987
C11   C     C_R   0.563200 0.429817 0.867699 -0.077513
C12   C     C_R   0.436803 0.570183 0.132302 -0.077515
C13   C     C_R   0.559422 0.453616 0.974320 0.112512
C14   C     C_R   0.440578 0.546382 0.025681 0.112511
C15   C     C_2   0.430809 0.034456 0.521379 -0.250692
C16   C     C_2   0.569191 0.965544 0.478621 -0.250690
Cu1   Cu    Cu3+1 0.686350 0.517570 0.488220 1.003274
Cu2   Cu    Cu3+1 0.313650 0.482430 0.511780 1.003274
H1    H     H_    0.750764 0.353763 0.178059 0.174741
H2    H     H_    0.249220 0.646216 0.821945 0.174744
H3    H     H_    0.233389 0.681817 0.005764 0.163349
H4    H     H_    0.766602 0.318172 0.994239 0.163349
H5    H     H_    0.934335 0.373887 0.580028 0.246949
H6    H     H_    0.065664 0.626111 0.419970 0.246948
N1    N     N_2   0.033570 0.455950 0.529530 -0.205155
N2    N     N_2   0.966430 0.544050 0.470470 -0.205156
O1    O     O_R   0.621060 0.286250 0.492350 -0.584826
O2    O     O_R   0.378940 0.713750 0.507650 -0.584825
O3    O     O_R   0.306310 0.256580 0.512240 -0.571569
O4    O     O_R   0.693690 0.743420 0.487760 -0.571569
O5    O     O_R   0.631800 0.512400 0.642670 -0.579202
O6    O     O_R   0.368200 0.487600 0.357330 -0.579203
O7    O     O_R   0.317060 0.482730 0.662570 -0.579421
O8    O     O_R   0.682940 0.517270 0.337430 -0.579422
C17   C     C_1   0.328074 0.674230 0.184317 0.224293
N3    N     N_1   0.242002 0.757777 0.225268 -0.290027
C18   C     C_1   0.671934 0.325771 0.815682 0.224288
N4    N     N_1   0.758012 0.242225 0.774731 -0.290023
C19   C     C_1   0.262141 0.951727 0.593533 0.308454
N5    N     N_1   0.127984 0.886379 0.650932 -0.260245
C20   C     C_1   0.737858 0.048273 0.406467 0.308452
N6    N     N_1   0.872015 0.113620 0.349067 -0.260248

loop_
_geom_bond_atom_site_label_1
_geom_bond_atom_site_label_2
_ccdc_geom_bond_type
C8    H4    S    
C18   N4    T    
C1    C15   S    
C2    C16   S    
C20   N6    T    
C9    H2    S    
C17   N3    T    
C10   H1    S    
C2    O4    A    
C3    C6    S    
C6    C9    A    
C1    O3    A    
Cu1   Cu2   S    
C5    C10   A    
Cu2   O3    S    
C13   C14   A    
C12   C17   S    
C3    O5    A    
Cu1   O4    S    
C11   C13   A    
C15   C19   S    
C4    O6    A    
Cu2   N1    S    
Cu1   N2    S    
C8    C10   A    
H6    N2    S    
H5    N1    S    
Cu1   O5    S    
Cu2   O7    S    
C4    O8    A    
Cu2   O6    S    
Cu1   O8    S    
C3    O7    A    
C15   C16   D    
Cu1   O1    S    
C8    C13   A    
C7    C9    A    
C6    C11   A    
Cu2   O2    S    
C5    C12   A    
C1    O1    A    
C19   N5    T    
C11   C18   S    
C2    O2    A    
N1    N2    D    
C7    H3    S    
C16   C20   S    
C7    C14   A    
C12   C14   A    
C4    C5    S    
