data_mof_unit_51866.cif
_audit_creation_date              2012-12-11T15:39:22-0500
_audit_creation_method            fapswitch 2.2
_symmetry_space_group_name_H-M    P1
_symmetry_Int_Tables_number       1
_space_group_crystal_system       triclinic
_cell_length_a                    17.363907
_cell_length_b                    24.312483
_cell_length_c                    15.010841
_cell_angle_alpha                 90.000011
_cell_angle_beta                  125.481312
_cell_angle_gamma                 90.0
_cell_volume                      5160.22726421

loop_
_atom_site_label
_atom_site_type_symbol
_atom_type_description
_atom_site_fract_x
_atom_site_fract_y
_atom_site_fract_z
_atom_type_partial_charge
C1    C     C_R   0.347531 0.349107 0.909365 -0.125370
C2    C     C_R   0.647397 0.347657 0.089457 -0.141716
C3    C     C_R   0.852603 0.847657 0.910543 -0.141716
C4    C     C_R   0.152469 0.849107 0.090635 -0.125369
C5    C     C_R   0.309840 0.634946 0.998804 0.038026
C6    C     C_R   0.681678 0.646459 0.001722 0.045234
C7    C     C_R   0.818322 0.146459 0.998278 0.045234
C8    C     C_R   0.190160 0.134946 0.001196 0.038025
C9    C     C_R   0.566772 0.499802 0.366302 0.053099
C10   C     C_R   0.529605 0.499338 0.703326 0.047653
C11   C     C_R   0.970395 0.999338 0.296674 0.047654
C12   C     C_R   0.933227 0.999802 0.633698 0.053099
C13   C     C_R   0.200181 0.500369 0.632743 0.081497
C14   C     C_R   0.827092 0.499946 0.295505 0.073994
C15   C     C_R   0.672908 0.999946 0.704496 0.073994
C16   C     C_R   0.299819 0.000369 0.367257 0.081497
C17   C     C_R   0.074115 0.551596 0.470070 0.175864
C18   C     C_R   0.978730 0.551383 0.387943 0.169446
C19   C     C_R   0.521270 0.051383 0.612058 0.169447
C20   C     C_R   0.425884 0.051596 0.529931 0.175866
C21   C     C_R   0.121131 0.501936 0.517870 0.027703
C22   C     C_R   0.929019 0.501572 0.350664 0.029572
C23   C     C_R   0.570981 0.001571 0.649336 0.029571
C24   C     C_R   0.378869 0.001936 0.482130 0.027703
C25   C     C_R   0.078022 0.452895 0.460263 -0.196353
C26   C     C_R   0.981383 0.452728 0.376140 -0.192422
C27   C     C_R   0.518617 0.952727 0.623860 -0.192421
C28   C     C_R   0.421978 0.952894 0.539737 -0.196353
C29   C     C_3   0.962614 0.602700 0.430319 -0.527613
C30   C     C_3   0.066825 0.603149 0.519548 -0.523237
C31   C     C_3   0.433174 0.103149 0.480454 -0.523236
C32   C     C_3   0.537386 0.102700 0.569683 -0.527614
C33   C     C_R   0.164946 0.690419 0.895849 -0.138489
C34   C     C_R   0.833509 0.695395 0.106088 -0.145521
C35   C     C_R   0.666491 0.195395 0.893912 -0.145521
C36   C     C_R   0.335054 0.190420 0.104152 -0.138487
C37   C     C_R   0.615229 0.238604 0.892857 -0.158994
C38   C     C_R   0.376454 0.238536 0.103626 -0.158247
C39   C     C_R   0.123545 0.738535 0.896374 -0.158246
C40   C     C_R   0.884771 0.738604 0.107143 -0.158996
C41   C     C_R   0.638124 0.259755 0.992065 0.090518
C42   C     C_R   0.351480 0.260976 0.004443 0.092933
C43   C     C_R   0.148520 0.760976 0.995557 0.092934
C44   C     C_R   0.861876 0.759755 0.007934 0.090518
C45   C     C_R   0.401233 0.624216 0.090958 -0.136933
C46   C     C_R   0.593060 0.632469 0.909935 -0.149123
C47   C     C_R   0.906940 0.132468 0.090065 -0.149124
C48   C     C_R   0.098767 0.124216 0.909041 -0.136933
C49   C     C_R   0.694272 0.229049 0.087854 -0.157689
C50   C     C_R   0.299166 0.229192 0.908854 -0.152151
C51   C     C_R   0.200836 0.729192 0.091147 -0.152153
C52   C     C_R   0.805728 0.729049 0.912146 -0.157689
C53   C     C_R   0.241626 0.679539 0.090871 -0.034644
C54   C     C_R   0.756147 0.683746 0.911208 -0.018635
C55   C     C_R   0.743853 0.183746 0.088791 -0.018634
C56   C     C_R   0.258375 0.179539 0.909130 -0.034646
C57   C     C_R   0.234109 0.664810 0.994905 0.017813
C58   C     C_R   0.759136 0.673353 0.005877 0.021070
C59   C     C_R   0.740864 0.173353 0.994122 0.021070
C60   C     C_R   0.265891 0.164810 0.005096 0.017813
C61   C     C_R   0.579736 0.549814 0.603423 -0.130307
C62   C     C_R   0.595226 0.550122 0.523682 -0.120237
C63   C     C_R   0.904773 0.050122 0.476318 -0.120238
C64   C     C_R   0.920263 0.049814 0.396576 -0.130308
C65   C     C_R   0.596823 0.500228 0.478637 0.111061
C66   C     C_R   0.570591 0.499805 0.642426 0.108154
C67   C     C_R   0.929409 0.999805 0.357574 0.108154
C68   C     C_R   0.903177 0.000228 0.521363 0.111062
C69   C     C_R   0.605747 0.450623 0.531412 -0.164810
C70   C     C_R   0.592839 0.450446 0.614013 -0.159179
C71   C     C_R   0.907161 0.950446 0.385986 -0.159179
C72   C     C_R   0.894253 0.950623 0.468588 -0.164810
C73   C     C_R   0.548726 0.454011 0.302634 -0.118949
C74   C     C_R   0.509074 0.453352 0.740338 -0.121495
C75   C     C_R   0.990925 0.953352 0.259662 -0.121495
C76   C     C_R   0.951274 0.954011 0.697366 -0.118949
C77   C     C_R   0.248894 0.545654 0.695615 -0.164404
C78   C     C_R   0.769493 0.545452 0.266670 -0.138647
C79   C     C_R   0.730507 0.045452 0.733330 -0.138648
C80   C     C_R   0.251106 0.045654 0.304385 -0.164405
C81   C     C_R   0.550483 0.545609 0.303278 -0.143609
C82   C     C_R   0.500586 0.545304 0.731193 -0.138416
C83   C     C_R   0.999414 0.045304 0.268807 -0.138416
C84   C     C_R   0.949517 0.045609 0.696722 -0.143609
C85   C     C_R   0.245215 0.454338 0.696691 -0.115864
C86   C     C_R   0.769502 0.453689 0.259339 -0.125640
C87   C     C_R   0.730498 0.953689 0.740661 -0.125639
C88   C     C_R   0.254785 0.954338 0.303308 -0.115863
C89   C     C_R   0.308818 0.621736 0.907862 -0.101428
C90   C     C_R   0.682499 0.632858 0.091592 -0.101799
C91   C     C_R   0.817501 0.132858 0.908407 -0.101799
C92   C     C_R   0.191182 0.121736 0.092138 -0.101428
C93   C     C_R   0.439290 0.349727 0.092086 -0.121621
C94   C     C_R   0.555539 0.348730 0.907236 -0.136687
C95   C     C_R   0.944461 0.848730 0.092764 -0.136687
C96   C     C_R   0.060710 0.849727 0.907914 -0.121620
C97   C     C_R   0.375505 0.318232 0.001416 0.053844
C98   C     C_R   0.615776 0.316539 0.996842 0.067769
C99   C     C_R   0.884224 0.816539 0.003158 0.067768
C100  C     C_R   0.124495 0.818232 0.998584 0.053844
H1    H     H_    0.307068 0.335197 0.825436 0.092701
H2    H     H_    0.686239 0.333213 0.172937 0.092262
H3    H     H_    0.813761 0.833213 0.827063 0.092262
H4    H     H_    0.192932 0.835198 0.174564 0.092701
H5    H     H_    0.939760 0.637895 0.372884 0.188895
H6    H     H_    0.081747 0.597072 0.601652 0.199668
H7    H     H_    0.418252 0.097073 0.398350 0.199668
H8    H     H_    0.560238 0.137895 0.627119 0.188895
H9    H     H_    0.920380 0.595817 0.463502 0.202267
H10   H     H_    0.104206 0.638362 0.513124 0.196016
H11   H     H_    0.395793 0.138362 0.486880 0.196016
H12   H     H_    0.579619 0.095819 0.536500 0.202267
H13   H     H_    0.150046 0.677793 0.818379 0.110295
H14   H     H_    0.846829 0.683928 0.183282 0.104755
H15   H     H_    0.653172 0.183929 0.816718 0.104755
H16   H     H_    0.349952 0.177794 0.181621 0.110294
H17   H     H_    0.566414 0.258725 0.815373 0.107970
H18   H     H_    0.420970 0.260098 0.180406 0.109645
H19   H     H_    0.079028 0.760097 0.819594 0.109645
H20   H     H_    0.933586 0.758725 0.184626 0.107970
H21   H     H_    0.702559 0.241501 0.162176 0.153402
H22   H     H_    0.288094 0.243443 0.833967 0.150030
H23   H     H_    0.211909 0.743444 0.166034 0.150029
H24   H     H_    0.797441 0.741501 0.837823 0.153403
H25   H     H_    0.565846 0.588800 0.625341 0.150528
H26   H     H_    0.593439 0.589458 0.489123 0.132674
H27   H     H_    0.906561 0.089458 0.510876 0.132672
H28   H     H_    0.934153 0.088800 0.374658 0.150529
H29   H     H_    0.612950 0.411562 0.502542 0.109705
H30   H     H_    0.592108 0.411324 0.647703 0.110075
H31   H     H_    0.907892 0.911324 0.352297 0.110075
H32   H     H_    0.887050 0.911562 0.497458 0.109705
H33   H     H_    0.429967 0.631664 0.175633 0.100230
H34   H     H_    0.562340 0.645751 0.827567 0.093937
H35   H     H_    0.937660 0.145750 0.172433 0.093937
H36   H     H_    0.070033 0.131664 0.824367 0.100227
H37   H     H_    0.564133 0.411573 0.328583 0.085471
H38   H     H_    0.518393 0.410593 0.729593 0.091025
H39   H     H_    0.981606 0.910593 0.270406 0.091025
H40   H     H_    0.935866 0.911573 0.671417 0.085471
H41   H     H_    0.244867 0.587043 0.667122 0.108990
H42   H     H_    0.790483 0.587029 0.290311 0.098612
H43   H     H_    0.709517 0.087029 0.709689 0.098612
H44   H     H_    0.255133 0.087043 0.332878 0.108990
H45   H     H_    0.569186 0.587742 0.330193 0.096551
H46   H     H_    0.494306 0.586805 0.703380 0.093629
H47   H     H_    0.005694 0.086805 0.296620 0.093629
H48   H     H_    0.930814 0.087742 0.669807 0.096550
H49   H     H_    0.234161 0.412024 0.669857 0.089301
H50   H     H_    0.790117 0.411021 0.269084 0.098356
H51   H     H_    0.709884 0.911021 0.730916 0.098356
H52   H     H_    0.265838 0.912024 0.330143 0.089301
H53   H     H_    0.250466 0.624372 0.822739 0.090056
H54   H     H_    0.731214 0.647011 0.173778 0.079982
H55   H     H_    0.768786 0.147011 0.826222 0.079982
H56   H     H_    0.249534 0.124372 0.177261 0.090055
H57   H     H_    0.485165 0.336465 0.176244 0.086249
H58   H     H_    0.507278 0.335600 0.823314 0.084919
H59   H     H_    0.992722 0.835600 0.176686 0.084919
H60   H     H_    0.014836 0.836465 0.823756 0.086249
H61   H     H_    0.114338 0.413834 0.488677 0.131136
H62   H     H_    0.947073 0.413612 0.341707 0.133160
H63   H     H_    0.552927 0.913612 0.658292 0.133160
H64   H     H_    0.385662 0.913834 0.511322 0.131136
N1    N     N_R   0.394180 0.396910 0.943210 -0.040164
N2    N     N_R   0.605820 0.396910 0.056790 -0.038717
N3    N     N_R   0.894180 0.896910 0.943210 -0.038717
N4    N     N_R   0.105820 0.896910 0.056790 -0.040164
N5    N     N_R   0.450950 0.603070 0.056740 -0.041090
N6    N     N_R   0.549050 0.603070 0.943260 -0.037914
N7    N     N_R   0.950950 0.103070 0.056740 -0.037914
N8    N     N_R   0.049050 0.103070 0.943260 -0.041090
N9    N     N_R   0.525650 0.471570 0.206150 -0.040430
N10   N     N_R   0.474350 0.471570 0.793850 -0.040257
N11   N     N_R   0.025650 0.971570 0.206150 -0.040257
N12   N     N_R   0.974350 0.971570 0.793850 -0.040430
N13   N     N_R   0.319480 0.528420 0.793810 -0.041220
N14   N     N_R   0.680520 0.528420 0.206190 -0.040352
N15   N     N_R   0.819480 0.028420 0.793810 -0.040352
N16   N     N_R   0.180520 0.028420 0.206190 -0.041220
N17   N     N_R   0.525640 0.528390 0.206120 -0.040824
N18   N     N_R   0.474360 0.528390 0.793880 -0.036769
N19   N     N_R   0.025640 0.028390 0.206120 -0.036769
N20   N     N_R   0.974360 0.028390 0.793880 -0.040824
N21   N     N_R   0.319490 0.471590 0.793840 -0.041035
N22   N     N_R   0.680510 0.471590 0.206160 -0.041239
N23   N     N_R   0.819490 0.971590 0.793840 -0.041239
N24   N     N_R   0.180510 0.971590 0.206160 -0.041035
N25   N     N_R   0.394130 0.603080 0.943110 -0.043432
N26   N     N_R   0.605870 0.603080 0.056890 -0.041744
N27   N     N_R   0.894130 0.103080 0.943110 -0.041744
N28   N     N_R   0.105870 0.103080 0.056890 -0.043432
N29   N     N_R   0.450990 0.396900 0.056840 -0.040272
N30   N     N_R   0.549010 0.396900 0.943160 -0.038866
N31   N     N_R   0.950990 0.896900 0.056840 -0.038866
N32   N     N_R   0.049010 0.896900 0.943160 -0.040272
Ni1   Ni    Ni4+2 0.434860 0.434850 0.869700 0.209635
Ni2   Ni    Ni4+2 0.565140 0.434850 0.130300 0.209876
Ni3   Ni    Ni4+2 0.934860 0.934850 0.869700 0.209876
Ni4   Ni    Ni4+2 0.065140 0.934850 0.130300 0.209635
Ni5   Ni    Ni4+2 0.565130 0.565140 0.130240 0.214762
Ni6   Ni    Ni4+2 0.434870 0.565140 0.869760 0.216365
Ni7   Ni    Ni4+2 0.065130 0.065140 0.130240 0.216365
Ni8   Ni    Ni4+2 0.934870 0.065140 0.869760 0.214762
C101  C     C_2   0.288956 0.643453 0.188643 0.474517
H65   H     H_    0.305255 0.601102 0.182698 0.018801
O1    O     O_2   0.308705 0.660154 0.276346 -0.584502
C102  C     C_2   0.706364 0.647369 0.814383 0.454338
H66   H     H_    0.684581 0.606540 0.820249 0.013597
O2    O     O_2   0.692088 0.661886 0.728066 -0.600576
C103  C     C_2   0.793635 0.147369 0.185616 0.454340
H67   H     H_    0.815417 0.106540 0.179750 0.013600
O3    O     O_2   0.807912 0.161886 0.271933 -0.600581
C104  C     C_2   0.211046 0.143452 0.811359 0.474520
H68   H     H_    0.194744 0.101101 0.817303 0.018802
O4    O     O_2   0.191305 0.160151 0.723658 -0.584503

loop_
_geom_bond_atom_site_label_1
_geom_bond_atom_site_label_2
_ccdc_geom_bond_type
C13   C21   S    
C51   C53   A    
C74   H38   S    
N20   Ni8   S    
C55   C59   A    
C51   H23   S    
C6    C58   S    
C19   C20   A    
C50   H22   S    
N5    N25   A    
N16   Ni7   S    
C43   C51   A    
C47   N7    A    
N10   N18   A    
N2    Ni2   S    
C82   N18   A    
C3    N3    A    
C34   C58   A    
C101  H65   S    
N8    N28   A    
C12   C68   S    
C33   C39   A    
C73   H37   S    
C30   H10   S    
C37   C41   A    
C34   C40   A    
C80   N16   A    
C29   H9    S    
C35   C37   A    
C74   N10   A    
C86   H50   S    
C54   C58   A    
C44   C99   S    
C104  O4    D    
N30   Ni1   S    
N15   N23   A    
N24   Ni4   S    
C95   C99   A    
N29   Ni2   S    
C2    H2    S    
C96   C100  A    
C65   C69   A    
C70   H30   S    
N13   N21   A    
C12   C84   A    
C35   C59   A    
C31   H7    S    
C41   C49   A    
N8    Ni8   S    
N16   N24   A    
C27   H63   S    
C48   N8    A    
C96   N32   A    
C61   C66   A    
C79   H43   S    
C20   C24   A    
C25   H61   S    
C78   N14   A    
C80   H44   S    
C53   C101  S    
C35   H15   S    
C8    C92   A    
C23   C27   A    
C90   H54   S    
C32   H12   S    
C2    N2    A    
C56   C104  S    
C95   N31   A    
C37   H17   S    
C52   H24   S    
C63   H27   S    
C33   H13   S    
C44   C52   A    
C15   C23   S    
N9    N17   A    
C16   C24   S    
C87   H51   S    
C30   H6    S    
N7    Ni7   S    
C17   C30   S    
C88   H52   S    
C29   H5    S    
C61   C62   A    
C88   N24   A    
C9    C73   A    
C11   C75   A    
N32   Ni3   S    
C19   C32   S    
C54   C102  S    
C7    C59   S    
C82   H46   S    
C11   C67   S    
C72   H32   S    
C9    C65   S    
C10   C66   S    
C85   N21   A    
C13   C77   A    
N7    N27   A    
C64   C67   A    
N2    N30   A    
C84   N20   A    
C76   N12   A    
C43   C100  S    
C14   C86   A    
C42   C97   S    
C1    C97   A    
C62   H26   S    
C53   C57   A    
C104  H68   S    
C102  H66   S    
C39   C43   A    
N5    Ni5   S    
C11   C83   A    
C25   C26   A    
C6    C90   A    
C91   N27   A    
C26   H62   S    
C50   C56   A    
C4    N4    A    
N23   Ni3   S    
C16   C80   A    
C38   H18   S    
C84   H48   S    
C19   C23   A    
C8    C48   A    
C103  H67   S    
C91   H55   S    
C29   C30   S    
N1    Ni1   S    
C46   H34   S    
C77   N13   A    
C89   H53   S    
C31   C32   S    
C1    N1    A    
C68   C72   A    
C49   H21   S    
N12   N20   A    
C64   H28   S    
C17   C18   A    
C83   N19   A    
C92   H56   S    
C18   C29   S    
C93   H57   S    
C46   N6    A    
C42   C50   A    
C83   H47   S    
C69   H29   S    
C96   H60   S    
C86   N22   A    
C1    H1    S    
C81   H45   S    
C12   C76   A    
C32   H8    S    
C40   H20   S    
C95   H59   S    
N14   Ni5   S    
N27   Ni8   S    
N1    N29   A    
C76   H40   S    
C13   C85   A    
C36   H16   S    
C93   C97   A    
C7    C91   A    
C28   H64   S    
N11   N19   A    
N31   Ni4   S    
C90   N26   A    
C3    H3    S    
C103  O3    D    
C75   N11   A    
C21   C25   A    
C63   C68   A    
N10   Ni1   S    
C33   C57   A    
C6    C46   A    
C62   C65   A    
C47   H35   S    
N9    Ni2   S    
C18   C22   A    
N3    N31   A    
C48   H36   S    
N3    Ni3   S    
N17   Ni5   S    
C24   C28   A    
C36   C60   A    
C75   H39   S    
C45   N5    A    
C94   H58   S    
C87   N23   A    
N18   Ni6   S    
N26   Ni5   S    
C38   C42   A    
C15   C79   A    
N25   Ni6   S    
C34   H14   S    
C81   N17   A    
C7    C47   A    
N6    N26   A    
C45   H33   S    
C4    C100  A    
C5    C57   S    
N19   Ni7   S    
C14   C22   S    
C78   H42   S    
N4    N32   A    
C71   C72   A    
C49   C55   A    
C89   N25   A    
C8    C60   S    
N13   Ni6   S    
C10   C74   A    
C94   N30   A    
C66   C70   A    
C5    C45   A    
C39   H19   S    
C4    H4    S    
C36   C38   A    
N28   Ni7   S    
C10   C82   A    
C52   C54   A    
C31   H11   S    
C67   C71   A    
C14   C78   A    
C73   N9    A    
C69   C70   A    
N4    Ni4   S    
C85   H49   S    
N11   Ni4   S    
N6    Ni6   S    
C55   C103  S    
C63   C64   A    
N14   N22   A    
C3    C99   A    
C40   C44   A    
C79   N15   A    
C56   C60   A    
N15   Ni8   S    
C2    C98   A    
C71   H31   S    
C102  O2    D    
C22   C26   A    
C15   C87   A    
C93   N29   A    
C27   C28   A    
C16   C88   A    
C94   C98   A    
C41   C98   S    
N22   Ni2   S    
C61   H25   S    
N12   Ni3   S    
N21   Ni1   S    
C101  O1    D    
C77   H41   S    
C5    C89   A    
C92   N28   A    
C9    C81   A    
C20   C31   S    
C17   C21   A    
