data_mof_unit_48075.cif
_audit_creation_date              2012-12-10T17:23:10-0500
_audit_creation_method            fapswitch 2.2
_symmetry_space_group_name_H-M    P1
_symmetry_Int_Tables_number       1
_space_group_crystal_system       triclinic
_cell_length_a                    15.855669
_cell_length_b                    10.769658
_cell_length_c                    9.621997
_cell_angle_alpha                 89.899769
_cell_angle_beta                  89.598798
_cell_angle_gamma                 93.477305
_cell_volume                      1639.98436224

loop_
_atom_site_label
_atom_site_type_symbol
_atom_type_description
_atom_site_fract_x
_atom_site_fract_y
_atom_site_fract_z
_atom_type_partial_charge
C1    C     C_R   0.492203 0.262307 0.500487 0.785198
C2    C     C_3   0.083016 0.489671 0.496248 -0.000209
C3    C     C_3   0.974979 0.602641 0.513367 -0.043528
C4    C     C_3   0.916062 0.485174 0.494937 0.023523
C5    C     C_3   0.030277 0.560327 0.392206 0.128391
C6    C     C_3   0.970632 0.442464 0.371747 -0.196539
C7    C     C_1   0.174830 0.493300 0.498730 -0.061658
C8    C     C_1   0.824440 0.487422 0.495549 -0.053044
C9    C     C_R   0.389199 0.118339 0.714488 -0.220928
C10   C     C_R   0.349284 0.049837 0.821745 -0.167399
C11   C     C_R   0.348727 0.920254 0.822219 0.214460
C12   C     C_R   0.340048 0.498968 0.500303 0.790526
C13   C     C_R   0.387669 0.859834 0.712743 -0.233314
C14   C     C_R   0.433400 0.927743 0.607647 0.055634
C15   C     C_R   0.434503 0.059468 0.608658 0.105801
C16   C     C_R   0.478324 0.127189 0.500329 -0.105187
C17   C     C_R   0.508844 0.064627 0.385385 -0.217541
C18   C     C_R   0.505605 0.937037 0.382919 -0.186752
C19   C     C_R   0.475454 0.868143 0.497977 -0.107262
C20   C     C_R   0.644690 0.606094 0.133096 -0.005057
C21   C     C_R   0.718074 0.603715 0.052903 -0.303173
C22   C     C_R   0.712385 0.622894 0.909896 0.118470
C23   C     C_R   0.490430 0.735736 0.499807 0.812250
C24   C     C_R   0.630901 0.637091 0.855315 0.197065
C25   C     C_R   0.564318 0.565700 0.923909 0.088517
C26   C     C_R   0.566760 0.561255 0.072749 0.108479
C27   C     C_R   0.436786 0.441676 0.074706 -0.045549
C28   C     C_R   0.437393 0.440348 0.927095 -0.051463
C29   C     C_R   0.659826 0.497696 0.499486 0.836661
C30   C     C_3   0.968714 0.413398 0.599435 0.142501
C31   C     C_3   0.024138 0.371560 0.476831 0.171447
C32   C     C_1   0.250389 0.496261 0.500386 -0.175221
C33   C     C_1   0.749152 0.491868 0.497486 -0.190065
C34   C     C_3   0.027688 0.531930 0.617358 -0.080645
Cu1   Cu    Cu3+1 0.499990 0.499990 0.640660 0.934597
Cu2   Cu    Cu3+1 0.500010 0.500010 0.359340 0.946799
H1    H     H_    0.379713 0.759706 0.710145 0.165053
H2    H     H_    0.530561 0.892916 0.291993 0.179949
H3    H     H_    0.385197 0.392947 0.130108 0.130329
H4    H     H_    0.779092 0.614510 0.103035 0.174907
H5    H     H_    0.386053 0.391092 0.873199 0.121198
H6    H     H_    0.945856 0.405995 0.271203 0.145316
H7    H     H_    0.538334 0.114499 0.298109 0.171721
H8    H     H_    0.381258 0.216946 0.714230 0.157520
H9    H     H_    0.316752 0.097993 0.902955 0.131322
N1    N     N_R   0.500800 0.501210 0.147910 -0.182846
N2    N     N_R   0.500830 0.501290 0.852040 -0.184836
O1    O     O_R   0.499990 0.319640 0.618810 -0.579882
O2    O     O_R   0.500000 0.319660 0.381240 -0.579409
O3    O     O_R   0.379070 0.499980 0.618770 -0.596688
O4    O     O_R   0.379080 0.500000 0.381190 -0.584240
O5    O     O_R   0.500000 0.680340 0.618760 -0.586704
O6    O     O_R   0.500010 0.680360 0.381190 -0.578515
O7    O     O_R   0.620920 0.500000 0.618810 -0.573348
O8    O     O_R   0.620930 0.500020 0.381230 -0.569300
C35   C     C_3   0.058042 0.244230 0.446376 -0.409965
C36   C     C_3   0.987245 0.144466 0.422164 -0.792561
H10   H     H_    0.948664 0.128362 0.517679 0.263459
H11   H     H_    0.945947 0.172148 0.336153 0.244033
H12   H     H_    0.015037 0.055766 0.393522 0.252005
H13   H     H_    0.098280 0.252359 0.351418 0.200704
H14   H     H_    0.098433 0.216298 0.533311 0.204905
C37   C     C_3   0.305160 0.846315 0.938169 -0.414646
C38   C     C_3   0.360111 0.848126 0.067943 -0.811894
H15   H     H_    0.421345 0.807191 0.044802 0.246110
H16   H     H_    0.372348 0.944904 0.105785 0.249396
H17   H     H_    0.327246 0.792355 0.151511 0.247749
H18   H     H_    0.243506 0.885305 0.962979 0.205526
H19   H     H_    0.291649 0.747937 0.906331 0.212181
C39   C     C_1   0.652075 0.701207 0.238302 0.307083
N3    N     N_1   0.662725 0.777951 0.321431 -0.340262
C40   C     C_3   0.792495 0.651825 0.826883 -0.352665
C41   C     C_3   0.844592 0.765038 0.883345 -0.820975
H20   H     H_    0.804894 0.845117 0.899755 0.252726
H21   H     H_    0.873983 0.742529 0.983588 0.244224
H22   H     H_    0.896394 0.792693 0.809783 0.262896
H23   H     H_    0.831615 0.570331 0.831360 0.189470
H24   H     H_    0.778221 0.666878 0.715867 0.217242
C42   C     C_3   0.613243 0.772380 0.826138 -0.385137
C43   C     C_3   0.654576 0.826640 0.693056 -0.738130
H25   H     H_    0.720374 0.862289 0.711623 0.241999
H26   H     H_    0.654777 0.756512 0.609032 0.259181
H27   H     H_    0.619975 0.907294 0.657807 0.238749
H28   H     H_    0.544277 0.784239 0.824271 0.217173
H29   H     H_    0.635862 0.831115 0.915013 0.178575
C44   C     C_3   0.928926 0.332960 0.717186 -0.387362
C45   C     C_3   0.994392 0.268670 0.802564 -0.829330
H30   H     H_    0.024142 0.196696 0.740165 0.254375
H31   H     H_    0.043978 0.336950 0.841002 0.256562
H32   H     H_    0.962795 0.222052 0.893644 0.240601
H33   H     H_    0.893662 0.392721 0.787431 0.192695
H34   H     H_    0.882970 0.262103 0.673092 0.207236
C46   C     C_3   0.068736 0.642616 0.275550 -0.377515
C47   C     C_3   0.001109 0.687414 0.178806 -0.817577
H35   H     H_    0.967830 0.607026 0.126242 0.250343
H36   H     H_    0.954434 0.739966 0.237346 0.254065
H37   H     H_    0.031191 0.749824 0.098383 0.257076
H38   H     H_    0.104415 0.724106 0.321903 0.202915
H39   H     H_    0.113511 0.588650 0.214335 0.213043
C48   C     C_1   0.947300 0.729572 0.529384 0.231572
N4    N     N_1   0.925531 0.829698 0.540571 -0.315785
C49   C     C_1   0.060068 0.583389 0.749185 0.242003
N5    N     N_1   0.085742 0.623925 0.852917 -0.321396

loop_
_geom_bond_atom_site_label_1
_geom_bond_atom_site_label_2
_ccdc_geom_bond_type
C45   H30   S    
C28   N2    A    
C46   C47   S    
C41   H20   S    
C2    C7    S    
C4    C8    S    
Cu1   N2    S    
C23   O5    A    
C34   C49   S    
C5    C6    S    
C11   C37   S    
C44   H33   S    
C42   H28   S    
C36   H11   S    
C29   O7    A    
C15   C16   A    
C29   C33   S    
C28   H5    S    
C35   C36   S    
C18   C19   A    
C40   H24   S    
Cu2   O6    S    
C3    C48   S    
C37   H19   S    
C27   H3    S    
C16   C17   A    
Cu2   N1    S    
C39   N3    T    
C31   C35   S    
C30   C44   S    
C9    C10   A    
C46   H39   S    
C13   H1    S    
C2    C34   S    
C6    C31   S    
C21   C22   A    
C12   C32   S    
Cu1   O7    S    
C41   H21   S    
C20   C39   S    
C47   H35   S    
Cu1   O3    S    
C43   H27   S    
Cu1   O1    S    
C22   C40   S    
C23   O6    A    
C30   C34   S    
C38   H17   S    
C24   C25   A    
C43   H26   S    
C44   C45   S    
C40   C41   S    
C36   H12   S    
C29   O8    A    
C3    C34   S    
C25   C26   A    
C42   C43   S    
C2    C31   S    
Cu1   Cu2   S    
C38   H16   S    
C19   C23   S    
C17   H7    S    
C40   H23   S    
C24   C42   S    
C5    C46   S    
C10   H9    S    
C17   C18   A    
C1    C16   S    
C47   H36   S    
Cu2   O4    S    
C27   N1    A    
C4    C6    S    
C45   H31   S    
C41   H22   S    
C35   H14   S    
C2    C5    S    
C3    C4    S    
C42   H29   S    
C12   O4    A    
C25   N2    A    
C37   H18   S    
C9    H8    S    
C7    C32   T    
C14   C15   A    
C14   C19   A    
C43   H25   S    
C3    C5    S    
C12   O3    A    
C1    O1    A    
C47   H37   S    
C38   H15   S    
C18   H2    S    
Cu2   O8    S    
C44   H34   S    
C11   C13   A    
C36   H10   S    
C30   C31   S    
C21   H4    S    
C20   C26   A    
C48   N4    T    
C22   C24   A    
C8    C33   T    
C9    C15   A    
C49   N5    T    
C10   C11   A    
C26   N1    A    
C37   C38   S    
C20   C21   A    
C6    H6    S    
C45   H32   S    
Cu1   O5    S    
C35   H13   S    
C13   C14   A    
C1    O2    A    
C46   H38   S    
C4    C30   S    
Cu2   O2    S    
C27   C28   A    
