data_mof_unit_23286.cif
_audit_creation_date              2012-12-11T16:16:59-0500
_audit_creation_method            fapswitch 2.2
_symmetry_space_group_name_H-M    P1
_symmetry_Int_Tables_number       1
_space_group_crystal_system       triclinic
_cell_length_a                    13.345438
_cell_length_b                    13.316323
_cell_length_c                    28.492969
_cell_angle_alpha                 90.01823
_cell_angle_beta                  89.151652
_cell_angle_gamma                 119.945581
_cell_volume                      4386.93603153

loop_
_atom_site_label
_atom_site_type_symbol
_atom_type_description
_atom_site_fract_x
_atom_site_fract_y
_atom_site_fract_z
_atom_type_partial_charge
C1    C     C_R   0.438017 0.549694 0.316501 0.538859
C2    C     C_R   0.550824 0.440026 0.683949 0.541006
C3    C     C_R   0.847833 0.971507 0.590666 -0.100988
C4    C     C_R   0.731613 0.892682 0.600853 -0.111847
C5    C     C_R   0.644750 0.902017 0.577893 -0.084687
C6    C     C_R   0.319818 0.318337 0.956589 0.040296
C7    C     C_R   0.282743 0.201305 0.966043 -0.088200
C8    C     C_R   0.179234 0.114281 0.947683 -0.111269
C9    C     C_R   0.113992 0.143468 0.918724 -0.097310
C10   C     C_R   0.152451 0.259426 0.907742 -0.113147
C11   C     C_R   0.254309 0.346784 0.927005 -0.086818
C12   C     C_R   0.680144 0.998421 0.043371 0.040277
C13   C     C_R   0.559454 0.109712 0.815913 0.542355
C14   C     C_R   0.717144 0.918419 0.033898 -0.088205
C15   C     C_R   0.820651 0.934920 0.052238 -0.111247
C16   C     C_R   0.885958 0.029404 0.081196 -0.097321
C17   C     C_R   0.847566 0.106937 0.092202 -0.113297
C18   C     C_R   0.745718 0.092426 0.072958 -0.086861
C19   C     C_R   0.040418 0.696719 0.450604 0.036049
C20   C     C_R   0.947926 0.718332 0.448296 -0.085360
C21   C     C_R   0.955068 0.804886 0.418442 -0.120258
C22   C     C_R   0.053761 0.869380 0.390383 -0.114433
C23   C     C_R   0.147729 0.851053 0.393713 -0.098721
C24   C     C_R   0.889933 0.450346 0.683905 0.542046
C25   C     C_R   0.141633 0.765470 0.423954 -0.085633
C26   C     C_R   0.329232 0.332482 0.059418 0.034433
C27   C     C_R   0.239371 0.353352 0.072156 -0.080919
C28   C     C_R   0.162010 0.288988 0.108372 -0.091162
C29   C     C_R   0.172645 0.202266 0.131473 -0.096413
C30   C     C_R   0.260534 0.179477 0.118272 -0.120923
C31   C     C_R   0.339323 0.244969 0.082604 -0.106044
C32   C     C_R   0.659553 0.982137 0.441716 0.034640
C33   C     C_R   0.746746 0.078334 0.417153 -0.097794
C34   C     C_R   0.811595 0.062995 0.381922 -0.113513
C35   C     C_1   0.058694 0.523034 0.361347 -0.020693
C36   C     C_R   0.789345 0.951663 0.370734 -0.095694
C37   C     C_R   0.702330 0.855589 0.394869 -0.099102
C38   C     C_R   0.637911 0.870543 0.430527 -0.085008
C39   C     C_R   0.994112 0.672563 0.052289 0.032628
C40   C     C_R   0.081033 0.789007 0.047727 -0.089626
C41   C     C_R   0.079350 0.872980 0.076678 -0.118959
C42   C     C_R   0.992150 0.840923 0.110799 -0.101347
C43   C     C_R   0.903182 0.725889 0.114489 -0.109781
C44   C     C_R   0.903650 0.642022 0.085201 -0.097439
C45   C     C_R   0.300225 0.340421 0.457217 0.036967
C46   C     C_1   0.466125 0.936990 0.137342 -0.010938
C47   C     C_R   0.270807 0.224402 0.464062 -0.088131
C48   C     C_R   0.171692 0.135250 0.444031 -0.117999
C49   C     C_R   0.103704 0.161083 0.415259 -0.110343
C50   C     C_R   0.133612 0.276365 0.407287 -0.107016
C51   C     C_R   0.230345 0.365932 0.428916 -0.078765
C52   C     C_1   0.471319 0.535159 0.362325 -0.020547
C53   C     C_1   0.060993 0.523685 0.138513 -0.016873
C54   C     C_1   0.461343 0.944256 0.360056 -0.017490
C55   C     C_1   0.484122 0.537304 0.140073 -0.006223
C56   C     C_1   0.515889 0.053255 0.859938 -0.006433
C57   C     C_R   0.111614 0.561123 0.183600 0.542219
C58   C     C_1   0.942274 0.464622 0.638909 -0.009537
C59   C     C_1   0.533915 0.470949 0.862660 -0.011135
C60   C     C_1   0.530074 0.065919 0.637157 -0.016281
C61   C     C_1   0.939040 0.462781 0.861472 -0.016595
C62   C     C_1   0.539367 0.481195 0.639472 -0.014559
C63   C     C_R   0.991583 0.395654 0.475401 -0.137175
C64   C     C_R   0.392981 0.985545 0.024329 -0.139744
C65   C     C_R   0.600308 0.599396 0.474811 -0.135613
C66   C     C_R   0.003913 0.399257 0.024322 -0.134617
C67   C     C_R   0.404381 0.017768 0.474875 -0.134455
C68   C     C_R   0.449322 0.889641 0.315943 0.540180
C69   C     C_R   0.609793 0.598914 0.024492 -0.139557
C70   C     C_R   0.390317 0.989263 0.975543 -0.139553
C71   C     C_R   0.983881 0.390939 0.524076 -0.137158
C72   C     C_R   0.607128 0.592589 0.975704 -0.139781
C73   C     C_R   0.413249 0.028031 0.523486 -0.139627
C74   C     C_R   0.996087 0.395353 0.975620 -0.134606
C75   C     C_R   0.609588 0.598450 0.523393 -0.133132
C76   C     C_R   0.016220 0.587849 0.525921 -0.003311
C77   C     C_R   0.573762 0.991707 0.970581 -0.001009
C78   C     C_R   0.413505 0.434201 0.529461 -0.002199
C79   C     C_R   0.440551 0.550231 0.184091 0.543202
C80   C     C_R   0.000083 0.580564 0.975127 0.003879
C81   C     C_R   0.582024 0.002209 0.520752 0.000508
C82   C     C_R   0.422745 0.411707 0.979928 0.000712
C83   C     C_R   0.577231 0.988872 0.020054 0.000696
C84   C     C_R   0.025368 0.593491 0.476585 -0.000710
C85   C     C_R   0.426201 0.417969 0.029402 -0.001004
C86   C     C_R   0.575383 0.996725 0.471292 -0.001214
C87   C     C_R   0.000049 0.580540 0.024881 0.003894
C88   C     C_R   0.404303 0.433838 0.480098 -0.000675
C89   C     C_R   0.012423 0.496097 0.451638 0.016441
C90   C     C_R   0.109865 0.560290 0.316077 0.538877
C91   C     C_R   0.484917 0.984496 0.046738 0.016326
C92   C     C_R   0.498650 0.518056 0.452934 0.015692
C93   C     C_R   0.005765 0.490826 0.049053 0.012128
C94   C     C_R   0.485046 0.002463 0.448868 0.017814
C95   C     C_R   0.519751 0.512388 0.051245 0.018934
C96   C     C_R   0.480287 0.992706 0.948763 0.018914
C97   C     C_R   0.996302 0.486115 0.549301 0.013798
C98   C     C_R   0.515125 0.499651 0.953269 0.016326
C99   C     C_R   0.500022 0.018536 0.546712 0.012677
C100  C     C_R   0.994302 0.485112 0.950924 0.012111
C101  C     C_R   0.450502 0.888528 0.183379 0.540489
C102  C     C_R   0.516855 0.516518 0.550643 0.015949
C103  C     C_1   0.973026 0.473732 0.598734 -0.057648
C104  C     C_1   0.489696 0.018685 0.899532 -0.051260
C105  C     C_1   0.531851 0.505635 0.599715 -0.060973
C106  C     C_1   0.969650 0.471765 0.901508 -0.066129
C107  C     C_1   0.512141 0.039439 0.596483 -0.064464
C108  C     C_1   0.523870 0.488413 0.903381 -0.056858
C109  C     C_1   0.476177 0.964497 0.096624 -0.056781
C110  C     C_1   0.030438 0.503348 0.401858 -0.065746
C111  C     C_1   0.510341 0.528937 0.100480 -0.051224
C112  C     C_R   0.549507 0.438064 0.816621 0.540559
C113  C     C_1   0.469077 0.977399 0.399672 -0.060868
C114  C     C_1   0.030399 0.502092 0.098471 -0.066179
C115  C     C_1   0.489018 0.526428 0.402992 -0.065800
C116  C     C_R   0.026846 0.686546 0.553658 0.033414
C117  C     C_R   0.136599 0.778460 0.564736 -0.089891
C118  C     C_R   0.147096 0.862135 0.597015 -0.112068
C119  C     C_R   0.048332 0.854818 0.618008 -0.101420
C120  C     C_R   0.938720 0.764281 0.606499 -0.095192
C121  C     C_R   0.927819 0.680500 0.574310 -0.086514
C122  C     C_R   0.670636 0.003048 0.940542 0.034497
C123  C     C_R   0.562442 0.112383 0.683277 0.539851
C124  C     C_R   0.760570 0.113750 0.927773 -0.080840
C125  C     C_R   0.837879 0.126592 0.891558 -0.091081
C126  C     C_R   0.827118 0.029109 0.868489 -0.096708
C127  C     C_R   0.739153 0.918461 0.881719 -0.121288
C128  C     C_R   0.660412 0.905320 0.917384 -0.106046
C129  C     C_R   0.315833 0.349622 0.559614 0.033968
C130  C     C_R   0.223696 0.368288 0.570736 -0.092131
C131  C     C_R   0.138556 0.296150 0.603353 -0.121532
C132  C     C_R   0.144190 0.204425 0.624489 -0.105507
C133  C     C_R   0.235215 0.184860 0.613214 -0.094717
C134  C     C_R   0.888393 0.449545 0.816396 0.541931
C135  C     C_R   0.320970 0.257234 0.580975 -0.088126
C136  C     C_R   0.006054 0.678540 0.947745 0.032614
C137  C     C_R   0.919102 0.707983 0.952290 -0.089621
C138  C     C_R   0.920756 0.793562 0.923321 -0.118972
C139  C     C_R   0.007960 0.848705 0.889202 -0.101474
C140  C     C_R   0.096970 0.822737 0.885534 -0.109900
C141  C     C_R   0.096530 0.738484 0.914839 -0.097484
C142  C     C_R   0.673952 0.991328 0.544948 0.039826
C143  C     C_R   0.790969 0.069591 0.534838 -0.088824
C144  C     C_R   0.877443 0.058772 0.557200 -0.113286
Cr1   Cr    Cr6+3 0.505050 0.756260 0.250000 1.022942
Cr2   Cr    Cr6+3 0.251210 0.494950 0.250000 1.015955
Cr3   Cr    Cr6+3 0.243740 0.748790 0.250000 1.021664
Cr4   Cr    Cr6+3 0.756260 0.505050 0.750000 1.021732
Cr5   Cr    Cr6+3 0.494950 0.251210 0.750000 1.020479
Cr6   Cr    Cr6+3 0.748790 0.243740 0.750000 1.020845
H1    H     H_    0.980706 0.320691 0.456346 0.113971
H2    H     H_    0.352365 0.043891 0.542965 0.104896
H3    H     H_    0.991099 0.321925 0.957214 0.118822
H4    H     H_    0.689768 0.660522 0.539652 0.114678
H5    H     H_    0.213740 0.782695 0.549788 0.112479
H6    H     H_    0.231811 0.930870 0.606742 0.100828
H7    H     H_    0.056795 0.918500 0.643616 0.092655
H8    H     H_    0.862279 0.757486 0.623255 0.104120
H9    H     H_    0.842778 0.608552 0.566792 0.105583
H10   H     H_    0.766675 0.190056 0.944077 0.112716
H11   H     H_    0.904035 0.212307 0.880517 0.103904
H12   H     H_    0.323453 0.983938 0.044823 0.103914
H13   H     H_    0.886583 0.039389 0.840188 0.097166
H14   H     H_    0.730368 0.843075 0.863611 0.107759
H15   H     H_    0.589279 0.819645 0.925883 0.104071
H16   H     H_    0.219738 0.440396 0.555173 0.116283
H17   H     H_    0.068646 0.311749 0.612632 0.115634
H18   H     H_    0.078469 0.149060 0.649853 0.103106
H19   H     H_    0.240659 0.115135 0.630143 0.104249
H20   H     H_    0.392831 0.243225 0.573431 0.105029
H21   H     H_    0.849631 0.663437 0.977749 0.111429
H22   H     H_    0.853907 0.816357 0.926947 0.104196
H23   H     H_    0.673160 0.663316 0.454275 0.104982
H24   H     H_    0.007018 0.911965 0.865712 0.101089
H25   H     H_    0.165640 0.866996 0.859666 0.113281
H26   H     H_    0.165220 0.717939 0.911200 0.110025
H27   H     H_    0.815044 0.138960 0.509678 0.103232
H28   H     H_    0.967341 0.118336 0.548661 0.124820
H29   H     H_    0.915079 0.965425 0.608734 0.105280
H30   H     H_    0.708798 0.824394 0.626508 0.103049
H31   H     H_    0.554948 0.839943 0.585784 0.108707
H32   H     H_    0.332807 0.177775 0.988336 0.104377
H33   H     H_    0.149245 0.024432 0.956240 0.116771
H34   H     H_    0.008843 0.330781 0.042700 0.118874
H35   H     H_    0.033508 0.076348 0.904984 0.111808
H36   H     H_    0.102807 0.282053 0.884846 0.097194
H37   H     H_    0.281038 0.436549 0.919550 0.107783
H38   H     H_    0.667025 0.844778 0.011609 0.104448
H39   H     H_    0.850593 0.875033 0.043667 0.116653
H40   H     H_    0.966441 0.042783 0.094917 0.111795
H41   H     H_    0.897254 0.179243 0.115101 0.096999
H42   H     H_    0.719047 0.155494 0.080431 0.107826
H43   H     H_    0.869123 0.665750 0.468444 0.104831
H44   H     H_    0.883351 0.820542 0.416526 0.109258
H45   H     H_    0.334343 0.021070 0.457605 0.114940
H46   H     H_    0.058080 0.934599 0.366488 0.103996
H47   H     H_    0.224524 0.902146 0.372365 0.126432
H48   H     H_    0.213807 0.749858 0.425345 0.110537
H49   H     H_    0.233372 0.423568 0.055832 0.112738
H50   H     H_    0.095917 0.308634 0.119392 0.103879
H51   H     H_    0.113140 0.153163 0.159774 0.097367
H52   H     H_    0.269226 0.112881 0.136407 0.108238
H53   H     H_    0.410404 0.230354 0.074129 0.104130
H54   H     H_    0.761482 0.164583 0.424194 0.105014
H55   H     H_    0.877550 0.137223 0.362653 0.098866
H56   H     H_    0.680560 0.672424 0.041361 0.111956
H57   H     H_    0.838788 0.939724 0.343065 0.099165
H58   H     H_    0.683598 0.769495 0.385196 0.108114
H59   H     H_    0.567631 0.795334 0.447755 0.112667
H60   H     H_    0.150489 0.813939 0.022261 0.111439
H61   H     H_    0.146170 0.962659 0.073031 0.104142
H62   H     H_    0.993067 0.905170 0.134274 0.101242
H63   H     H_    0.834516 0.701478 0.140360 0.113478
H64   H     H_    0.834978 0.552752 0.088850 0.110091
H65   H     H_    0.324385 0.202975 0.485177 0.104403
H66   H     H_    0.148267 0.046365 0.450882 0.124658
H67   H     H_    0.319602 0.992094 0.958697 0.111950
H68   H     H_    0.028186 0.091693 0.399137 0.110198
H69   H     H_    0.081035 0.296315 0.384859 0.109176
H70   H     H_    0.250824 0.454746 0.423526 0.114011
H71   H     H_    0.966379 0.312389 0.542153 0.111882
H72   H     H_    0.676712 0.660511 0.955230 0.103895
O1    O     O_R   0.530190 0.870330 0.301660 -0.496655
O2    O     O_R   0.870330 0.530190 0.698340 -0.504703
O3    O     O_R   0.469810 0.340140 0.801660 -0.502864
O4    O     O_R   0.659860 0.129670 0.698340 -0.503045
O5    O     O_R   0.494300 0.651190 0.297490 -0.497077
O6    O     O_R   0.156890 0.505700 0.202510 -0.499981
O7    O     O_R   0.348810 0.843110 0.297490 -0.504971
O8    O     O_R   0.494300 0.651190 0.202510 -0.495467
O9    O     O_R   0.156890 0.505700 0.297490 -0.500768
O10   O     O_R   0.348810 0.843110 0.202510 -0.492852
O11   O     O_R   0.651190 0.494300 0.797490 -0.493562
O12   O     O_R   0.340140 0.469810 0.198340 -0.499147
O13   O     O_R   0.505700 0.156890 0.702510 -0.499423
O14   O     O_R   0.843110 0.348810 0.797490 -0.500293
O15   O     O_R   0.651190 0.494300 0.702510 -0.500390
O16   O     O_R   0.505700 0.156890 0.797490 -0.495455
O17   O     O_R   0.843110 0.348810 0.702510 -0.495423
O18   O     O_3   0.333333 0.666667 0.250000 -0.242860
O19   O     O_3   0.666667 0.333333 0.750000 -0.243132
O20   O     O_R   0.129670 0.659860 0.301660 -0.501950
O21   O     O_R   0.530190 0.870330 0.198340 -0.503663
O22   O     O_R   0.340140 0.469810 0.301660 -0.505565
O23   O     O_R   0.129670 0.659860 0.198340 -0.498368
O24   O     O_R   0.870330 0.530190 0.801660 -0.499012
O25   O     O_R   0.469810 0.340140 0.698340 -0.503572
O26   O     O_R   0.659860 0.129670 0.801660 -0.499997

loop_
_geom_bond_atom_site_label_1
_geom_bond_atom_site_label_2
_ccdc_geom_bond_type
C65   C92   A    
Cr1   O8    S    
Cr2   O12   S    
C127  H14   S    
C6    C82   S    
C78   C102  A    
Cr5   O3    S    
C41   C42   A    
C87   C93   A    
C19   C20   A    
Cr1   O18   S    
C39   C87   S    
C2    O25   A    
C76   C84   A    
C48   H66   S    
C5    C142  A    
C7    C8    A    
C123  O4    A    
C72   C98   A    
Cr3   O18   S    
C17   H41   S    
Cr3   O23   S    
Cr6   O26   S    
C71   C97   A    
C18   H42   S    
C69   H56   S    
Cr5   O13   S    
C44   H64   S    
C28   C29   A    
C78   C129  S    
C13   O26   A    
C80   C87   A    
C9    H35   S    
C55   C79   S    
C26   C85   S    
C30   C31   A    
C54   C68   S    
C45   C51   A    
C101  O21   A    
C143  C144  A    
C66   C74   A    
C54   C113  T    
C40   H60   S    
C50   H69   S    
C98   C108  S    
C116  C117  A    
Cr1   O21   S    
C102  C105  S    
Cr4   O11   S    
C135  H20   S    
C49   C50   A    
C3    H29   S    
C118  C119  A    
C133  H19   S    
C25   H48   S    
C86   C94   A    
C59   C112  S    
C129  C135  A    
C57   O6    A    
Cr6   O19   S    
C88   C92   A    
C140  H25   S    
C132  C133  A    
C47   H65   S    
C117  H5    S    
C67   C94   A    
C118  H6    S    
C67   C73   A    
C64   C70   A    
C21   H44   S    
C9    C10   A    
C31   H53   S    
C81   C86   A    
C13   C56   S    
C65   H23   S    
C1    O5    A    
C45   C47   A    
C15   H39   S    
C120  C121  A    
C131  H17   S    
C26   C31   A    
Cr5   O25   S    
C21   C22   A    
C80   C100  A    
C120  H8    S    
C82   C98   A    
C22   H46   S    
C4    H30   S    
C67   H45   S    
C5    H31   S    
C1    C52   S    
C94   C113  S    
C61   C134  S    
Cr5   O16   S    
C6    C7    A    
Cr2   O9    S    
C24   O2    A    
C34   H55   S    
C30   H52   S    
C46   C101  S    
C70   H67   S    
C29   H51   S    
C116  C121  A    
C138  H22   S    
C71   H71   S    
C24   C58   S    
Cr3   O7    S    
C45   C88   S    
C27   H49   S    
C140  C141  A    
C56   C104  T    
C64   H12   S    
C112  O11   A    
C10   C11   A    
C6    C11   A    
C62   C105  T    
C141  H26   S    
C53   C57   S    
C8    C9    A    
C74   C100  A    
C81   C99   A    
Cr3   O20   S    
C50   C51   A    
C76   C97   A    
C89   C110  S    
C122  C128  A    
C15   C16   A    
C53   C114  T    
Cr4   O15   S    
C12   C83   S    
C36   H57   S    
C37   C38   A    
C60   C123  S    
C70   C96   A    
C43   C44   A    
C79   O8    A    
C29   C30   A    
C1    O22   A    
C75   C102  A    
Cr1   O5    S    
Cr3   O10   S    
C130  H16   S    
C47   C48   A    
C119  H7    S    
C32   C86   S    
C63   C89   A    
Cr4   O24   S    
C17   C18   A    
C26   C27   A    
C28   H50   S    
C119  C120  A    
C61   C106  T    
C35   C110  T    
C63   H1    S    
C3    C4    A    
C97   C103  S    
C60   C107  T    
C16   H40   S    
C66   C93   A    
C123  O13   A    
C8    H33   S    
C57   O23   A    
C40   C41   A    
C63   C71   A    
C124  H10   S    
C32   C38   A    
C90   O20   A    
C73   H2    S    
C121  H9    S    
C125  C126  A    
C37   H58   S    
C11   H37   S    
C90   O9    A    
C68   O1    A    
C144  H28   S    
C84   C89   A    
C39   C44   A    
Cr2   O22   S    
C127  C128  A    
C43   H63   S    
C20   H43   S    
C39   C40   A    
C69   C72   A    
C42   H62   S    
C68   O7    A    
C76   C116  S    
C133  C135  A    
C129  C130  A    
C52   C115  T    
C78   C88   A    
C73   C99   A    
C66   H34   S    
C48   C49   A    
C134  O14   A    
C112  O3    A    
C77   C96   A    
C7    H32   S    
C55   C111  T    
C77   C122  S    
C22   C23   A    
C125  H11   S    
C3    C144  A    
C132  H18   S    
C79   O12   A    
Cr2   O18   S    
C4    C5    A    
C69   C95   A    
C65   C75   A    
C139  C140  A    
C2    O15   A    
C13   O16   A    
Cr1   O1    S    
C51   H70   S    
C82   C85   A    
C99   C107  S    
C137  C138  A    
C23   H47   S    
C33   H54   S    
C100  C106  S    
C59   C108  T    
C80   C136  S    
C49   H68   S    
Cr6   O4    S    
C32   C33   A    
C91   C109  S    
C96   C104  S    
C130  C131  A    
C12   C14   A    
C81   C142  S    
C117  C118  A    
C85   C95   A    
C75   H4    S    
Cr4   O19   S    
C128  H15   S    
Cr2   O6    S    
C36   C37   A    
C126  C127  A    
Cr6   O14   S    
C126  H13   S    
C83   C91   A    
C10   H36   S    
C136  C141  A    
C33   C34   A    
C101  O10   A    
C34   C36   A    
C93   C114  S    
C143  H27   S    
C38   H59   S    
Cr4   O2    S    
C131  C132  A    
C19   C25   A    
C92   C115  S    
C24   O17   A    
C137  H21   S    
C138  C139  A    
C72   H72   S    
C41   H61   S    
C35   C90   S    
C2    C62   S    
C23   C25   A    
C20   C21   A    
C74   H3    S    
Cr5   O19   S    
Cr6   O17   S    
C42   C43   A    
C46   C109  T    
C12   C18   A    
C27   C28   A    
C142  C143  A    
C77   C83   A    
C14   C15   A    
C136  C137  A    
C139  H24   S    
C95   C111  S    
C58   C103  T    
C64   C91   A    
C14   H38   S    
C122  C124  A    
C134  O24   A    
C19   C84   S    
C16   C17   A    
C124  C125  A    
