data_mof_unit_6251.cif
_audit_creation_date              2012-12-10T18:14:36-0500
_audit_creation_method            fapswitch 2.2
_symmetry_space_group_name_H-M    P1
_symmetry_Int_Tables_number       1
_space_group_crystal_system       triclinic
_cell_length_a                    10.981463
_cell_length_b                    9.755593
_cell_length_c                    27.566269
_cell_angle_alpha                 88.209966
_cell_angle_beta                  91.216338
_cell_angle_gamma                 88.590568
_cell_volume                      2950.14401521

loop_
_atom_site_label
_atom_site_type_symbol
_atom_type_description
_atom_site_fract_x
_atom_site_fract_y
_atom_site_fract_z
_atom_type_partial_charge
C1    C     C_R   0.260088 0.501233 0.499866 0.801441
C2    C     C_R   0.490315 0.587035 0.270276 0.344357
C3    C     C_R   0.583927 0.498607 0.255501 0.276468
C4    C     C_R   0.602750 0.465120 0.103948 -0.125429
C5    C     C_R   0.529768 0.374901 0.131085 -0.122941
C6    C     C_R   0.454813 0.282402 0.106654 0.324013
C7    C     C_R   0.676438 0.558841 0.128155 0.003219
C8    C     C_R   0.525886 0.504748 0.354550 -0.109794
C9    C     C_R   0.507950 0.493840 0.645391 -0.145282
C10   C     C_R   0.540186 0.357289 0.977073 0.003570
C11   C     C_R   0.640968 0.577593 0.974989 0.072371
C12   C     C_R   0.501993 0.501909 0.407556 0.793165
C13   C     C_R   0.583011 0.471521 0.950397 -0.017327
C14   C     C_R   0.511770 0.237631 0.952067 0.388263
C15   C     C_R   0.493326 0.244705 0.901045 0.352593
C16   C     C_R   0.520031 0.366692 0.874594 -0.119198
C17   C     C_R   0.567470 0.479698 0.899223 -0.112847
C18   C     C_R   0.597799 0.601325 0.872896 -0.057687
C19   C     C_R   0.570833 0.608864 0.822395 0.563757
C20   C     C_R   0.503511 0.378102 0.823745 0.666004
C21   C     C_R   0.409980 0.537525 0.722406 -0.137482
C22   C     C_R   0.405420 0.538356 0.670915 0.340711
C23   C     C_R   0.738790 0.498780 0.500139 0.803773
C24   C     C_R   0.618367 0.456812 0.670407 -0.176076
C25   C     C_R   0.623927 0.461051 0.721577 0.405263
C26   C     C_R   0.520648 0.501535 0.747030 0.192364
C27   C     C_R   0.531788 0.365022 0.028326 0.013031
C28   C     C_R   0.601746 0.462686 0.052633 -0.025422
C29   C     C_R   0.668185 0.560691 0.025603 0.080375
C30   C     C_R   0.448542 0.286065 0.055251 0.363831
C31   C     C_R   0.754077 0.642417 0.101450 -0.192971
C32   C     C_R   0.664929 0.699530 0.948904 -0.112704
C33   C     C_R   0.649425 0.711378 0.898410 -0.026457
C34   C     C_R   0.501439 0.498150 0.592038 0.925291
C35   C     C_R   0.755533 0.639492 0.050807 -0.036852
C36   C     C_3   0.065926 0.617048 0.530148 0.180436
C37   C     C_3   0.072365 0.362032 0.518295 0.131474
C38   C     C_3   0.924830 0.617891 0.528652 -0.438891
C39   C     C_3   0.933068 0.367972 0.524347 -0.477409
C40   C     C_3   0.068468 0.522894 0.443856 0.717125
C41   C     C_3   0.120279 0.502355 0.497465 -0.082873
C42   C     C_3   0.876667 0.498435 0.498281 -0.127498
C43   C     C_3   0.922474 0.512326 0.443748 -0.162765
C44   C     C_3   0.618220 0.074799 0.523406 0.648946
C45   C     C_3   0.624361 0.910661 0.514662 0.699916
C46   C     C_3   0.406001 0.080930 0.534369 0.188021
C47   C     C_3   0.422402 0.916722 0.540434 0.185375
C48   C     C_3   0.474855 0.087353 0.449752 -0.135884
C49   C     C_3   0.456259 0.921843 0.451995 -0.120936
C50   C     C_R   0.530643 0.384099 0.182153 0.695325
C51   C     C_R   0.672877 0.564820 0.178910 0.643647
C52   C     C_R   0.651580 0.417474 0.289492 0.448445
C53   C     C_R   0.624057 0.424436 0.338808 -0.361074
C54   C     C_R   0.457433 0.586248 0.319751 -0.157079
Cu1   Cu    Cu3+1 0.499860 0.642410 0.500020 1.092369
Cu2   Cu    Cu3+1 0.499860 0.357590 0.500020 1.004875
H1    H     H_    0.817909 0.706539 0.120201 0.185618
H2    H     H_    0.696577 0.787679 0.967860 0.173102
H3    H     H_    0.096414 0.591933 0.568242 0.164600
H4    H     H_    0.114970 0.341983 0.554934 0.161116
H5    H     H_    0.891370 0.608870 0.566469 0.167374
H6    H     H_    0.914009 0.368347 0.563704 0.219060
H7    H     H_    0.887254 0.717135 0.514414 0.234071
H8    H     H_    0.892910 0.273673 0.511298 0.254492
H9    H     H_    0.416240 0.125271 0.571042 0.172451
H10   H     H_    0.467690 0.896306 0.576729 0.157143
H11   H     H_    0.677670 0.363887 0.365094 0.165542
N1    N     N_R   0.599333 0.479717 0.204527 -0.442377
N2    N     N_R   0.528819 0.497259 0.799230 -0.451645
N3    N     N_3   0.500250 0.143650 0.501060 -0.249867
N4    N     N_3   0.500250 0.856350 0.501060 -0.209897
O1    O     O_R   0.317570 0.620260 0.500030 -0.451276
O2    O     O_R   0.317570 0.379740 0.500030 -0.568897
O3    O     O_R   0.499900 0.620250 0.430280 -0.555307
O4    O     O_R   0.499900 0.379750 0.430280 -0.652787
O5    O     O_R   0.682190 0.620260 0.500010 -0.512001
O6    O     O_R   0.682190 0.379740 0.500010 -0.566114
O7    O     O_R   0.499860 0.620280 0.569750 -0.536836
O8    O     O_R   0.499860 0.379720 0.569750 -0.522599
O9    O     O_2   0.461375 0.300909 0.209476 -0.419392
O10   O     O_2   0.462879 0.271384 0.798537 -0.434664
O11   O     O_2   0.740838 0.656124 0.202486 -0.490046
O12   O     O_2   0.583434 0.726597 0.796324 -0.542779
C55   C     C_2   0.340239 0.649592 0.332064 0.470104
H12   H     H_    0.325571 0.759700 0.328495 0.092351
O13   O     O_2   0.255086 0.576936 0.341676 -0.487373
O14   O     O_3   0.741878 0.330275 0.273367 -0.656700
H13   H     H_    0.776019 0.274529 0.301345 0.379734
C56   C     C_2   0.730102 0.422636 0.643583 0.323176
H14   H     H_    0.817208 0.462415 0.655013 0.086959
O15   O     O_2   0.726685 0.345711 0.609663 -0.514061
C57   C     C_2   0.698600 0.835668 0.873991 0.501252
H15   H     H_    0.741457 0.829527 0.839072 0.137842
O16   O     O_2   0.696424 0.946069 0.893683 -0.537040
O17   O     O_3   0.727564 0.423371 0.748724 -0.691455
H16   H     H_    0.781888 0.364621 0.729616 0.334793
C58   C     C_2   0.860951 0.704295 0.027272 0.365857
H17   H     H_    0.904460 0.790308 0.043966 0.094148
O18   O     O_2   0.904581 0.657634 0.990703 -0.503535
O19   O     O_3   0.109389 0.748320 0.518785 -0.636058
H18   H     H_    0.061059 0.791824 0.491503 0.394427
O20   O     O_3   0.106383 0.251009 0.489628 -0.654959
H19   H     H_    0.043952 0.234678 0.464213 0.376634
O21   O     O_3   0.427185 0.663439 0.234357 -0.689232
H20   H     H_    0.378872 0.737737 0.248928 0.335879
O22   O     O_3   0.102628 0.651275 0.425275 -0.663168
H21   H     H_    0.082156 0.655191 0.390008 0.399286
O23   O     O_3   0.120974 0.421785 0.414479 -0.653760
H22   H     H_    0.209565 0.437250 0.412774 0.352153
C59   C     C_2   0.857264 0.634828 0.417403 0.487662
H23   H     H_    0.781747 0.618188 0.392358 0.109921
O24   O     O_2   0.884470 0.752990 0.424769 -0.471786
C60   C     C_2   0.884343 0.388547 0.415129 0.285939
H24   H     H_    0.833720 0.306907 0.431614 0.093314
O25   O     O_2   0.909334 0.380138 0.372299 -0.457991
O26   O     O_3   0.621429 0.096190 0.574131 -0.706567
H25   H     H_    0.705611 0.079351 0.587235 0.374701
O27   O     O_3   0.666644 0.839051 0.557521 -0.732890
H26   H     H_    0.751937 0.864531 0.564640 0.298698
O28   O     O_3   0.726456 0.130506 0.506829 -0.750751
H27   H     H_    0.714767 0.172955 0.475017 0.368137
O29   O     O_3   0.707702 0.882568 0.478249 -0.606211
H28   H     H_    0.790171 0.909887 0.488860 0.351087
C61   C     C_2   0.359555 0.154680 0.425303 0.357477
H29   H     H_    0.302142 0.225759 0.442764 0.241616
O30   O     O_2   0.328705 0.126793 0.383898 -0.546366
C62   C     C_2   0.321264 0.885381 0.445199 0.534472
H30   H     H_    0.249545 0.940968 0.462972 0.184995
O31   O     O_2   0.289953 0.794479 0.418837 -0.534172
C63   C     C_2   0.572310 0.128379 0.411466 0.338107
H31   H     H_    0.546972 0.196919 0.381169 0.148696
O32   O     O_2   0.672373 0.072292 0.408365 -0.503625
C64   C     C_2   0.514329 0.867235 0.405161 0.620014
H32   H     H_    0.465605 0.886895 0.370890 0.032310
O33   O     O_2   0.616097 0.815382 0.402883 -0.446956
O34   O     O_3   0.287293 0.115551 0.519456 -0.688651
H33   H     H_    0.234286 0.101224 0.547872 0.350667
O35   O     O_3   0.310840 0.851906 0.543890 -0.633527
H34   H     H_    0.276924 0.872517 0.576079 0.330053
O36   O     O_3   0.387066 0.190492 0.133262 -0.643481
H35   H     H_    0.372893 0.108702 0.113652 0.345284
O37   O     O_3   0.303285 0.583225 0.644273 -0.723831
H36   H     H_    0.262188 0.657387 0.661946 0.356574
C65   C     C_2   0.300333 0.567614 0.751378 0.442090
H37   H     H_    0.310428 0.604086 0.787993 0.085651
O38   O     O_2   0.197914 0.546374 0.735718 -0.507373
O39   O     O_3   0.448003 0.134364 0.876793 -0.633827
H38   H     H_    0.395883 0.081125 0.899014 0.340195
O40   O     O_3   0.513890 0.113367 0.977763 -0.679565
H39   H     H_    0.531186 0.037933 0.955535 0.353825
O41   O     O_3   0.353270 0.226254 0.030771 -0.679360
H40   H     H_    0.282947 0.217992 0.052502 0.343166

loop_
_geom_bond_atom_site_label_1
_geom_bond_atom_site_label_2
_ccdc_geom_bond_type
C45   O27   S    
C10   C27   A    
O14   H13   S    
C12   O3    A    
C45   N4    S    
O17   H16   S    
C32   H2    S    
C23   O5    A    
Cu1   Cu2   S    
C36   H3    S    
C24   C56   S    
C54   C55   S    
C58   H17   S    
O26   H25   S    
C39   H8    S    
C23   C42   S    
C44   O26   S    
C61   O30   D    
C28   C29   A    
C3    N1    S    
C55   O13   D    
C38   C42   S    
C5    C6    A    
C38   H7    S    
C9    C22   A    
O22   H21   S    
C44   O28   S    
C15   C16   A    
C5    C50   A    
O23   H22   S    
C14   O40   S    
C18   C19   A    
C59   H23   S    
O19   H18   S    
C4    C28   A    
O27   H26   S    
Cu1   O3    S    
C55   H12   S    
C40   C43   S    
O39   H38   S    
C16   C17   A    
O41   H40   S    
C44   N3    S    
C43   C59   S    
C56   O15   D    
C34   O7    A    
C47   H10   S    
Cu1   O1    S    
C8    C12   S    
C40   O23   S    
C38   H5    S    
Cu2   O4    S    
C20   O10   S    
C27   C30   A    
C37   C41   S    
C48   C63   S    
C36   C41   S    
C4    C7    A    
C19   O12   S    
O21   H20   S    
C58   O18   D    
C21   C26   A    
C39   C42   S    
C49   C62   S    
C1    O1    A    
C7    C31   A    
C24   C25   A    
C46   H9    S    
C65   O38   D    
C10   C14   A    
C33   C57   S    
C8    C54   A    
Cu1   O7    S    
C65   H37   S    
C25   C26   A    
C23   O6    A    
Cu2   O6    S    
C63   O32   D    
C62   O31   D    
C34   O8    A    
C2    O21   S    
C16   C20   A    
C22   O37   S    
C57   O16   D    
C17   C18   A    
C36   O19   S    
C52   C53   A    
O36   H35   S    
Cu2   O8    S    
C51   O11   S    
C47   N4    S    
Cu1   O5    S    
C1    C41   S    
C48   C49   S    
C6    C30   A    
C11   C32   A    
C25   O17   S    
Cu2   N3    S    
C2    C54   A    
C64   H32   S    
C31   C35   A    
C20   N2    A    
C19   N2    A    
C42   C43   S    
C62   H30   S    
O28   H27   S    
C40   O22   S    
C60   H24   S    
C39   H6    S    
C49   C64   S    
C46   C47   S    
C40   C41   S    
Cu2   O2    S    
O37   H36   S    
C52   O14   S    
C44   C45   S    
C21   C65   S    
C48   N3    S    
C4    C5    A    
C10   C13   A    
C50   O9    S    
C8    C53   A    
C48   C61   S    
C3    C52   A    
C9    C24   A    
C45   O29   S    
C29   C35   A    
C13   C17   A    
C1    O2    A    
C32   C33   A    
C31   H1    S    
C36   C38   S    
C2    C3    A    
O29   H28   S    
C7    C51   A    
C37   C39   S    
C35   C58   S    
O40   H39   S    
C43   C60   S    
C15   O39   S    
C11   C13   A    
C30   O41   S    
C37   O20   S    
C47   O35   S    
C57   H15   S    
C9    C34   S    
C63   H31   S    
C51   N1    A    
C6    O36   S    
O20   H19   S    
C53   H11   S    
C18   C33   A    
C59   O24   D    
C46   N3    S    
C37   H4    S    
O35   H34   S    
C46   O34   S    
C11   C29   A    
C49   N4    S    
C12   O4    A    
C27   C28   A    
C64   O33   D    
C26   N2    S    
C14   C15   A    
O34   H33   S    
C56   H14   S    
C21   C22   A    
C50   N1    A    
Cu1   N4    S    
C61   H29   S    
C60   O25   D    
