data_mof_unit_12623.cif
_audit_creation_date              2012-12-11T15:47:03-0500
_audit_creation_method            fapswitch 2.2
_symmetry_space_group_name_H-M    P1
_symmetry_Int_Tables_number       1
_space_group_crystal_system       triclinic
_cell_length_a                    11.553395
_cell_length_b                    11.537045
_cell_length_c                    19.555364
_cell_angle_alpha                 90.544277
_cell_angle_beta                  90.049175
_cell_angle_gamma                 59.941753
_cell_volume                      2255.90879742

loop_
_atom_site_label
_atom_site_type_symbol
_atom_type_description
_atom_site_fract_x
_atom_site_fract_y
_atom_site_fract_z
_atom_type_partial_charge
C1    C     C_R   0.640395 0.117405 0.599262 0.545337
C2    C     C_1   0.652810 0.149813 0.668653 0.004141
C3    C     C_R   0.656434 0.686830 0.188201 0.024945
C4    C     C_R   0.612383 0.746144 0.598662 0.544969
C5    C     C_R   0.531936 0.739117 0.220465 0.033726
C6    C     C_R   0.525542 0.744655 0.290246 0.050625
C7    C     C_R   0.758166 0.678555 0.298090 -0.163015
C8    C     C_R   0.766713 0.670520 0.226890 -0.157205
C9    C     C_3   0.423023 0.703793 0.216790 -0.262763
C10   C     C_3   0.422481 0.703368 0.294022 -0.271898
C11   C     C_R   0.638682 0.706209 0.330308 0.021618
C12   C     C_1   0.641154 0.704056 0.668019 0.004502
C13   C     C_R   0.117228 0.210682 0.197531 0.052620
C14   C     C_R   0.108790 0.314476 0.237972 0.003119
C15   C     C_R   0.136216 0.296927 0.306462 -0.002203
C16   C     C_R   0.241004 0.145349 0.598194 0.545021
C17   C     C_R   0.153596 0.080086 0.300659 -0.157558
C18   C     C_R   0.130223 0.096272 0.230149 -0.146548
C19   C     C_3   0.172091 0.399239 0.229278 -0.059643
C20   C     C_3   0.204919 0.378428 0.304952 -0.257680
C21   C     C_R   0.169569 0.175373 0.338026 0.028141
C22   C     C_R   0.668682 0.184418 0.192450 0.050905
C23   C     C_1   0.126761 0.198609 0.859299 0.005311
C24   C     C_R   0.736643 0.055071 0.219438 0.049900
C25   C     C_R   0.732884 0.035757 0.288335 0.051220
C26   C     C_R   0.577731 0.270590 0.305726 -0.163397
C27   C     C_R   0.582438 0.291237 0.235698 -0.120979
C28   C     C_R   0.645016 0.112321 0.402585 0.545205
C29   C     C_3   0.880367 0.946214 0.214530 -0.271313
C30   C     C_3   0.876018 0.928063 0.290769 -0.277280
C31   C     C_R   0.660970 0.143072 0.333073 0.017710
C32   C     C_R   0.081841 0.231062 0.928607 0.551025
C33   C     C_R   0.684003 0.604264 0.929483 0.545610
C34   C     C_1   0.171525 0.170344 0.727714 -0.030201
C35   C     C_R   0.708483 0.206597 0.930137 0.548718
C36   C     C_R   0.078908 0.238054 0.126531 0.559642
C37   C     C_R   0.681510 0.615164 0.124248 0.546456
C38   C     C_R   0.708174 0.211153 0.126828 0.542786
C39   C     C_R   0.615862 0.740596 0.401738 0.544227
C40   C     C_R   0.242040 0.141974 0.402119 0.552811
C41   C     C_1   0.670478 0.646309 0.860119 0.006125
C42   C     C_1   0.654724 0.683751 0.728441 -0.030595
C43   C     C_1   0.663479 0.666596 0.799694 -0.029961
C44   C     C_2   0.292087 0.338541 0.182247 0.579897
C45   C     C_1   0.150198 0.182179 0.798941 -0.029811
C46   C     C_1   0.195299 0.161055 0.667388 0.004411
C47   C     C_1   0.678778 0.191075 0.860790 0.006212
C48   C     C_1   0.658460 0.167274 0.729051 -0.030305
C49   C     C_1   0.665763 0.180784 0.800357 -0.029522
Cr1   Cr    Cr6+3 0.404720 0.198220 0.499960 1.024980
Cr2   Cr    Cr6+3 0.698290 0.897110 0.500380 1.028411
Cr3   Cr    Cr6+3 0.396970 0.904720 0.499610 1.026459
Cr4   Cr    Cr6+3 0.926290 0.152010 0.028150 1.030116
Cr5   Cr    Cr6+3 0.921440 0.451830 0.027490 1.051288
Cr6   Cr    Cr6+3 0.626370 0.446880 0.028730 1.034879
H1    H     H_    0.845469 0.657785 0.327807 0.117649
H2    H     H_    0.863102 0.636810 0.203207 0.129411
H3    H     H_    0.452910 0.604016 0.195049 0.171535
H4    H     H_    0.329332 0.786337 0.194976 0.137837
H5    H     H_    0.327258 0.780658 0.317071 0.142722
H6    H     H_    0.462757 0.601568 0.315705 0.127057
H7    H     H_    0.168242 0.990054 0.324704 0.112914
H8    H     H_    0.127219 0.017810 0.200996 0.116125
H9    H     H_    0.098116 0.504838 0.217070 0.105663
H10   H     H_    0.385671 0.366924 0.102758 0.343059
H11   H     H_    0.313601 0.318312 0.315952 0.180673
H12   H     H_    0.150074 0.472349 0.335628 0.108019
H13   H     H_    0.512318 0.354326 0.338509 0.112433
H14   H     H_    0.525123 0.391431 0.216356 0.134318
H15   H     H_    0.949653 0.982448 0.200789 0.154282
H16   H     H_    0.892986 0.858693 0.184100 0.143433
H17   H     H_    0.888913 0.829408 0.304456 0.142761
H18   H     H_    0.938919 0.958420 0.320439 0.133265
O1    O     O_R   0.267750 0.231960 0.575440 -0.505670
O2    O     O_R   0.596230 0.579400 0.952760 -0.501880
O3    O     O_R   0.639160 0.321170 0.958690 -0.492794
O4    O     O_R   0.527290 0.186640 0.570530 -0.494972
O5    O     O_R   0.821370 0.124220 0.104400 -0.524837
O6    O     O_R   0.037020 0.167050 0.097880 -0.515488
O7    O     O_R   0.056310 0.349620 0.102920 -0.496934
O8    O     O_R   0.797790 0.564880 0.097980 -0.509590
O9    O     O_R   0.596000 0.584270 0.104310 -0.522902
O10   O     O_R   0.638950 0.325690 0.099180 -0.512926
O11   O     O_3   0.824700 0.350240 0.028120 -0.261223
O12   O     O_R   0.685950 0.784660 0.430010 -0.503613
O13   O     O_R   0.728110 0.003450 0.576380 -0.505520
O14   O     O_R   0.682980 0.789190 0.570500 -0.494606
O15   O     O_R   0.499300 0.771880 0.575540 -0.505365
O16   O     O_R   0.285350 0.030870 0.569740 -0.494906
O17   O     O_R   0.270960 0.227070 0.423890 -0.522441
O18   O     O_R   0.530270 0.182120 0.430040 -0.507245
O19   O     O_R   0.731320 0.998570 0.424830 -0.515852
O20   O     O_2   0.376915 0.219909 0.186270 -0.524893
O21   O     O_R   0.303601 0.418724 0.132748 -0.706816
O22   O     O_R   0.502510 0.767000 0.423980 -0.518695
O23   O     O_R   0.288320 0.026340 0.429250 -0.504751
O24   O     O_3   0.499990 0.000020 0.499980 -0.252770
O25   O     O_R   0.821590 0.119350 0.952850 -0.502661
O26   O     O_R   0.037230 0.162540 0.957390 -0.493494
O27   O     O_R   0.056530 0.344750 0.951370 -0.496922
O28   O     O_R   0.798000 0.560370 0.957490 -0.494582

loop_
_geom_bond_atom_site_label_1
_geom_bond_atom_site_label_2
_ccdc_geom_bond_type
C25   C31   A    
Cr2   O24   S    
C23   C45   T    
C38   O10   A    
C1    O4    A    
C20   H12   S    
C19   C20   S    
C35   C47   S    
Cr2   O12   S    
Cr5   O11   S    
C7    C8    A    
C47   C49   T    
C4    O14   A    
Cr4   O26   S    
C7    C11   A    
C26   C27   A    
C13   C18   A    
Cr4   O11   S    
C16   O1    A    
C20   H11   S    
Cr4   O6    S    
C1    C2    S    
Cr1   O1    S    
C5    C6    A    
C8    H2    S    
C18   H8    S    
C22   C38   S    
Cr3   O24   S    
C25   C30   S    
Cr3   O22   S    
C9    H3    S    
C24   C29   S    
C12   C42   T    
C44   O20   D    
Cr5   O28   S    
C33   O2    A    
C34   C46   T    
C4    C12   S    
C35   O25   A    
C9    C10   S    
C27   H14   S    
Cr6   O2    S    
C16   O16   A    
C13   C14   A    
C41   C43   T    
C37   O8    A    
Cr3   O16   S    
C7    H1    S    
C40   O23   A    
Cr2   O13   S    
Cr1   O17   S    
Cr5   O7    S    
C15   C20   S    
C35   O3    A    
C17   H7    S    
Cr3   O15   S    
C24   C25   A    
C13   C36   S    
C3    C8    A    
C36   O7    A    
C16   C46   S    
C6    C11   A    
C30   H18   S    
C38   O5    A    
C2    C48   T    
C17   C21   A    
C32   O27   A    
C9    H4    S    
C10   H5    S    
C5    C9    S    
C29   C30   S    
Cr2   O19   S    
C19   H9    S    
C17   C18   A    
C28   O19   A    
C34   C45   S    
Cr6   O9    S    
C11   C39   S    
C39   O22   A    
Cr6   O3    S    
C48   C49   S    
C22   C27   A    
C33   O28   A    
C37   O9    A    
C10   H6    S    
C42   C43   S    
C39   O12   A    
Cr2   O14   S    
Cr1   O4    S    
C19   C44   S    
C29   H15   S    
C1    O13   A    
H10   O21   S    
Cr1   O24   S    
C26   C31   A    
C14   C19   S    
C28   C31   S    
C3    C5    A    
C36   O6    A    
C6    C10   S    
C30   H17   S    
C4    O15   A    
Cr4   O25   S    
C32   O26   A    
C33   C41   S    
C23   C32   S    
Cr4   O5    S    
C26   H13   S    
C21   C40   S    
Cr5   O27   S    
Cr3   O23   S    
C28   O18   A    
C22   C24   A    
C44   O21   S    
Cr1   O18   S    
C15   C21   A    
C3    C37   S    
C14   C15   A    
C40   O17   A    
Cr6   O11   S    
Cr6   O10   S    
Cr5   O8    S    
C29   H16   S    
