data_mof_unit_61391.cif
_audit_creation_date              2012-12-10T16:43:28-0500
_audit_creation_method            fapswitch 2.2
_symmetry_space_group_name_H-M    P1
_symmetry_Int_Tables_number       1
_space_group_crystal_system       triclinic
_cell_length_a                    18.462342
_cell_length_b                    18.4834
_cell_length_c                    18.451944
_cell_angle_alpha                 119.618024
_cell_angle_beta                  90.510532
_cell_angle_gamma                 119.916951
_cell_volume                      4463.68218432

loop_
_atom_site_label
_atom_site_type_symbol
_atom_type_description
_atom_site_fract_x
_atom_site_fract_y
_atom_site_fract_z
_atom_type_partial_charge
C1    C     C_R   0.361249 0.998537 0.138396 0.778567
C2    C     C_R   0.257589 0.190699 0.827615 0.082985
C3    C     C_R   0.253387 0.099734 0.792306 0.038676
C4    C     C_R   0.307070 0.098116 0.847240 -0.154921
C5    C     C_R   0.303133 0.007343 0.812062 -0.188145
C6    C     C_R   0.244396 0.919462 0.727175 0.517557
C7    C     C_R   0.190148 0.920483 0.675868 -0.311292
C8    C     C_R   0.195932 0.009242 0.705426 -0.101130
C9    C     C_2   0.776403 0.940267 0.719997 -0.202437
C10   C     C_2   0.796881 0.991639 0.683388 -0.285621
C11   C     C_2   0.709360 0.930641 0.763998 0.114349
C12   C     C_R   0.638872 0.000254 0.861747 0.812026
C13   C     C_2   0.704534 0.010394 0.816868 -0.031832
C14   C     C_2   0.277537 0.445289 0.703612 0.415489
C15   C     C_2   0.195487 0.387703 0.704668 0.287590
C16   C     C_2   0.335601 0.556628 0.772844 -0.267731
C17   C     C_2   0.304245 0.613323 0.795999 -0.283278
C18   C     C_2   0.280285 0.056043 0.336058 -0.148706
C19   C     C_2   0.192421 0.008194 0.305567 -0.266475
C20   C     C_2   0.334032 0.061785 0.278255 -0.172517
C21   C     C_2   0.304709 0.985910 0.192019 -0.016347
C22   C     C_2   0.786408 0.950431 0.217897 0.124321
C23   C     C_R   0.637930 0.277222 0.138316 0.883023
C24   C     C_2   0.796057 0.988491 0.303657 -0.302755
C25   C     C_2   0.719664 0.941827 0.165786 -0.280660
C26   C     C_2   0.710440 0.018228 0.195070 -0.019211
C27   C     C_2   0.770966 0.557837 0.220048 -0.226233
C28   C     C_2   0.809030 0.612563 0.307842 -0.316113
C29   C     C_2   0.718863 0.445548 0.161339 0.132675
C30   C     C_2   0.689401 0.388288 0.193773 -0.295073
C31   C     C_R   0.138875 0.277078 0.639038 0.778981
C32   C     C_R   0.861638 0.723044 0.361726 0.863290
C33   C     C_R   0.860402 0.998874 0.637254 0.847355
C34   C     C_R   0.361212 0.723088 0.860330 0.856463
C35   C     C_R   0.138468 0.001246 0.361580 0.839469
C36   C     C_R   0.859726 0.998920 0.360075 0.866156
C37   C     C_R   0.140098 0.002402 0.642402 0.864832
C38   C     C_R   0.641587 0.002356 0.139721 0.859751
C39   C     C_R   0.359818 0.001143 0.861221 0.948965
C40   C     C_R   0.361195 0.186605 0.936132 0.508728
C41   C     C_R   0.371399 0.277960 0.964121 0.054182
C42   C     C_R   0.319200 0.278875 0.910669 -0.266265
H1    H     H_    0.405673 0.592211 0.801323 0.182030
H2    H     H_    0.235433 0.579183 0.764033 0.203478
H3    H     H_    0.314624 0.095869 0.405697 0.174970
H4    H     H_    0.158357 0.975138 0.237934 0.172438
H5    H     H_    0.400989 0.131034 0.308728 0.153504
H6    H     H_    0.752885 0.008893 0.332909 0.127622
H7    H     H_    0.676826 0.870070 0.101054 0.167992
H8    H     H_    0.780129 0.596749 0.188423 0.179447
H9    H     H_    0.804097 0.577901 0.342337 0.151733
H10   H     H_    0.700513 0.422348 0.263760 0.125124
H11   H     H_    0.324573 0.348695 0.935086 0.167254
H12   H     H_    0.144646 0.851446 0.610664 0.164176
H13   H     H_    0.804670 0.898710 0.712856 0.173253
H14   H     H_    0.763779 0.026588 0.683993 0.171832
O1    O     O_3   0.500000 0.000000 0.000000 -0.497714
O2    O     O_R   0.614240 0.229150 0.054160 -0.589828
O3    O     O_R   0.325020 0.770840 0.885120 -0.632032
O4    O     O_R   0.445840 0.060100 0.175010 -0.647864
O5    O     O_R   0.614900 0.939900 0.885710 -0.619825
O6    O     O_3   0.999960 0.000000 0.500040 -0.498310
O7    O     O_R   0.174930 0.229160 0.614920 -0.613769
O8    O     O_R   0.885720 0.770850 0.445880 -0.647183
O9    O     O_R   0.885050 0.060100 0.614330 -0.642489
O10   O     O_R   0.054120 0.939900 0.325040 -0.642536
O11   O     O_R   0.884120 0.060070 0.444330 -0.652158
O12   O     O_R   0.325020 0.939940 0.054210 -0.650136
O13   O     O_R   0.175860 0.060090 0.615830 -0.628191
O14   O     O_R   0.884120 0.939900 0.324160 -0.615121
O15   O     O_R   0.055710 0.939940 0.615850 -0.641965
O16   O     O_R   0.885720 0.939940 0.614980 -0.642039
O17   O     O_R   0.174930 0.060060 0.445830 -0.633055
O18   O     O_R   0.054120 0.229160 0.614300 -0.622066
O19   O     O_R   0.885050 0.770830 0.325070 -0.643014
O20   O     O_R   0.614240 0.060060 0.885070 -0.661223
O21   O     O_R   0.614900 0.229170 0.174980 -0.655637
O22   O     O_R   0.445840 0.770840 0.885740 -0.644780
O23   O     O_R   0.615830 0.060100 0.175880 -0.631323
O24   O     O_R   0.324090 0.939910 0.884220 -0.622817
O25   O     O_R   0.615830 0.939930 0.055710 -0.662735
O26   O     O_R   0.444240 0.060060 0.884190 -0.616035
Zn1   Zn    Zn3+2 0.542440 0.085830 0.956610 1.001291
Zn2   Zn    Zn3+2 0.543390 0.085850 0.129220 0.969874
Zn3   Zn    Zn3+2 0.543390 0.914160 0.957530 0.960505
Zn4   Zn    Zn3+2 0.370780 0.914160 0.956640 0.989772
Zn5   Zn    Zn3+2 0.957510 0.914170 0.543430 0.965008
Zn6   Zn    Zn3+2 0.956570 0.085840 0.542520 0.974984
Zn7   Zn    Zn3+2 0.956570 0.914150 0.370820 0.970154
Zn8   Zn    Zn3+2 0.129180 0.085840 0.543400 0.991592
O27   O     O_3   0.237449 0.830150 0.695342 -0.592417
C43   C     C_3   0.287554 0.821148 0.638315 -0.345592
H15   H     H_    0.358611 0.887664 0.673131 0.148626
H16   H     H_    0.259326 0.811890 0.578363 0.165957
H17   H     H_    0.285073 0.751856 0.615839 0.195381
N1    N     N_3   0.769226 0.110046 0.837522 -0.467289
H18   H     H_    0.735682 0.133522 0.819309 0.196623
H19   H     H_    0.801541 0.160712 0.906142 0.183069
O28   O     O_3   0.309416 0.396957 0.642793 -0.602628
C44   C     C_3   0.364737 0.456796 0.614507 -0.305915
H20   H     H_    0.431794 0.519374 0.665735 0.170678
H21   H     H_    0.334877 0.487694 0.596394 0.154171
H22   H     H_    0.373158 0.407653 0.554275 0.191389
O29   O     O_3   0.163386 0.431933 0.767694 -0.618811
C45   C     C_3   0.159471 0.404341 0.827231 -0.313611
H23   H     H_    0.224815 0.423958 0.856864 0.140412
H24   H     H_    0.106758 0.321838 0.794615 0.161863
H25   H     H_    0.142382 0.447979 0.882228 0.201294
N2    N     N_3   0.221173 0.888384 0.152479 -0.446981
H26   H     H_    0.182477 0.872948 0.098298 0.196165
H27   H     H_    0.233597 0.832760 0.128682 0.189362
N3    N     N_3   0.838669 0.916545 0.175797 -0.405688
H28   H     H_    0.795306 0.839583 0.123091 0.183975
H29   H     H_    0.871355 0.957500 0.149260 0.179552
O30   O     O_3   0.406413 0.186591 0.996294 -0.614451
C46   C     C_3   0.349796 0.153527 0.040345 -0.347143
H30   H     H_    0.287548 0.075999 0.993178 0.167651
H31   H     H_    0.333013 0.207827 0.080822 0.150611
H32   H     H_    0.384873 0.149532 0.085901 0.180271
N4    N     N_3   0.773123 0.120204 0.273251 -0.450784
H33   H     H_    0.837980 0.140225 0.281264 0.200345
H34   H     H_    0.756561 0.126024 0.328907 0.194261
N5    N     N_3   0.699189 0.398694 0.067714 -0.398202
H35   H     H_    0.759325 0.427999 0.055990 0.178658
H36   H     H_    0.664045 0.420220 0.048727 0.179119
N6    N     N_3   0.434372 0.371171 0.048146 -0.454243
H37   H     H_    0.417656 0.362247 0.098452 0.196082
H38   H     H_    0.497032 0.385276 0.051013 0.211423
N7    N     N_3   0.198318 0.194934 0.781782 -0.448399
H39   H     H_    0.236283 0.253344 0.773359 0.198276
H40   H     H_    0.162289 0.213992 0.821630 0.154789
N8    N     N_3   0.648776 0.833333 0.749221 -0.437717
H41   H     H_    0.685994 0.815035 0.770210 0.184857
H42   H     H_    0.615456 0.778686 0.680995 0.172133

loop_
_geom_bond_atom_site_label_1
_geom_bond_atom_site_label_2
_ccdc_geom_bond_type
C23   O2    A    
C1    C21   S    
N6    H37   S    
C37   O13   A    
C27   C29   S    
O12   Zn4   S    
C41   C42   A    
C11   N8    S    
C1    O12   A    
C32   O19   A    
N3    H29   S    
C19   H4    S    
C33   O9    A    
C7    C8    A    
O1    Zn4   S    
C45   H24   S    
O11   Zn6   S    
C24   C36   S    
C26   N4    S    
O17   Zn8   S    
N2    H27   S    
C42   H11   S    
O23   Zn2   S    
C28   H9    S    
N5    H36   S    
C40   O30   S    
C16   C17   D    
C38   O23   A    
C6    O27   S    
O6    Zn7   S    
O6    Zn8   S    
C11   C13   D    
C2    N7    S    
C46   H30   S    
C18   C19   D    
N3    H28   S    
O24   Zn4   S    
C33   O16   A    
C4    C40   A    
C36   O14   A    
N8    H41   S    
C22   C25   S    
N1    H19   S    
O1    Zn1   S    
C9    H13   S    
C15   O29   S    
C10   H14   S    
C9    C10   D    
O8    Zn5   S    
C18   C20   S    
C27   H8    S    
N5    H35   S    
O20   Zn1   S    
C44   H21   S    
O29   C45   S    
N4    H34   S    
O10   Zn7   S    
C45   H25   S    
C36   O11   A    
C13   N1    S    
C24   H6    S    
C23   C30   S    
C31   O7    A    
C28   C32   S    
C32   O8    A    
C3    C8    A    
C1    O4    A    
O27   C43   S    
C26   C38   S    
C31   O18   A    
O21   Zn2   S    
C25   C26   D    
O6    Zn6   S    
C43   H17   S    
C29   C30   D    
O28   C44   S    
N1    H18   S    
C20   C21   D    
C43   H16   S    
O1    Zn2   S    
C23   O21   A    
C9    C11   S    
C16   H1    S    
O5    Zn3   S    
O15   Zn5   S    
O22   Zn3   S    
C40   C41   A    
C22   N3    S    
C37   O15   A    
C38   O25   A    
C34   O3    A    
C14   C16   S    
O14   Zn7   S    
C8    C37   S    
O13   Zn8   S    
C18   H3    S    
O16   Zn5   S    
N4    H33   S    
O9    Zn6   S    
N7    H39   S    
O6    Zn5   S    
C5    C39   S    
C30   H10   S    
C35   O17   A    
N6    H38   S    
C41   N6    S    
C39   O26   A    
C4    C5    A    
C21   N2    S    
C15   C31   S    
C6    C7    A    
C45   H23   S    
C35   O10   A    
C46   H32   S    
C39   O24   A    
C12   O20   A    
C2    C3    A    
C17   H2    S    
C19   C35   S    
N2    H26   S    
C34   O22   A    
C12   O5    A    
O4    Zn2   S    
C14   O28   S    
O30   C46   S    
C5    C6    A    
C2    C42   A    
C29   N5    S    
O7    Zn8   S    
C43   H15   S    
C46   H31   S    
C10   C33   S    
C22   C24   D    
C44   H22   S    
C25   H7    S    
O3    Zn4   S    
C20   H5    S    
O19   Zn7   S    
C12   C13   S    
N8    H42   S    
O26   Zn1   S    
C17   C34   S    
C27   C28   D    
C14   C15   D    
C44   H20   S    
C7    H12   S    
O18   Zn6   S    
O2    Zn1   S    
O1    Zn3   S    
O25   Zn3   S    
C3    C4    A    
N7    H40   S    
