data_mof_unit_36541.cif
_audit_creation_date              2013-03-05T15:59:40-0500
_audit_creation_method            fapswitch 2.2
_symmetry_space_group_name_H-M    P1
_symmetry_Int_Tables_number       1
_space_group_crystal_system       triclinic
_cell_length_a                    15.024076
_cell_length_b                    13.694633
_cell_length_c                    27.725258
_cell_angle_alpha                 89.984772
_cell_angle_beta                  86.500806
_cell_angle_gamma                 89.69738
_cell_volume                      5693.73536867

loop_
_atom_site_label
_atom_site_type_symbol
_atom_site_description
_atom_site_fract_x
_atom_site_fract_y
_atom_site_fract_z
_atom_type_partial_charge
O1    O     O_R   0.370260 0.582280 0.500010 -0.579228
O2    O     O_R   0.629740 0.417720 0.499990 -0.582797
O3    O     O_R   0.629740 0.582280 0.499990 -0.600891
O4    O     O_R   0.370260 0.417720 0.500010 -0.588770
C1    C     C_R   0.328478 0.500689 0.501192 0.851066
C2    C     C_R   0.671297 0.500216 0.499512 0.862976
O5    O     O_R   0.500020 0.582260 0.430260 -0.581898
O6    O     O_R   0.499980 0.417740 0.569740 -0.600596
O7    O     O_R   0.499980 0.582260 0.569740 -0.558686
O8    O     O_R   0.500020 0.417740 0.430260 -0.599753
C3    C     C_R   0.498162 0.499647 0.407528 0.854693
C4    C     C_R   0.501936 0.499635 0.592534 0.837404
Cu1   Cu    Cu3+1 0.500000 0.597420 0.500000 0.945811
Cu2   Cu    Cu3+1 0.500000 0.402580 0.500000 0.938744
C5    C     C_R   0.389279 0.473343 0.180188 0.591233
C6    C     C_R   0.578845 0.444741 0.822956 0.591049
O9    O     O_2   0.313920 0.500416 0.205595 -0.540990
O10   O     O_2   0.658950 0.440346 0.798407 -0.536224
N1    N     N_R   0.466789 0.461750 0.203527 -0.450278
N2    N     N_R   0.504210 0.468011 0.798921 -0.449966
C7    C     C_R   0.544323 0.434934 0.178023 0.567279
C8    C     C_R   0.423003 0.478144 0.824134 0.566465
C9    C     C_R   0.540651 0.531173 0.272962 -0.219522
C10   C     C_R   0.461799 0.556364 0.725452 -0.221705
C11   C     C_R   0.555674 0.529001 0.322328 0.414465
C12   C     C_R   0.451731 0.556695 0.675522 0.422815
C13   C     C_R   0.411955 0.452315 0.337960 -0.329962
C14   C     C_R   0.560862 0.426402 0.666129 -0.328645
C15   C     C_R   0.404451 0.440130 0.288298 -0.102238
C16   C     C_R   0.559206 0.415690 0.716258 -0.103920
C17   C     C_R   0.468749 0.480104 0.255024 0.267232
C18   C     C_R   0.510526 0.481560 0.746809 0.262671
C19   C     C_R   0.470382 0.442477 0.103071 -0.128295
C20   C     C_R   0.490794 0.446472 0.899470 -0.126014
C21   C     C_R   0.388382 0.458726 0.129596 -0.136906
C22   C     C_R   0.572600 0.426837 0.873321 -0.139483
C23   C     C_R   0.308495 0.457452 0.105015 0.423744
C24   C     C_R   0.644414 0.387459 0.897917 0.394671
C25   C     C_R   0.548939 0.432765 0.127572 -0.044266
C26   C     C_R   0.416676 0.475790 0.874745 -0.023161
C27   C     C_R   0.487352 0.497391 0.355308 -0.116969
C28   C     C_R   0.507454 0.497301 0.645309 -0.133700
H1    H     H_    0.360969 0.422419 0.362981 0.150586
H2    H     H_    0.600546 0.376101 0.643492 0.167362
H3    H     H_    0.349546 0.397789 0.276091 0.178202
H4    H     H_    0.594744 0.354718 0.730962 0.184357
C29   C     C_R   0.401422 0.460368 0.976509 0.051961
C30   C     C_R   0.557144 0.421052 0.025783 0.018147
C31   C     C_R   0.558384 0.408259 0.974970 -0.055421
C32   C     C_R   0.395094 0.445569 0.027441 -0.026093
C33   C     C_R   0.483370 0.438177 0.950365 -0.041465
C34   C     C_R   0.474204 0.436306 0.052012 -0.041207
C35   C     C_R   0.331202 0.503899 0.951712 0.480393
C36   C     C_R   0.636258 0.427864 0.050949 0.491189
C37   C     C_R   0.338617 0.506373 0.900696 -0.270413
C38   C     C_R   0.631295 0.425689 0.101374 -0.234025
O11   O     O_2   0.347669 0.488781 0.800487 -0.584834
O12   O     O_2   0.617254 0.409739 0.201372 -0.580992
C39   C     C_R   0.312996 0.438262 0.054940 0.204672
C40   C     C_R   0.631565 0.366923 0.947606 0.213500
H5    H     H_    0.423368 0.608158 0.747756 0.173293
H6    H     H_    0.590924 0.563060 0.248199 0.161104
H7    H     H_    0.286275 0.538191 0.880698 0.177525
H8    H     H_    0.692899 0.424746 0.119770 0.192032
C41   C     C_R   0.819751 0.505309 0.455762 0.423284
C42   C     C_R   0.180768 0.548075 0.540312 0.399636
C43   C     C_R   0.767795 0.501838 0.499454 -0.159883
C44   C     C_R   0.231550 0.503237 0.501968 -0.149940
C45   C     C_R   0.807697 0.511432 0.543223 -0.310853
C46   C     C_R   0.190382 0.466851 0.462161 -0.296188
C47   C     C_R   0.900192 0.519108 0.543554 0.092764
C48   C     C_R   0.098224 0.474006 0.460252 0.087236
C49   C     C_R   0.953087 0.502732 0.500616 -0.045192
C50   C     C_R   0.046025 0.503263 0.501724 -0.038191
C51   C     C_R   0.912778 0.490109 0.456210 -0.072781
C52   C     C_R   0.086821 0.535227 0.543713 -0.080748
C53   C     C_R   0.939832 0.543643 0.586069 -0.303588
C54   C     C_R   0.058167 0.452429 0.417342 -0.316169
C55   C     C_R   0.033266 0.553528 0.587009 0.439337
C56   C     C_R   0.965450 0.465806 0.413666 0.469086
H9    H     H_    0.766340 0.517649 0.576580 0.147482
H10   H     H_    0.230876 0.438667 0.431469 0.141927
H11   H     H_    0.896601 0.558858 0.617798 0.148454
H12   H     H_    0.100977 0.428370 0.386938 0.143510
C57   C     C_R   0.546878 0.793056 0.532981 0.009660
C58   C     C_R   0.453332 0.206901 0.466922 0.016616
C59   C     C_R   0.454682 0.793648 0.466367 -0.007466
C60   C     C_R   0.547129 0.206337 0.532879 0.017796
N3    N     N_R   0.500000 0.743810 0.500000 -0.195717
N4    N     N_R   0.500000 0.256190 0.500000 -0.185273
C61   C     C_R   0.453920 0.896664 0.465422 -0.005078
C62   C     C_R   0.548425 0.103269 0.533591 -0.005379
C63   C     C_R   0.548486 0.896074 0.533563 -0.001796
C64   C     C_R   0.452903 0.103848 0.465844 -0.006945
C65   C     C_R   0.501238 0.948152 0.499479 0.076193
C66   C     C_R   0.500907 0.051772 0.499616 0.084187
C67   C     C_R   0.406346 0.949202 0.431728 -0.196199
C68   C     C_R   0.595890 0.050697 0.567332 -0.196594
C69   C     C_R   0.595828 0.948042 0.567354 -0.194078
C70   C     C_R   0.405757 0.051853 0.431970 -0.197803
H13   H     H_    0.583219 0.752045 0.558836 0.134299
H14   H     H_    0.416366 0.247902 0.441320 0.130423
H15   H     H_    0.418182 0.753115 0.440572 0.133390
H16   H     H_    0.583870 0.246897 0.558571 0.128257
H17   H     H_    0.369318 0.910931 0.405302 0.141877
H18   H     H_    0.632869 0.088945 0.593788 0.140000
H19   H     H_    0.632704 0.909327 0.593850 0.140395
H20   H     H_    0.368414 0.090552 0.405667 0.140406
O13   O     O_3   0.074230 0.585751 0.627981 -0.622360
C71   C     C_3   0.031489 0.556593 0.672618 0.025555
H21   H     H_    0.084316 0.534351 0.696739 0.164573
H22   H     H_    0.988385 0.491095 0.669983 0.141447
C72   C     C_3   0.981488 0.643205 0.696720 -0.348822
H23   H     H_    0.030142 0.701111 0.704554 0.221556
H24   H     H_    0.933297 0.674798 0.672169 0.216737
C73   C     C_3   0.931522 0.612538 0.743811 -0.901978
H25   H     H_    0.880715 0.556624 0.736588 0.264564
H26   H     H_    0.897203 0.676927 0.760871 0.260847
H27   H     H_    0.978738 0.582201 0.769328 0.259516
O14   O     O_3   0.921436 0.447208 0.371601 -0.606000
C74   C     C_3   0.973969 0.455538 0.327574 0.042380
H28   H     H_    0.930792 0.433933 0.298284 0.164377
H29   H     H_    0.029723 0.402022 0.324931 0.141959
C75   C     C_3   0.004328 0.560945 0.317157 -0.400683
H30   H     H_    0.944889 0.609333 0.316345 0.209615
H31   H     H_    0.046462 0.587713 0.345841 0.216724
C76   C     C_3   0.057766 0.567889 0.268666 -0.859864
H32   H     H_    0.118648 0.521513 0.268892 0.277891
H33   H     H_    0.078253 0.644737 0.261952 0.252868
H34   H     H_    0.016716 0.544012 0.238866 0.253808
O15   O     O_3   0.226541 0.459970 0.131058 -0.543520
C77   C     C_3   0.174958 0.541086 0.116923 0.111935
H35   H     H_    0.103802 0.524220 0.126528 0.170288
H36   H     H_    0.179972 0.554754 0.077259 0.159848
C78   C     C_3   0.199390 0.634002 0.143872 -0.350845
H37   H     H_    0.188409 0.622266 0.183429 0.262695
H38   H     H_    0.270884 0.651356 0.135539 0.222952
C79   C     C_3   0.142705 0.720691 0.129337 -0.918808
H39   H     H_    0.152961 0.734678 0.089905 0.264725
H40   H     H_    0.162300 0.786918 0.149148 0.268987
H41   H     H_    0.070950 0.706195 0.138505 0.255604
O16   O     O_3   0.721144 0.355396 0.872046 -0.542371
C80   C     C_3   0.797304 0.404833 0.887394 0.116133
H42   H     H_    0.856312 0.357442 0.878627 0.181388
H43   H     H_    0.795605 0.417332 0.927114 0.167645
C81   C     C_3   0.811226 0.502003 0.860610 -0.346322
H44   H     H_    0.821653 0.487903 0.821216 0.264149
H45   H     H_    0.751256 0.549182 0.866918 0.220486
C82   C     C_3   0.892083 0.555900 0.877750 -0.957345
H46   H     H_    0.883310 0.571050 0.917111 0.263093
H47   H     H_    0.899897 0.626461 0.858265 0.273183
H48   H     H_    0.953494 0.511505 0.870366 0.262822
O17   O     O_3   0.377543 0.600453 0.657289 -0.609623
C83   C     C_3   0.300470 0.544852 0.671746 0.079453
H49   H     H_    0.241077 0.586391 0.661697 0.223835
H50   H     H_    0.291916 0.537104 0.711702 0.160620
C84   C     C_3   0.300990 0.443071 0.647554 -0.317783
H51   H     H_    0.315797 0.450393 0.608016 0.241787
H52   H     H_    0.353662 0.396762 0.662428 0.208860
C85   C     C_3   0.212894 0.389550 0.656487 -0.885404
H53   H     H_    0.191488 0.390007 0.695544 0.253260
H54   H     H_    0.221098 0.312561 0.644389 0.253822
H55   H     H_    0.160942 0.423548 0.635288 0.280790
O18   O     O_3   0.640482 0.544363 0.337705 -0.622689
C86   C     C_3   0.697624 0.466543 0.320829 0.074538
H56   H     H_    0.767466 0.488086 0.325344 0.206316
H57   H     H_    0.694984 0.453363 0.281389 0.166588
C87   C     C_3   0.678641 0.371282 0.349064 -0.303658
H58   H     H_    0.681581 0.384728 0.388425 0.260391
H59   H     H_    0.610827 0.344648 0.342324 0.207636
C88   C     C_3   0.745310 0.291130 0.333684 -0.869725
H60   H     H_    0.743050 0.276233 0.294395 0.263110
H61   H     H_    0.728277 0.223066 0.353896 0.253241
H62   H     H_    0.813852 0.312805 0.341676 0.286164
O19   O     O_3   0.266434 0.557645 0.978891 -0.622411
C89   C     C_3   0.183598 0.567945 0.957535 0.082656
H63   H     H_    0.130237 0.560240 0.986816 0.178839
H64   H     H_    0.170238 0.509281 0.931156 0.153153
C90   C     C_3   0.175161 0.670513 0.936116 -0.367684
H65   H     H_    0.176439 0.725300 0.965646 0.231637
H66   H     H_    0.232237 0.685758 0.909927 0.224514
C91   C     C_3   0.088514 0.682091 0.910711 -0.906311
H67   H     H_    0.087246 0.630029 0.880052 0.261006
H68   H     H_    0.083534 0.757511 0.896388 0.267568
H69   H     H_    0.030287 0.668661 0.936456 0.257551
O20   O     O_3   0.718688 0.439466 0.026442 -0.590543
C92   C     C_3   0.746939 0.537691 0.029397 0.033811
H70   H     H_    0.820199 0.538277 0.021009 0.179486
H71   H     H_    0.735656 0.568952 0.066408 0.129895
C93   C     C_3   0.702677 0.602180 0.992299 -0.397349
H72   H     H_    0.711244 0.568138 0.955991 0.220048
H73   H     H_    0.630131 0.609008 0.002176 0.215120
C94   C     C_3   0.743197 0.704092 0.990103 -0.859537
H74   H     H_    0.734116 0.740308 0.025927 0.259802
H75   H     H_    0.709571 0.748856 0.963127 0.264909
H76   H     H_    0.815472 0.699834 0.979125 0.249389
Br1   Br    Br    0.213668 0.371107 0.028981 -0.499704
Br2   Br    Br    0.697952 0.258989 0.973004 -0.423605
O21   O     O_3   0.779450 0.530200 0.413864 -0.591917
C95   C     C_3   0.802298 0.627638 0.400386 0.103759
H77   H     H_    0.798593 0.634073 0.360699 0.177172
H78   H     H_    0.871954 0.647779 0.407884 0.105834
C96   C     C_3   0.736584 0.701410 0.424413 -0.328017
H79   H     H_    0.667230 0.679051 0.418213 0.275450
H80   H     H_    0.745385 0.703422 0.463877 0.214735
C97   C     C_3   0.751623 0.804003 0.404192 -0.921331
H81   H     H_    0.820410 0.828585 0.410208 0.253091
H82   H     H_    0.703505 0.855438 0.422796 0.266125
H83   H     H_    0.741157 0.805283 0.364877 0.264098
O22   O     O_3   0.224771 0.600442 0.574297 -0.597163
C98   C     C_3   0.200956 0.701022 0.573327 0.131054
H84   H     H_    0.187247 0.725267 0.611306 0.187402
H85   H     H_    0.139690 0.717628 0.553913 0.113787
C99   C     C_3   0.278150 0.761400 0.551065 -0.333001
H86   H     H_    0.340794 0.741040 0.568031 0.270245
H87   H     H_    0.285922 0.745960 0.511738 0.217488
C100  C     C_3   0.260940 0.870560 0.558245 -0.930959
H88   H     H_    0.199568 0.892959 0.540655 0.255594
H89   H     H_    0.317955 0.912650 0.541886 0.272331
H90   H     H_    0.253399 0.888372 0.597371 0.261340

loop_
_geom_bond_atom_site_label_1
_geom_bond_atom_site_label_2
_geom_bond_distance
_ccdc_geom_bond_type
C78   C79   1.525796 S    
C42   C44   1.409151 A    
C96   H79   1.110992 S    
C56   O14   1.399424 S    
C86   H56   1.105936 S    
C59   C61   1.410999 A    
C13   C15   1.398445 A    
C24   O16   1.389279 S    
C49   C50   1.398565 A    
C65   C66   1.419031 A    
C52   C55   1.425227 A    
C88   H60   1.110872 S    
O3    C2    1.282420 A    
N1    C17   1.451873 S    
C8    O11   1.349405 S    
C76   H33   1.110528 S    
C62   C68   1.406280 A    
C78   H37   1.110836 S    
C19   C34   1.415805 A    
C30   C36   1.418021 A    
C96   H80   1.110450 S    
C35   O19   1.399882 S    
C20   C33   1.413288 A    
C10   H5    1.082222 S    
C31   C40   1.413052 A    
C50   C52   1.418712 A    
O1    C1    1.283942 A    
C32   C39   1.413915 A    
O18   C86   1.425929 S    
C21   C23   1.416132 A    
C10   C12   1.401714 A    
C72   H23   1.111737 S    
C30   C34   1.418437 A    
C82   H47   1.110203 S    
C97   H82   1.110927 S    
C53   H11   1.080765 S    
C11   O18   1.385170 S    
C80   H42   1.110832 S    
C68   C69   1.405824 A    
C80   H43   1.113225 S    
C62   C66   1.407884 A    
C73   H25   1.110868 S    
C5    O9    1.346804 S    
C31   C33   1.411469 A    
C14   C28   1.402767 A    
C45   C47   1.394771 A    
O7    Cu1   1.944598 S    
C71   H21   1.109989 S    
Cu2   N4    2.004757 S    
C92   C93   1.535234 S    
C48   C54   1.397960 A    
C58   C64   1.411662 A    
C93   C94   1.525295 S    
C91   H67   1.110710 S    
C57   C63   1.411240 A    
C19   C25   1.402964 A    
C9    H6    1.082859 S    
C60   C62   1.411648 A    
C93   H73   1.110947 S    
C77   H35   1.111295 S    
C94   H75   1.110412 S    
C37   H7    1.079421 S    
C4    C28   1.470944 S    
C38   H8    1.083716 S    
C42   O22   1.385848 S    
C51   C56   1.418381 A    
C63   C69   1.406120 A    
C83   H50   1.112514 S    
O3    Cu1   1.959112 S    
C40   Br2   1.935224 S    
C29   C35   1.422228 A    
C72   C73   1.525758 S    
C67   H17   1.083510 S    
C26   C37   1.400163 A    
C87   H59   1.110500 S    
C42   C52   1.420720 A    
O21   C95   1.423710 S    
C84   H52   1.110356 S    
C41   O21   1.384076 S    
Cu1   Cu2   2.668261 S    
C84   H51   1.109775 S    
C49   C51   1.415853 A    
O2    C2    1.293355 A    
C1    C44   1.455339 S    
O2    Cu2   1.961290 S    
C5    C21   1.417824 A    
C60   H16   1.082624 S    
O5    C3    1.296455 A    
C29   C32   1.424025 A    
C81   H45   1.111073 S    
C35   C37   1.412410 A    
C71   H22   1.114104 S    
C88   H62   1.108503 S    
C36   C38   1.395791 A    
C70   H20   1.083538 S    
C74   H29   1.109136 S    
C55   O13   1.397270 S    
C85   H55   1.106091 S    
C96   C97   1.525385 S    
C83   C84   1.546759 S    
C48   C50   1.408730 A    
C58   N4    1.368247 A    
C80   C81   1.532785 S    
C11   C27   1.402524 A    
C47   C49   1.407768 A    
C57   N3    1.367840 A    
C99   H86   1.111755 S    
C95   H77   1.108608 S    
C29   C33   1.421541 A    
C41   C43   1.401416 A    
C100  H88   1.110824 S    
C14   H2    1.083555 S    
C54   H12   1.079137 S    
C23   O15   1.389113 S    
C15   H3    1.081881 S    
C100  H90   1.110818 S    
C91   H69   1.110854 S    
C9    C17   1.406120 A    
C5    N1    1.374769 A    
C10   C18   1.407343 A    
C93   H72   1.109500 S    
C99   H87   1.109758 S    
C81   C82   1.525276 S    
C88   H61   1.110443 S    
C13   C27   1.403426 A    
C32   C34   1.410693 A    
C98   H84   1.111058 S    
C7    C25   1.396573 A    
C64   C70   1.406289 A    
O6    C4    1.288811 A    
C94   H76   1.110917 S    
C8    C26   1.400981 A    
C98   C99   1.527137 S    
C83   H49   1.105604 S    
C53   C55   1.412804 A    
C25   C38   1.398927 A    
C6    N2    1.374862 A    
C61   C67   1.406039 A    
C64   C66   1.407874 A    
C71   C72   1.532155 S    
C74   H28   1.110978 S    
C23   C39   1.410563 A    
C79   H40   1.110743 S    
C73   H26   1.110303 S    
C75   C76   1.526453 S    
C59   H15   1.082410 S    
C77   H36   1.113531 S    
C87   H58   1.110349 S    
C98   H85   1.116639 S    
N2    C8    1.375001 A    
C94   H74   1.110900 S    
C84   C85   1.523327 S    
O8    C3    1.287481 A    
C59   N3    1.367906 A    
O8    Cu2   1.944603 S    
C24   C40   1.407907 A    
C82   H48   1.110816 S    
O1    Cu1   1.961291 S    
C76   H32   1.111145 S    
C58   H14   1.082663 S    
C47   C53   1.394647 A    
C67   C70   1.405767 A    
C57   H13   1.082451 S    
O14   C74   1.417479 S    
C12   C28   1.404175 A    
C75   H31   1.109789 S    
C81   H44   1.110704 S    
N2    C18   1.454060 S    
C78   H38   1.111747 S    
C89   H63   1.111000 S    
O6    Cu2   1.944707 S    
N1    C7    1.373640 A    
C97   H81   1.110825 S    
C16   H4    1.081732 S    
C6    O10   1.347059 S    
C60   N4    1.368146 A    
O4    C1    1.294646 A    
C79   H41   1.111312 S    
C68   H18   1.083557 S    
C90   C91   1.525008 S    
C46   C48   1.391770 A    
C86   C87   1.540186 S    
Cu1   N3    2.004757 S    
C69   H19   1.083539 S    
C41   C51   1.412779 A    
C73   H27   1.110991 S    
C95   C96   1.532546 S    
C85   H53   1.110650 S    
C89   C90   1.532503 S    
C22   C24   1.415427 A    
O20   C92   1.416552 S    
C76   H34   1.111019 S    
C7    O12   1.349508 S    
C15   C17   1.407287 A    
O19   C89   1.416821 S    
C2    C43   1.449977 S    
C82   H46   1.110687 S    
C6    C22   1.415223 A    
C16   C18   1.408512 A    
C97   H83   1.110886 S    
C63   C65   1.407730 A    
C72   H24   1.109713 S    
C39   Br1   1.933060 S    
C77   C78   1.533317 S    
C30   C31   1.418664 A    
C89   H64   1.113814 S    
C19   C21   1.412331 A    
C20   C22   1.412921 A    
C14   C16   1.396246 A    
C3    C27   1.467061 S    
C54   C56   1.413856 A    
C99   C100  1.526768 S    
O4    Cu2   1.959113 S    
C100  H89   1.108773 S    
C46   H10   1.085226 S    
O7    C4    1.296964 A    
C91   H68   1.110255 S    
C92   H71   1.114977 S    
C45   H9    1.085346 S    
C79   H39   1.111448 S    
C61   C65   1.407747 A    
C90   H65   1.111741 S    
C13   H1    1.083480 S    
O5    Cu1   1.944713 S    
C9    C11   1.400997 A    
C86   H57   1.111465 S    
O22   C98   1.421950 S    
C36   O20   1.385621 S    
C74   C75   1.538124 S    
C44   C46   1.391322 A    
O16   C80   1.420026 S    
C20   C26   1.399793 A    
C12   O17   1.385113 S    
C92   H70   1.111073 S    
C87   C88   1.525266 S    
C43   C45   1.392467 A    
O17   C83   1.426114 S    
O13   C71   1.417323 S    
C95   H78   1.115398 S    
O15   C77   1.419837 S    
C85   H54   1.110431 S    
C75   H30   1.110535 S    
C90   H66   1.109930 S    
