data_mof_unit_43159.cif
_audit_creation_date              2012-12-11T18:34:57-0500
_audit_creation_method            fapswitch 2.2
_symmetry_space_group_name_H-M    P1
_symmetry_Int_Tables_number       1
_space_group_crystal_system       triclinic
_cell_length_a                    8.339144
_cell_length_b                    14.48411
_cell_length_c                    22.797328
_cell_angle_alpha                 93.909782
_cell_angle_beta                  89.938134
_cell_angle_gamma                 91.384369
_cell_volume                      2746.36623815

loop_
_atom_site_label
_atom_site_type_symbol
_atom_type_description
_atom_site_fract_x
_atom_site_fract_y
_atom_site_fract_z
_atom_type_partial_charge
Ba1   Ba    Ba6+2 0.846250 0.544220 0.470860 1.691439
Ba2   Ba    Ba6+2 0.343570 0.455860 0.529140 1.721863
Br1   Br    Br    0.135547 0.925151 0.553647 -0.598199
Br2   Br    Br    0.429734 0.983778 0.643821 -0.684436
Br3   Br    Br    0.188281 0.004833 0.393976 -0.553239
Br4   Br    Br    0.173481 0.922239 0.233758 -0.480052
C1    C     C_3   0.632824 0.881667 0.311664 -0.271732
C2    C     C_R   0.089971 0.591907 0.938898 -0.009573
C3    C     C_R   0.038348 0.594363 0.879765 0.581615
C4    C     C_3   0.064330 0.764577 0.296111 0.814735
C5    C     C_R   0.921852 0.441723 0.882529 0.584555
C6    C     C_R   0.976430 0.435522 0.941302 -0.083567
C7    C     C_R   0.059006 0.512096 0.969770 -0.102994
C8    C     C_R   0.172401 0.667709 0.967915 -0.084755
C9    C     C_R   0.222312 0.664771 0.026286 -0.069559
C10   C     C_R   0.192018 0.585825 0.057818 -0.005993
C11   C     C_R   0.110564 0.509203 0.029429 -0.055565
C12   C     C_3   0.624320 0.785528 0.334952 0.420608
C13   C     C_R   0.952604 0.354471 0.972388 0.425995
C14   C     C_R   0.001717 0.353186 0.031306 -0.115355
C15   C     C_R   0.080948 0.429815 0.060503 -0.087864
C16   C     C_3   0.217716 0.811336 0.273817 0.118819
C17   C     C_R   0.132371 0.428128 0.119891 0.614651
C18   C     C_R   0.240740 0.582627 0.117186 0.544234
C19   C     C_2   0.756965 0.507641 0.771594 -0.054212
C20   C     C_3   0.712949 0.502249 0.706264 -0.008232
C21   C     C_1   0.996857 0.528861 0.686134 0.065292
C22   C     C_2   0.038046 0.533536 0.742770 -0.134725
C23   C     C_3   0.511364 0.320793 0.354221 0.282945
C24   C     C_2   0.912061 0.521672 0.789474 0.171776
C25   C     C_R   0.406877 0.541214 0.229967 -0.097186
C26   C     C_R   0.445521 0.551752 0.289854 -0.034932
C27   C     C_R   0.193180 0.478458 0.314913 0.043276
C28   C     C_3   0.147756 0.747345 0.594697 0.331541
C29   C     C_R   0.150328 0.470786 0.254538 -0.104684
C30   C     C_R   0.255588 0.504470 0.210944 0.190326
C31   C     C_2   0.858773 0.492448 0.667493 -0.266091
C32   C     C_R   0.685855 0.938333 0.531198 0.044003
C33   C     C_R   0.514959 0.801522 0.494622 0.058021
C34   C     C_3   0.482252 0.292562 0.289533 -0.338525
C35   C     C_R   0.377203 0.769664 0.463778 -0.292673
C36   C     C_R   0.279201 0.829792 0.435463 0.009383
C37   C     C_R   0.326668 0.923319 0.432765 0.245825
C38   C     C_R   0.465572 0.958275 0.463509 0.010501
C39   C     C_R   0.557810 0.898398 0.496406 -0.037130
C40   C     C_3   0.093701 0.843347 0.614623 0.502000
C41   C     C_R   0.636518 0.092023 0.498496 -0.028648
C42   C     C_R   0.724980 0.034179 0.533087 0.063863
C43   C     C_R   0.679570 0.187482 0.499337 -0.018278
C44   C     C_R   0.813232 0.222142 0.530752 -0.214553
C45   C     C_3   0.233915 0.148812 0.676444 0.751809
C46   C     C_R   0.906669 0.165310 0.562443 0.031534
C47   C     C_R   0.854842 0.073182 0.567409 -0.112546
C48   C     C_R   0.508635 0.053298 0.464225 -0.005760
C49   C     C_3   0.961436 0.256725 0.393803 0.288732
C50   C     C_3   0.893991 0.172402 0.357645 -0.282385
C51   C     C_3   0.615513 0.681872 0.650427 0.322026
C52   C     C_3   0.526530 0.717765 0.705735 0.247939
C53   C     C_3   0.891991 0.886719 0.681136 0.153732
C54   C     C_3   0.420324 0.679642 0.794275 0.149152
C55   C     C_3   0.279522 0.236977 0.766928 0.110478
C56   C     C_3   0.312340 0.061987 0.701481 0.502281
C57   C     C_3   0.257058 0.960020 0.774111 0.095693
C58   C     C_3   0.942391 0.307881 0.722078 0.091317
C59   C     C_3   0.971976 0.695629 0.205691 0.226870
C60   C     C_3   0.744610 0.074718 0.790672 0.152122
C61   C     C_3   0.996091 0.215184 0.924539 0.259520
C62   C     C_3   0.702670 0.248152 0.681032 0.717469
C63   C     C_3   0.723153 0.153463 0.706653 0.309175
C64   C     C_R   0.337745 0.522388 0.331781 -0.300574
H1    H     H_    0.713931 0.783309 0.370747 0.087198
H2    H     H_    0.756466 0.898380 0.297123 0.196022
H3    H     H_    0.604659 0.770958 0.729921 0.002740
H4    H     H_    0.414583 0.750897 0.692209 0.073102
H5    H     H_    0.503501 0.773147 0.353235 -0.145331
H6    H     H_    0.598315 0.934299 0.346733 0.056485
H7    H     H_    0.397846 0.346647 0.373781 0.040033
H8    H     H_    0.605174 0.376679 0.357679 0.039718
H9    H     H_    0.386088 0.238130 0.285001 0.170916
H10   H     H_    0.445040 0.352903 0.265999 0.060327
H11   H     H_    0.593840 0.265456 0.268924 0.122695
H12   H     H_    0.167749 0.867242 0.653484 0.100527
H13   H     H_    0.550637 0.885147 0.273689 0.150324
H14   H     H_    0.283926 0.762341 0.243702 0.046809
H15   H     H_    0.103092 0.142805 0.683760 -0.092512
H16   H     H_    0.405463 0.086183 0.733976 0.001493
H17   H     H_    0.641673 0.233048 0.638004 -0.021615
H18   H     H_    0.838002 0.123150 0.691418 -0.060945
H19   H     H_    0.629896 0.106913 0.688037 0.017294
H20   H     H_    0.977972 0.290914 0.053957 0.143793
H21   H     H_    0.284794 0.725018 0.046737 0.134083
H22   H     H_    0.494369 0.563238 0.198406 0.123487
H23   H     H_    0.862169 0.302155 0.407424 0.008017
H24   H     H_    0.198616 0.729944 0.945536 0.109314
H25   H     H_    0.163144 0.541753 0.755314 0.123322
H26   H     H_    0.662491 0.500151 0.803841 0.107261
H27   H     H_    0.034950 0.439945 0.241985 0.124446
H28   H     H_    0.370329 0.529797 0.377826 0.075951
H29   H     H_    0.090659 0.693282 0.308535 -0.167958
H30   H     H_    0.847398 0.458272 0.623699 0.092056
H31   H     H_    0.339441 0.697859 0.465252 0.063030
H32   H     H_    0.916775 0.032665 0.597229 0.110964
H33   H     H_    0.851402 0.293608 0.527489 0.052369
H34   H     H_    0.019840 0.233772 0.433480 0.070755
H35   H     H_    0.755339 0.895476 0.557178 0.177481
H36   H     H_    0.441774 0.097935 0.438016 0.150264
H37   H     H_    0.295778 0.832571 0.311496 -0.008550
H38   H     H_    0.275769 0.749712 0.581594 -0.076908
H39   H     H_    0.072934 0.719090 0.557174 0.080023
H40   H     H_    0.934829 0.959763 0.682414 0.083857
H41   H     H_    0.942652 0.850690 0.718183 0.052013
H42   H     H_    0.760095 0.888171 0.686512 0.095800
H43   H     H_    0.309911 0.718545 0.786221 0.082317
H44   H     H_    0.508312 0.724267 0.820448 0.028184
H45   H     H_    0.819870 0.194866 0.321085 0.119897
H46   H     H_    0.386338 0.620803 0.820799 0.087543
H47   H     H_    0.397012 0.224789 0.787418 0.133545
H48   H     H_    0.189635 0.186803 0.783280 -0.022783
H49   H     H_    0.244733 0.307737 0.782825 0.074581
H50   H     H_    0.357243 0.915441 0.758402 0.070047
H51   H     H_    0.161782 0.914257 0.791119 0.076005
H52   H     H_    0.297566 0.008970 0.811145 0.036499
H53   H     H_    0.874667 0.348133 0.755371 0.133118
H54   H     H_    0.053821 0.346404 0.711803 0.094799
H55   H     H_    0.974224 0.243666 0.741711 0.076755
H56   H     H_    0.819605 0.128534 0.385645 0.079909
H57   H     H_    0.014282 0.629440 0.220826 0.011162
H58   H     H_    0.056523 0.725043 0.174056 0.092506
H59   H     H_    0.857407 0.680045 0.181974 0.086048
H60   H     H_    0.872885 0.057450 0.783985 0.050040
H61   H     H_    0.665350 0.018367 0.770411 0.013525
H62   H     H_    0.720678 0.079193 0.838613 0.080821
H63   H     H_    0.073727 0.247451 0.891406 0.011408
H64   H     H_    0.070502 0.191347 0.960819 0.003323
H65   H     H_    0.936396 0.153142 0.902353 0.061568
H66   H     H_    0.992737 0.130735 0.338114 0.198721
H67   H     H_    0.739704 0.665368 0.662438 -0.023553
H68   H     H_    0.553460 0.618841 0.631005 0.043528
N1    N     N_R   0.957065 0.519362 0.851677 -0.427865
N2    N     N_R   0.208617 0.504867 0.148594 -0.425095
O1    O     O_2   0.901900 0.448470 0.362340 -0.476482
O2    O     O_2   0.175060 0.184507 0.515592 -0.421964
O3    O     O_3   0.263800 0.150755 0.615391 -0.554329
O4    O     O_3   0.142240 0.449440 0.433360 -0.482925
O5    O     O_3   0.549340 0.612930 0.525560 -0.510517
O6    O     O_2   0.396530 0.270940 0.479440 -0.417493
O7    O     O_3   0.561801 0.243304 0.382085 -0.647139
O8    O     O_2   0.393604 0.431612 0.706984 -0.448213
O9    O     O_3   0.604599 0.305631 0.717783 -0.568358
O10   O     O_2   0.063580 0.664106 0.853592 -0.624741
O11   O     O_2   0.842535 0.377820 0.858947 -0.555913
O12   O     O_3   0.624557 0.753634 0.612713 -0.624175
O13   O     O_2   0.111515 0.357462 0.145527 -0.585004
O14   O     O_2   0.310248 0.650259 0.141022 -0.613590
O15   O     O_3   0.645560 0.619080 0.391970 -0.498992
O16   O     O_2   0.782058 0.555720 0.291600 -0.486264
O17   O     O_3   0.077027 0.300060 0.360057 -0.623536
O18   O     O_3   0.655951 0.718847 0.289044 -0.560434
O19   O     O_2   0.793170 0.729090 0.520590 -0.444239
O20   O     O_3   0.052800 0.667320 0.419180 -0.498168
O21   O     O_2   0.952754 0.830308 0.455329 -0.424247
O22   O     O_3   0.927570 0.839153 0.626869 -0.634505
O23   O     O_3   0.005114 0.819078 0.344496 -0.575474
O24   O     O_3   0.488530 0.644172 0.741088 -0.673141
O25   O     O_3   0.295921 0.232749 0.704702 -0.655344
O26   O     O_3   0.192277 0.008288 0.728219 -0.695446
O27   O     O_3   0.853186 0.290846 0.669944 -0.758412
O28   O     O_3   0.943452 0.761862 0.252362 -0.595165
O29   O     O_3   0.712364 0.161024 0.768683 -0.614178
O30   O     O_3   0.877134 0.276214 0.946190 -0.594139
O31   O     O_2   0.287790 0.551560 0.637690 -0.458302
O32   O     O_3   0.047460 0.550640 0.566640 -0.505351
O33   O     O_3   0.544140 0.380990 0.608030 -0.469413
O34   O     O_3   0.131956 0.697583 0.644301 -0.658914
O35   O     O_3   0.640350 0.387150 0.474440 -0.493453
O36   O     O_3   0.136890 0.332750 0.580830 -0.447252
P1    P     P_3+3 0.074990 0.420800 0.372080 1.001078
P2    P     P_3+3 0.618830 0.715330 0.538180 1.005240
P3    P     P_3+3 0.076335 0.785992 0.412259 1.000385
P4    P     P_3+3 0.114710 0.579280 0.627920 1.006658
P5    P     P_3+3 0.114366 0.209633 0.578298 1.076242
P6    P     P_3+3 0.633926 0.608538 0.315348 0.970581
P7    P     P_3+3 0.574458 0.271302 0.457772 0.939346
P8    P     P_3+3 0.563622 0.407990 0.684057 1.065882

loop_
_geom_bond_atom_site_label_1
_geom_bond_atom_site_label_2
_ccdc_geom_bond_type
C1    H13   S    
C49   C50   S    
C25   H22   S    
C12   H5    S    
C57   H50   S    
C55   H49   S    
Ba2   O4    S    
C35   C36   A    
C60   O29   S    
C54   H44   S    
C13   C14   A    
C13   O30   S    
C49   H23   S    
C52   O24   S    
C28   O34   S    
C45   H15   S    
O15   P6    S    
C41   C43   A    
C4    C16   S    
Ba2   O5    S    
C56   H16   S    
C59   O28   S    
C4    O23   S    
O6    P7    D    
C22   H25   S    
O1    P1    D    
O3    P5    S    
C26   P6    S    
C61   H63   S    
C58   O27   S    
Ba2   O33   S    
C9    C10   A    
Br4   C16   S    
C51   O12   S    
Br2   C56   S    
C19   C24   D    
C53   H40   S    
C23   C34   S    
Ba1   Ba2   S    
Ba1   O15   S    
C5    N1    Am   
C32   C39   A    
C62   O9    S    
Ba2   O36   S    
C40   H12   S    
Ba1   O5    S    
C57   O26   S    
C23   H8    S    
C29   C30   A    
O33   P8    S    
C62   C63   S    
O5    P2    S    
O9    P8    S    
C44   C46   A    
C34   H10   S    
C28   C40   S    
C50   H56   S    
O21   P3    D    
C36   P3    S    
C32   C42   A    
Ba2   O31   S    
C33   C39   A    
O32   P4    S    
Br3   C37   S    
C44   H33   S    
C10   C18   A    
C43   P7    S    
C54   H43   S    
C42   C47   A    
C45   C56   S    
Ba2   P4    S    
C63   H19   S    
C50   H66   S    
C18   O14   D    
C60   H62   S    
Ba1   O20   S    
C61   O30   S    
O36   P5    S    
C54   O24   S    
C3    O10   D    
C48   H36   S    
C55   H47   S    
C59   H58   S    
C17   N2    Am   
Ba1   O19   S    
C61   H64   S    
Ba1   O1    S    
C21   P4    S    
C33   C35   A    
C1    H2    S    
O16   P6    D    
C2    C3    A    
C26   C64   A    
C19   C20   S    
C58   H54   S    
C14   H20   S    
C49   H34   S    
C11   C15   A    
C16   H14   S    
C61   H65   S    
C37   C38   A    
C62   O27   S    
O20   P3    S    
C12   O18   S    
C64   H28   S    
Ba2   O35   S    
C30   N2    S    
Ba1   P2    S    
O17   P1    S    
C53   H41   S    
C41   C42   A    
C47   H32   S    
O8    P8    D    
C1    C12   S    
C14   C15   A    
C53   H42   S    
C57   H51   S    
C34   H9    S    
C51   H67   S    
C63   O29   S    
O4    P1    S    
O18   P6    S    
C63   H18   S    
C27   C64   A    
C41   C48   A    
C5    O11   D    
C56   O26   S    
C43   C44   A    
C15   C17   A    
O23   P3    S    
O31   P4    D    
C54   H46   S    
C36   C37   A    
O19   P2    D    
C18   N2    Am   
C27   P1    S    
O34   P4    S    
C33   P2    S    
C46   C47   A    
C52   H4    S    
O35   P7    S    
C60   H61   S    
O7    P7    S    
C12   H1    S    
C62   H17   S    
Ba1   O35   S    
C2    C8    A    
C24   N1    S    
Ba1   O32   S    
C55   H48   S    
C25   C30   A    
C34   H11   S    
C59   H57   S    
C25   C26   A    
C38   C39   A    
C23   O7    S    
C59   H59   S    
C5    C6    A    
C20   C31   S    
C1    H6    S    
C45   O3    S    
Ba2   O6    S    
C58   H53   S    
Br1   C40   S    
C7    C11   A    
C28   H38   S    
C32   H35   S    
C17   O13   D    
Ba1   O4    S    
C57   H52   S    
C3    N1    Am   
C51   C52   S    
C10   C11   A    
C46   P5    S    
C21   C31   D    
C6    C13   A    
C22   C24   S    
C27   C29   A    
C50   H45   S    
C35   H31   S    
C51   H68   S    
C55   O25   S    
O12   P2    S    
C4    H29   S    
C45   O25   S    
C9    H21   S    
C2    C7    A    
C38   C48   A    
C49   O17   S    
O2    P5    D    
C23   H7    S    
C6    C7    A    
C19   H26   S    
C4    O28   S    
C58   H55   S    
C40   O22   S    
C21   C22   D    
C53   O22   S    
C28   H39   S    
C8    C9    A    
C29   H27   S    
Ba1   P1    S    
C8    H24   S    
C31   H30   S    
C16   H37   S    
C52   H3    S    
Ba2   O32   S    
C60   H60   S    
C20   P8    S    
