data_mof_unit_56771.cif
_audit_creation_date              2012-12-11T15:34:20-0500
_audit_creation_method            fapswitch 2.2
_symmetry_space_group_name_H-M    P1
_symmetry_Int_Tables_number       1
_space_group_crystal_system       triclinic
_cell_length_a                    15.0335
_cell_length_b                    15.037645
_cell_length_c                    34.86964
_cell_angle_alpha                 90.814094
_cell_angle_beta                  89.71192
_cell_angle_gamma                 60.202157
_cell_volume                      6839.32311676

loop_
_atom_site_label
_atom_site_type_symbol
_atom_type_description
_atom_site_fract_x
_atom_site_fract_y
_atom_site_fract_z
_atom_type_partial_charge
C1    C     C_R   0.299853 0.609512 0.555310 0.583819
C2    C     C_R   0.653620 0.656895 0.670474 0.046303
C3    C     C_R   0.249157 0.643607 0.268163 -0.108751
C4    C     C_R   0.168743 0.656546 0.292205 0.045352
C5    C     C_R   0.076297 0.668806 0.276845 0.264922
C6    C     C_R   0.064214 0.674804 0.236437 0.078128
C7    C     C_R   0.147126 0.662358 0.212772 0.051296
C8    C     C_R   0.242526 0.555178 0.348537 -0.138397
C9    C     C_R   0.272566 0.543523 0.386174 -0.159901
C10   C     C_R   0.177632 0.729105 0.396654 0.245909
C11   C     C_R   0.155426 0.741740 0.356778 0.283643
C12   C     C_R   0.187333 0.652644 0.333345 0.014034
C13   C     C_R   0.561409 0.721311 0.651851 -0.067831
C14   C     C_R   0.244328 0.629139 0.410128 -0.016006
C15   C     C_R   0.736860 0.025101 0.943349 0.548301
C16   C     C_R   0.743294 0.720538 0.946149 0.594362
C17   C     C_R   0.038419 0.733776 0.948190 0.539083
C18   C     C_R   0.722503 0.039365 0.052843 0.547145
C19   C     C_R   0.732050 0.733688 0.054091 0.587113
C20   C     C_R   0.027339 0.745125 0.057863 0.551435
C21   C     C_R   0.549611 0.704228 0.613253 -0.094825
C22   C     C_R   0.668797 0.668207 0.790147 0.378922
C23   C     C_R   0.660997 0.663601 0.712446 0.355511
C24   C     C_R   0.752614 0.590128 0.851921 -0.066638
C25   C     C_R   0.765947 0.597895 0.891243 0.204458
C26   C     C_R   0.614402 0.768080 0.892594 0.210692
C27   C     C_R   0.602779 0.758155 0.853290 -0.098935
C28   C     C_R   0.675025 0.672350 0.832295 -0.058627
C29   C     C_R   0.610260 0.588477 0.555424 0.542569
C30   C     C_R   0.704848 0.693327 0.910920 -0.008649
C31   C     C_R   0.729387 0.070256 0.905544 -0.015274
C32   C     C_R   0.635076 0.127000 0.887473 -0.094498
C33   C     C_R   0.632395 0.153740 0.849184 -0.124315
C34   C     C_R   0.723802 0.122595 0.828393 0.045402
C35   C     C_R   0.819083 0.067315 0.846592 0.254069
C36   C     C_R   0.820548 0.043716 0.885184 -0.105501
C37   C     C_R   0.711478 0.224161 0.769936 0.265304
C38   C     C_R   0.699418 0.234572 0.730213 -0.051068
C39   C     C_R   0.694771 0.159220 0.707406 0.027307
C40   C     C_R   0.590584 0.299769 0.553486 0.575901
C41   C     C_R   0.707772 0.068543 0.724204 0.056271
C42   C     C_R   0.716660 0.059858 0.764011 -0.130948
C43   C     C_R   0.717246 0.136933 0.786876 0.028765
C44   C     C_R   0.571582 0.213686 0.652570 0.315889
C45   C     C_R   0.550340 0.244763 0.614564 -0.115692
C46   C     C_R   0.727145 0.203015 0.603626 0.215857
C47   C     C_R   0.747544 0.174187 0.641955 -0.117829
C48   C     C_R   0.670636 0.181209 0.666631 0.015906
C49   C     C_R   0.625395 0.244475 0.590138 -0.035827
C50   C     C_R   0.094899 0.694598 0.911433 -0.020930
C51   C     C_R   0.299042 0.610520 0.446523 0.595946
C52   C     C_R   0.136550 0.748129 0.892910 -0.083555
C53   C     C_R   0.169890 0.724804 0.854867 -0.005762
C54   C     C_R   0.161541 0.648232 0.834595 0.045516
C55   C     C_R   0.125750 0.589246 0.853471 0.030860
C56   C     C_R   0.093729 0.612631 0.892003 -0.081224
C57   C     C_R   0.279168 0.592720 0.776015 0.214347
C58   C     C_R   0.289042 0.600526 0.735565 0.230449
C59   C     C_R   0.198624 0.644993 0.713150 -0.024131
C60   C     C_R   0.102185 0.685400 0.730487 -0.150654
C61   C     C_R   0.092760 0.684120 0.769865 -0.132263
C62   C     C_R   0.607943 0.589332 0.445161 0.537633
C63   C     C_R   0.179625 0.639570 0.792799 -0.049046
C64   C     C_R   0.200081 0.728125 0.652343 -0.058854
C65   C     C_R   0.221818 0.720035 0.613186 -0.101021
C66   C     C_R   0.224201 0.556899 0.610093 0.012874
C67   C     C_R   0.208486 0.563324 0.649904 -0.089897
C68   C     C_R   0.201996 0.645869 0.671143 0.058031
C69   C     C_R   0.242011 0.631078 0.592099 0.045613
C70   C     C_R   0.688034 0.718082 0.089574 0.041483
C71   C     C_R   0.629154 0.804424 0.113351 -0.135936
C72   C     C_R   0.606433 0.793074 0.151004 -0.095754
C73   C     C_R   0.589721 0.299813 0.444057 0.575908
C74   C     C_R   0.642005 0.695281 0.165675 0.066169
C75   C     C_R   0.694708 0.608829 0.141601 -0.087681
C76   C     C_R   0.715768 0.619080 0.103196 0.000465
C77   C     C_R   0.583896 0.635117 0.223570 0.047224
C78   C     C_R   0.585565 0.624314 0.263505 -0.074883
C79   C     C_R   0.635022 0.662444 0.286878 0.052705
C80   C     C_R   0.685623 0.709323 0.270585 -0.067982
C81   C     C_R   0.685504 0.720102 0.231118 -0.119856
C82   C     C_R   0.635138 0.683643 0.207227 0.037799
C83   C     C_R   0.542565 0.721101 0.350188 0.205695
C84   C     C_R   0.629897 0.622507 0.592674 0.023189
C85   C     C_R   0.539390 0.703940 0.389311 -0.100251
C86   C     C_R   0.713649 0.561609 0.385945 -0.087055
C87   C     C_R   0.717938 0.578585 0.346963 -0.115591
C88   C     C_R   0.631712 0.655393 0.328649 -0.015084
C89   C     C_R   0.623026 0.621870 0.407155 -0.031499
C90   C     C_R   0.696070 0.104879 0.087637 -0.025818
C91   C     C_R   0.762355 0.138414 0.101392 -0.097961
C92   C     C_R   0.747828 0.182544 0.138218 0.281234
C93   C     C_R   0.667634 0.189964 0.161727 0.002205
C94   C     C_R   0.595750 0.166421 0.146465 -0.179134
C95   C     C_R   0.724660 0.563485 0.610526 -0.100889
C96   C     C_R   0.609389 0.124803 0.109619 -0.137825
C97   C     C_R   0.600552 0.289850 0.222283 -0.071554
C98   C     C_R   0.595671 0.296762 0.262078 -0.136581
C99   C     C_R   0.658640 0.211320 0.283997 -0.003148
C100  C     C_R   0.729317 0.116757 0.265907 0.004897
C101  C     C_R   0.736514 0.110947 0.225270 0.007470
C102  C     C_R   0.670270 0.198072 0.203770 0.046006
C103  C     C_R   0.722050 0.235516 0.347801 0.018732
C104  C     C_R   0.715354 0.236688 0.388359 0.220600
C105  C     C_R   0.562833 0.218897 0.384335 0.210189
C106  C     C_R   0.736343 0.580408 0.649072 -0.102909
C107  C     C_R   0.574079 0.210972 0.344509 -0.080113
C108  C     C_R   0.649971 0.223017 0.326131 -0.066009
C109  C     C_R   0.626431 0.244410 0.406328 -0.016692
C110  C     C_R   0.080871 0.711308 0.094430 0.017956
C111  C     C_R   0.100785 0.617530 0.109882 -0.134121
C112  C     C_R   0.131283 0.594428 0.148017 0.038543
C113  C     C_R   0.139565 0.668522 0.170874 0.077507
C114  C     C_R   0.128862 0.757484 0.154312 -0.070800
C115  C     C_R   0.100149 0.778639 0.116339 -0.095370
C116  C     C_R   0.238377 0.646657 0.228856 -0.108077
Cr1   Cr    Cr6+3 0.421670 0.426920 0.499620 1.143071
Cr2   Cr    Cr6+3 0.427030 0.651190 0.500980 1.084191
Cr3   Cr    Cr6+3 0.651280 0.421870 0.499380 1.198001
Cr4   Cr    Cr6+3 0.910810 0.908010 0.001130 1.056258
Cr5   Cr    Cr6+3 0.682800 0.909890 0.998370 1.106150
Cr6   Cr    Cr6+3 0.908370 0.682300 0.002180 1.116022
H1    H     H_    0.788224 0.500408 0.595337 0.174619
H2    H     H_    0.894158 0.997259 0.898492 0.169628
H3    H     H_    0.823858 0.146666 0.653010 0.153748
H4    H     H_    0.692272 0.302423 0.716853 0.180469
H5    H     H_    0.559046 0.194916 0.835143 0.153053
H6    H     H_    0.723951 0.992028 0.777521 0.116177
H7    H     H_    0.472905 0.273672 0.604512 0.185903
H8    H     H_    0.475611 0.750993 0.600286 0.145303
H9    H     H_    0.138447 0.811635 0.907145 0.174235
H10   H     H_    0.062762 0.570332 0.906270 0.209568
H11   H     H_    0.201540 0.503936 0.664559 0.131214
H12   H     H_    0.197109 0.770367 0.840497 0.189665
H13   H     H_    0.033542 0.718918 0.713318 0.148991
H14   H     H_    0.016774 0.717892 0.782684 0.167644
H15   H     H_    0.190975 0.794245 0.668526 0.146152
H16   H     H_    0.230475 0.780281 0.600142 0.153113
H17   H     H_    0.606563 0.880903 0.103739 0.131857
H18   H     H_    0.787046 0.528663 0.330623 0.192276
H19   H     H_    0.546383 0.588130 0.276670 0.101235
H20   H     H_    0.565764 0.860477 0.169398 0.136767
H21   H     H_    0.723567 0.738975 0.288580 0.167381
H22   H     H_    0.808920 0.530563 0.662466 0.148038
H23   H     H_    0.725366 0.756825 0.219038 0.139150
H24   H     H_    0.468954 0.751130 0.405319 0.190439
H25   H     H_    0.720879 0.533269 0.153067 0.141472
H26   H     H_    0.779281 0.498044 0.398940 0.210734
H27   H     H_    0.827860 0.126033 0.084191 0.172107
H28   H     H_    0.556312 0.100839 0.099626 0.152578
H29   H     H_    0.524034 0.194005 0.327473 0.181447
H30   H     H_    0.541664 0.368845 0.275954 0.108102
H31   H     H_    0.549356 0.356010 0.205766 0.139582
H32   H     H_    0.496437 0.781358 0.667536 0.157934
H33   H     H_    0.533821 0.172059 0.164292 0.143454
H34   H     H_    0.088502 0.564040 0.092698 0.119606
H35   H     H_    0.086254 0.851104 0.105042 0.161800
H36   H     H_    0.803516 0.519516 0.836542 0.227702
H37   H     H_    0.320569 0.631955 0.280074 0.144471
H38   H     H_    0.301325 0.637391 0.210752 0.140957
H39   H     H_    0.267151 0.487429 0.330476 0.160147
H40   H     H_    0.322997 0.466659 0.395944 0.192017
H41   H     H_    0.136195 0.813945 0.171588 0.173583
H42   H     H_    0.537444 0.818742 0.838967 0.195511
H43   H     H_    0.564027 0.147464 0.902490 0.179694
N1    N     N_R   0.744688 0.590090 0.769395 -0.171513
N2    N     N_R   0.740691 0.587681 0.731334 -0.193235
N3    N     N_R   0.585297 0.742027 0.733167 -0.223838
N4    N     N_R   0.589378 0.744504 0.771249 -0.213182
O1    O     O_R   0.502070 0.323090 0.541280 -0.513477
O2    O     O_R   0.520720 0.641670 0.461580 -0.509385
O3    O     O_R   0.674120 0.502090 0.457500 -0.468315
O4    O     O_R   0.640110 0.338380 0.459630 -0.450658
O5    O     O_3   0.499990 0.499990 0.499990 -0.307866
O6    O     O_R   0.017640 0.822070 0.960410 -0.508693
O7    O     O_R   0.822000 0.989470 0.960340 -0.507191
O8    O     O_R   0.666920 0.007430 0.955290 -0.463085
O9    O     O_R   0.694410 0.812480 0.959650 -0.438284
O10   O     O_R   0.831550 0.656950 0.958960 -0.440716
O11   O     O_R   0.998590 0.685540 0.963930 -0.496601
O12   O     O_R   0.338340 0.520690 0.539540 -0.454385
O13   O     O_R   0.008220 0.831200 0.045060 -0.507801
O14   O     O_R   0.813270 0.997930 0.038810 -0.496401
O15   O     O_R   0.657500 0.016560 0.039940 -0.514433
O16   O     O_R   0.685680 0.820940 0.038120 -0.504295
O17   O     O_R   0.822130 0.666070 0.043610 -0.469023
O18   O     O_R   0.989860 0.694000 0.042400 -0.502987
O19   O     O_3   0.833990 0.833400 0.000560 -0.280003
O20   O     O_R   0.324760 0.674070 0.543580 -0.514494
O21   O     O_R   0.522400 0.640310 0.540110 -0.506449
O22   O     O_R   0.675940 0.500630 0.542210 -0.474787
O23   O     O_R   0.641790 0.337020 0.538150 -0.425036
O24   O     O_R   0.500260 0.324550 0.456580 -0.447810
O25   O     O_R   0.336660 0.522040 0.461020 -0.491559
O26   O     O_R   0.322940 0.675540 0.458880 -0.454613
S1    S     S_3+6 0.725204 0.317954 0.796774 0.102501
O27   O     O_2   0.837019 0.285599 0.798539 -0.187232
O28   O     O_2   0.670500 0.419617 0.777370 -0.173990
O29   O     O_3   0.679759 0.331505 0.841930 -0.471168
H44   H     H_    0.604326 0.366443 0.839572 0.392250
C117  C     C_2   0.712530 0.981388 0.701826 0.295735
H45   H     H_    0.711165 0.919183 0.716750 0.111582
O30   O     O_2   0.720260 0.976202 0.666898 -0.464533
S2    S     S_3+6 0.471690 0.217677 0.681210 0.045573
O31   O     O_2   0.478712 0.114513 0.679009 -0.244622
O32   O     O_2   0.479717 0.243531 0.722355 -0.279836
O33   O     O_3   0.357438 0.306086 0.664417 -0.559959
H46   H     H_    0.306144 0.303510 0.681605 0.369405
S3    S     S_3+6 0.938321 0.013256 0.821684 0.025215
O34   O     O_2   0.968601 0.905264 0.810104 -0.304337
O35   O     O_2   0.933349 0.071288 0.786313 -0.225871
O36   O     O_3   0.028403 0.010295 0.850877 -0.500636
H47   H     H_    0.003553 0.082954 0.858041 0.369410
S4    S     S_3+6 0.831918 0.182532 0.573960 0.070189
O37   O     O_2   0.822259 0.144476 0.535007 -0.167136
O38   O     O_2   0.832759 0.281493 0.569797 -0.277312
O39   O     O_3   0.943356 0.094604 0.593078 -0.494301
H48   H     H_    0.964449 0.133900 0.610129 0.348849
S5    S     S_3+6 0.411834 0.556269 0.712911 0.068847
O40   O     O_2   0.459410 0.443674 0.704063 -0.189227
O41   O     O_2   0.404357 0.609651 0.676014 -0.325633
O42   O     O_3   0.490354 0.575702 0.741485 -0.384989
H49   H     H_    0.457284 0.651150 0.744503 0.356087
S6    S     S_3+6 0.387973 0.520402 0.805516 0.048573
O43   O     O_2   0.433792 0.585701 0.816793 -0.201608
O44   O     O_2   0.359516 0.486092 0.841542 -0.310389
O45   O     O_3   0.476507 0.415096 0.781821 -0.432685
H50   H     H_    0.451513 0.365501 0.783465 0.358984
S7    S     S_3+6 0.852851 0.483552 0.914607 0.084023
O46   O     O_2   0.955446 0.477211 0.917737 -0.246572
O47   O     O_2   0.812615 0.482227 0.954030 -0.204274
O48   O     O_3   0.866829 0.381394 0.889131 -0.453277
H51   H     H_    0.916091 0.321073 0.903771 0.379123
C118  C     C_2   0.119980 0.504904 0.833022 0.264071
H52   H     H_    0.147968 0.483898 0.803701 0.123772
O49   O     O_2   0.084305 0.457256 0.848716 -0.435369
C119  C     C_2   0.220147 0.472741 0.589031 0.256831
H53   H     H_    0.238631 0.402454 0.603591 0.142824
O50   O     O_2   0.189782 0.483333 0.556100 -0.449595
C120  C     C_2   0.765654 0.524835 0.078773 0.271616
H54   H     H_    0.806947 0.450412 0.092022 0.149952
O51   O     O_2   0.757055 0.528469 0.043955 -0.415831
C121  C     C_2   0.525098 0.597873 0.200924 0.247902
H55   H     H_    0.500917 0.548384 0.214241 0.081654
O52   O     O_2   0.500037 0.623871 0.167930 -0.479193
S8    S     S_3+6 0.432212 0.821583 0.328845 0.058537
O53   O     O_2   0.375646 0.776793 0.308197 -0.249182
O54   O     O_2   0.362227 0.896930 0.358911 -0.195671
O55   O     O_3   0.465709 0.883288 0.297110 -0.471083
H56   H     H_    0.505203 0.908002 0.312117 0.355117
S9    S     S_3+6 0.833367 0.222751 0.154895 0.015245
O56   O     O_2   0.915658 0.139050 0.178035 -0.224645
O57   O     O_2   0.881977 0.245514 0.121486 -0.292568
O58   O     O_3   0.769351 0.328893 0.182632 -0.546211
H57   H     H_    0.822122 0.345348 0.191474 0.367006
C122  C     C_2   0.791284 0.023594 0.289056 0.300858
H58   H     H_    0.865137 0.963370 0.278866 0.227670
O59   O     O_2   0.759520 0.011517 0.319704 -0.443853
C123  C     C_2   0.807000 0.013325 0.204490 0.253546
H59   H     H_    0.779237 0.987949 0.180410 0.121678
O60   O     O_2   0.897619 0.963850 0.212474 -0.446391
C124  C     C_2   0.801324 0.250002 0.327581 0.310377
H60   H     H_    0.828112 0.217602 0.299060 0.134088
O61   O     O_2   0.834308 0.302306 0.341815 -0.449114
S10   S     S_3+6 0.825920 0.206853 0.415966 0.129599
O62   O     O_2   0.827872 0.303468 0.425768 -0.242570
O63   O     O_2   0.824241 0.154968 0.452257 -0.190564
O64   O     O_3   0.932760 0.127207 0.390825 -0.434057
H61   H     H_    0.990063 0.116705 0.407588 0.402234
S11   S     S_3+6 0.476579 0.184651 0.405299 0.067346
O65   O     O_2   0.373029 0.278594 0.410583 -0.268894
O66   O     O_2   0.466490 0.109193 0.379536 -0.234150
O67   O     O_3   0.520536 0.130703 0.448069 -0.466426
H62   H     H_    0.466001 0.119161 0.458746 0.379715
S12   S     S_3+6 0.091661 0.866089 0.336166 0.118057
O68   O     O_2   0.112355 0.861906 0.293785 -0.271686
O69   O     O_2   0.978323 0.912335 0.342702 -0.186132
O70   O     O_3   0.131281 0.941716 0.356896 -0.404389
H63   H     H_    0.100414 0.004882 0.341595 0.393147
C125  C     C_2   0.149743 0.494607 0.162833 0.228236
H64   H     H_    0.129229 0.447059 0.145543 0.120188
O71   O     O_2   0.189925 0.462870 0.193757 -0.495618
S13   S     S_3+6 0.975811 0.677437 0.307192 0.013603
O72   O     O_2   0.960146 0.588044 0.298461 -0.295873
O73   O     O_2   0.997783 0.677255 0.349192 -0.238535
O74   O     O_3   0.867338 0.786388 0.297553 -0.546235
H65   H     H_    0.824182 0.802724 0.321014 0.395214
C126  C     C_2   0.965363 0.694960 0.219238 0.289083
H66   H     H_    0.919662 0.666093 0.232420 0.164299
O75   O     O_2   0.932424 0.746124 0.190490 -0.515350
S14   S     S_3+6 0.118568 0.833557 0.430442 0.125567
O76   O     O_2   0.181903 0.885383 0.433242 -0.218491
O77   O     O_2   0.011688 0.910114 0.418781 -0.143222
O78   O     O_3   0.111136 0.790311 0.473927 -0.501809
H67   H     H_    0.089241 0.849806 0.491675 0.385292
S15   S     S_3+6 0.510081 0.871453 0.917358 0.052168
O79   O     O_2   0.525001 0.963099 0.917423 -0.272523
O80   O     O_2   0.411632 0.898469 0.897398 -0.242733
O81   O     O_3   0.502230 0.839003 0.962723 -0.487305
H68   H     H_    0.450338 0.903527 0.975523 0.363425

loop_
_geom_bond_atom_site_label_1
_geom_bond_atom_site_label_2
_ccdc_geom_bond_type
Cr1   O5    S    
C59   C60   A    
C55   C56   A    
C73   O4    A    
C45   H7    S    
C101  C102  A    
C73   O24   A    
S13   O73   D    
C41   C42   A    
C6    C126  S    
S14   O76   D    
C87   H18   S    
O81   H68   S    
S6    O43   D    
C40   O1    A    
C97   C98   A    
Cr6   O18   S    
S9    O56   D    
C39   C41   A    
C10   S14   S    
C98   H30   S    
C77   C78   A    
C44   C45   A    
C24   H36   S    
Cr6   O11   S    
C62   O2    A    
C105  C107  A    
C46   C49   A    
C25   S7    S    
O55   H56   S    
C37   C38   A    
C1    O20   A    
C15   O7    A    
C115  H35   S    
C77   C82   A    
S12   O69   D    
C125  O71   D    
C116  H38   S    
S7    O48   S    
C57   S6    S    
C3    C116  A    
Cr3   O5    S    
O74   H65   S    
C27   H42   S    
Cr2   O20   S    
Cr1   O12   S    
Cr6   O17   S    
C66   C69   A    
C83   S8    S    
C54   C63   S    
C16   C30   S    
C121  H55   S    
C62   C89   S    
C101  C123  S    
C33   H5    S    
S3    O36   S    
C15   C31   S    
C34   C35   A    
C117  H45   S    
C114  H41   S    
C61   C63   A    
C2    C13   A    
C110  C111  A    
C112  C113  A    
Cr1   O25   S    
C103  C104  A    
C119  H53   S    
Cr4   O14   S    
S8    O53   D    
Cr1   O1    S    
Cr4   O7    S    
S15   O81   S    
C47   C48   A    
C94   H33   S    
C46   S4    S    
C122  O59   D    
C50   C52   A    
C107  C108  A    
C29   O22   A    
C47   H3    S    
C103  C108  A    
C45   C49   A    
C8    C12   A    
C4    C12   S    
C50   C56   A    
C111  H34   S    
C79   C80   A    
C97   C102  A    
O70   H63   S    
C16   O10   A    
C42   H6    S    
O78   H67   S    
C94   C96   A    
C107  H29   S    
S15   O80   D    
C66   C67   A    
O29   H44   S    
C29   O21   A    
C5    S13   S    
C32   H43   S    
C104  C109  A    
S13   O74   S    
C3    H37   S    
S2    O31   D    
C117  O30   D    
S11   O67   S    
C26   S15   S    
C113  C114  A    
C9    H40   S    
C118  O49   D    
C74   C82   S    
S1    O29   S    
Cr4   O19   S    
C22   C28   S    
C79   C88   S    
C38   H4    S    
C16   O9    A    
C57   C63   A    
C6    C7    A    
C57   C58   A    
C64   H15   S    
Cr6   O10   S    
C21   H8    S    
S8    O54   D    
C93   C102  S    
C73   C109  S    
C74   C75   A    
C34   C43   S    
C67   C68   A    
C18   C90   S    
C37   S1    S    
C40   C49   S    
S14   O78   S    
C38   C39   A    
C24   C25   A    
C29   C84   S    
C72   C74   A    
C10   C14   A    
C78   H19   S    
C91   C92   A    
C91   H27   S    
C9    C14   A    
C1    O12   A    
C78   C79   A    
C8    C9    A    
S9    O58   S    
C71   H17   S    
C121  O52   D    
O39   H48   S    
C53   C54   A    
Cr5   O16   S    
C97   H31   S    
S4    O39   S    
C81   C82   A    
O33   H46   S    
C32   C33   A    
C86   C89   A    
C60   C61   A    
S14   O77   D    
C35   C36   A    
C126  O75   D    
C7    C116  A    
C37   C43   A    
C87   C88   A    
C72   H20   S    
C75   C76   A    
C112  C125  S    
S7    O46   D    
C99   C108  S    
C95   C106  A    
C59   C68   S    
S5    O41   D    
S10   O63   D    
C58   S5    S    
Cr4   O6    S    
Cr6   O19   S    
O45   H50   S    
C40   O23   A    
C21   C84   A    
C18   O15   A    
C104  S10   S    
C80   H21   S    
C96   H28   S    
C122  H58   S    
S12   O70   S    
C120  O51   D    
S3    O34   D    
C26   C27   A    
C13   C21   A    
C93   C94   A    
C46   C47   A    
Cr3   O23   S    
C90   C96   A    
Cr2   O26   S    
C36   H2    S    
C60   H13   S    
C11   S12   S    
C56   H10   S    
Cr5   O9    S    
C85   H24   S    
Cr5   O15   S    
C23   N2    A    
C65   H16   S    
C17   O11   A    
S1    O28   D    
S15   O79   D    
C83   C85   A    
S12   O68   D    
S2    O32   D    
C26   C30   A    
C81   H23   S    
C119  O50   D    
C66   C119  S    
C70   C76   A    
N1    N2    A    
C20   C110  S    
C80   C81   A    
C118  H52   S    
C55   C118  S    
C41   C117  S    
C3    C4    A    
S6    O45   S    
C64   C68   A    
S13   O72   D    
C70   C71   A    
S6    O44   D    
C52   C53   A    
C86   C87   A    
C2    C23   S    
C20   O13   A    
C123  H59   S    
S10   O62   D    
C92   S9    S    
C95   H1    S    
C25   C30   A    
S5    O40   D    
C105  C109  A    
C54   C55   A    
N3    N4    A    
C85   C89   A    
C111  C112  A    
C67   H11   S    
C77   C121  S    
C52   H9    S    
C18   O14   A    
C31   C32   A    
C53   H12   S    
C24   C28   A    
Cr3   O22   S    
S1    O27   D    
C123  O60   D    
C51   O25   A    
C86   H26   S    
C17   C50   S    
Cr5   O8    S    
C11   C12   A    
C106  H22   S    
C124  H60   S    
C62   O3    A    
Cr3   O3    S    
C99   C100  A    
C76   C120  S    
C8    H39   S    
C75   H25   S    
C126  H66   S    
C7    C113  S    
O58   H57   S    
C15   O8    A    
C58   C59   A    
S4    O38   D    
C125  H64   S    
C19   O17   A    
C51   O26   A    
Cr3   O4    S    
Cr5   O19   S    
C120  H54   S    
Cr2   O21   S    
C90   C91   A    
C5    C6    A    
Cr2   O2    S    
C65   C69   A    
C4    C5    A    
S4    O37   D    
C64   C65   A    
C92   C93   A    
S3    O35   D    
C103  C124  S    
C33   C34   A    
C83   C88   A    
S2    O33   S    
S11   O66   D    
C114  C115  A    
S11   O65   D    
C35   S3    S    
O42   H49   S    
C105  S11   S    
S10   O64   S    
C1    C69   S    
C13   H32   S    
C22   N4    A    
S9    O57   D    
C10   C11   A    
C2    C106  A    
C23   N3    A    
C22   N1    A    
C44   C48   A    
C71   C72   A    
C124  O61   D    
O36   H47   S    
Cr2   O5    S    
C14   C51   S    
S7    O47   D    
C98   C99   A    
C42   C43   A    
C27   C28   A    
C44   S2    S    
Cr1   O24   S    
C31   C36   A    
C39   C48   S    
C19   C70   S    
C100  C101  A    
C20   O18   A    
C100  C122  S    
Cr4   O13   S    
C110  C115  A    
C84   C95   A    
C19   O16   A    
C17   O6    A    
C61   H14   S    
O48   H51   S    
O64   H61   S    
S5    O42   S    
S8    O55   S    
O67   H62   S    
