data_mof_unit_36938.cif
_audit_creation_date              2012-12-11T16:19:58-0500
_audit_creation_method            fapswitch 2.2
_symmetry_space_group_name_H-M    P1
_symmetry_Int_Tables_number       1
_space_group_crystal_system       triclinic
_cell_length_a                    13.508505
_cell_length_b                    14.035616
_cell_length_c                    30.102596
_cell_angle_alpha                 97.935796
_cell_angle_beta                  90.0642
_cell_angle_gamma                 118.772223
_cell_volume                      4939.87300435

loop_
_atom_site_label
_atom_site_type_symbol
_atom_type_description
_atom_site_fract_x
_atom_site_fract_y
_atom_site_fract_z
_atom_type_partial_charge
C1    C     C_R   0.721486 0.099366 0.568751 0.544296
C2    C     C_R   0.348922 0.675545 0.677103 0.028441
C3    C     C_R   0.256735 0.675078 0.655767 -0.119576
C4    C     C_R   0.264372 0.703436 0.612827 -0.114837
C5    C     C_R   0.248114 0.647514 0.830588 -0.135764
C6    C     C_R   0.228602 0.623188 0.874009 -0.137409
C7    C     C_R   0.398792 0.606519 0.877285 -0.135102
C8    C     C_R   0.419954 0.631619 0.833598 0.051551
C9    C     C_R   0.340734 0.648147 0.809661 0.072583
C10   C     C_1   0.346119 0.657298 0.762822 0.083156
C11   C     C_1   0.347676 0.664091 0.723528 0.028207
C12   C     C_R   0.383789 0.788874 0.551341 0.546987
C13   C     C_R   0.301269 0.598221 0.897100 0.009170
C14   C     C_3   0.227277 0.044478 0.711769 -0.099290
C15   C     C_3   0.307082 0.251696 0.718357 0.154727
C16   C     C_3   0.295797 0.257788 0.770178 0.210785
C17   C     C_1   0.296146 0.196924 0.877214 0.012121
C18   C     C_3   0.329295 0.153989 0.700598 0.013426
C19   C     C_3   0.218557 0.051798 0.764155 0.069315
C20   C     C_3   0.311652 0.166510 0.788575 -0.035423
C21   C     C_3   0.428441 0.177934 0.777652 -0.179632
C22   C     C_3   0.441391 0.172685 0.725927 0.453352
C23   C     C_R   0.397163 0.118975 0.569151 0.562992
C24   C     C_1   0.303674 0.177784 0.837572 -0.030851
C25   C     C_1   0.342899 0.145987 0.651817 -0.044583
C26   C     C_1   0.363312 0.136661 0.613085 0.004107
C27   C     C_3   0.716418 0.139376 0.724689 -0.212529
C28   C     C_3   0.916544 0.288815 0.721178 -0.183630
C29   C     C_3   0.936586 0.301633 0.773545 -0.079157
C30   C     C_1   0.900794 0.206068 0.878333 0.003736
C31   C     C_3   0.827997 0.168897 0.701758 -0.003001
C32   C     C_3   0.735598 0.153263 0.776334 -0.242690
C33   C     C_3   0.860561 0.188047 0.789775 0.001487
C34   C     C_R   0.720409 0.095214 0.442898 0.521352
C35   C     C_3   0.890665 0.100814 0.764814 -0.063727
C36   C     C_3   0.872586 0.091295 0.712978 -0.211201
C37   C     C_1   0.877275 0.197149 0.838901 -0.069811
C38   C     C_1   0.804519 0.154434 0.652907 -0.063011
C39   C     C_1   0.773514 0.134047 0.613612 0.001233
C40   C     C_3   0.274693 0.730890 0.271543 -0.174531
C41   C     C_3   0.289504 0.558426 0.271450 0.164378
C42   C     C_3   0.284229 0.540467 0.218822 0.200532
C43   C     C_1   0.307882 0.606334 0.111023 0.007254
C44   C     C_3   0.347849 0.684236 0.289565 0.014695
C45   C     C_R   0.382171 0.784169 0.424952 0.546223
C46   C     C_3   0.270280 0.718622 0.219149 -0.086704
C47   C     C_3   0.331926 0.652809 0.200561 -0.015645
C48   C     C_3   0.458158 0.722869 0.218714 -0.252743
C49   C     C_3   0.467895 0.744642 0.271212 -0.118898
C50   C     C_1   0.323962 0.633011 0.151126 -0.050583
C51   C     C_1   0.356631 0.706613 0.338988 -0.073294
C52   C     C_1   0.366018 0.735143 0.378950 -0.016120
C53   C     C_R   0.355213 0.131019 0.400925 0.009701
C54   C     C_R   0.389144 0.237023 0.389650 0.004991
C55   C     C_R   0.375015 0.246364 0.343896 0.229570
C56   C     C_R   0.395300 0.114879 0.443347 0.585793
C57   C     C_R   0.329163 0.151129 0.311298 0.067718
C58   C     C_R   0.286638 0.047324 0.323487 -0.167630
C59   C     C_R   0.298328 0.037147 0.367940 -0.164306
C60   C     C_R   0.252954 0.086489 0.147015 0.247966
C61   C     C_R   0.241939 0.105312 0.102539 0.232397
C62   C     C_R   0.403987 0.289688 0.121727 -0.171392
C63   C     C_R   0.410333 0.272715 0.165650 -0.162515
C64   C     C_R   0.332445 0.173618 0.178611 0.041692
C65   C     C_1   0.331118 0.164537 0.225236 0.073945
C66   C     C_1   0.329402 0.158758 0.264533 0.076282
C67   C     C_R   0.364821 0.733171 0.591036 0.022003
C68   C     C_R   0.316559 0.209208 0.090481 0.031662
C69   C     C_R   0.773967 0.127980 0.401036 -0.010218
C70   C     C_R   0.743504 0.043492 0.364419 -0.141289
C71   C     C_R   0.762583 0.067253 0.321280 -0.141558
C72   C     C_R   0.815844 0.175950 0.313693 0.027731
C73   C     C_R   0.859040 0.264253 0.350207 0.030317
C74   C     C_R   0.835454 0.239636 0.394599 -0.027498
C75   C     C_R   0.851408 0.293325 0.163234 -0.008709
C76   C     C_R   0.888413 0.305284 0.119287 0.265184
C77   C     C_R   0.857246 0.117493 0.108208 -0.198331
C78   C     C_R   0.453947 0.725623 0.611555 -0.122103
C79   C     C_R   0.826395 0.106291 0.152099 0.010742
C80   C     C_R   0.830615 0.197340 0.180551 -0.014777
C81   C     C_1   0.825263 0.196130 0.228110 0.060249
C82   C     C_1   0.822893 0.191174 0.267551 0.089884
C83   C     C_R   0.894253 0.217484 0.092257 0.031257
C84   C     C_R   0.283733 0.232202 0.922642 0.548338
C85   C     C_R   0.266088 0.546783 0.937918 0.542223
C86   C     C_R   0.945909 0.222266 0.923326 0.543421
C87   C     C_R   0.292746 0.243010 0.049236 0.578799
C88   C     C_R   0.275090 0.558556 0.064909 0.549091
C89   C     C_R   0.446083 0.697365 0.654532 -0.100117
C90   C     C_R   0.953834 0.233335 0.050408 0.569336
Cr1   Cr    Cr6+3 0.583400 0.162540 0.509180 1.083892
Cr2   Cr    Cr6+3 0.584070 0.916690 0.495550 1.039644
Cr3   Cr    Cr6+3 0.332550 0.920810 0.495240 1.053257
Cr4   Cr    Cr6+3 0.086700 0.177000 0.983690 1.079762
Cr5   Cr    Cr6+3 0.336880 0.419130 0.994740 1.036954
Cr6   Cr    Cr6+3 0.084850 0.422220 0.995960 1.074294
H1    H     H_    0.152827 0.617511 0.888362 0.141929
H2    H     H_    0.225245 0.236577 0.702400 0.080428
H3    H     H_    0.207923 0.240921 0.775961 0.195015
H4    H     H_    0.438014 0.112028 0.790599 0.077700
H5    H     H_    0.244538 0.975624 0.700088 0.118438
H6    H     H_    0.233903 0.986682 0.775008 0.111445
H7    H     H_    0.187576 0.660812 0.812460 0.116759
H8    H     H_    0.497893 0.255945 0.796400 0.152944
H9    H     H_    0.714497 0.216792 0.792564 0.138388
H10   H     H_    0.683435 0.194196 0.716485 0.199826
H11   H     H_    0.995313 0.311195 0.703662 0.177549
H12   H     H_    0.885644 0.345718 0.713399 0.119176
H13   H     H_    0.908625 0.360512 0.789161 0.105586
H14   H     H_    0.812248 0.005162 0.697286 0.137572
H15   H     H_    0.954478 0.113605 0.697757 0.132786
H16   H     H_    0.181149 0.658053 0.673157 0.123841
H17   H     H_    0.651466 0.052941 0.711568 0.156829
H18   H     H_    0.676597 0.075282 0.788402 0.118002
H19   H     H_    0.982007 0.130022 0.773328 0.188770
H20   H     H_    0.189012 0.689103 0.284077 0.232523
H21   H     H_    0.340935 0.523286 0.283797 0.162296
H22   H     H_    0.341074 0.505558 0.208875 0.154679
H23   H     H_    0.502197 0.834811 0.281874 0.097269
H24   H     H_    0.194311 0.708369 0.597912 0.148679
H25   H     H_    0.497262 0.802998 0.205927 0.151456
H26   H     H_    0.311400 0.819728 0.285773 0.087155
H27   H     H_    0.319496 0.803125 0.210572 0.106021
H28   H     H_    0.506094 0.680474 0.205403 0.177750
H29   H     H_    0.249091 0.974056 0.298181 0.142541
H30   H     H_    0.271121 0.955395 0.375694 0.155304
H31   H     H_    0.532402 0.748039 0.595661 0.144017
H32   H     H_    0.473310 0.338888 0.190052 0.171226
H33   H     H_    0.462287 0.369779 0.113383 0.169702
H34   H     H_    0.696033 0.957814 0.368644 0.134627
H35   H     H_    0.858308 0.048934 0.087057 0.133067
H36   H     H_    0.731928 0.999686 0.293417 0.163939
H37   H     H_    0.456032 0.588418 0.895075 0.120582
H38   H     H_    0.517727 0.697738 0.670959 0.158451
O1    O     O_R   0.494060 0.188820 0.559230 -0.488015
O2    O     O_R   0.480140 0.824500 0.445020 -0.496071
O3    O     O_R   0.308480 0.808690 0.440220 -0.501622
O4    O     O_R   0.340970 0.020670 0.455610 -0.511037
O5    O     O_3   0.500010 0.000010 0.499990 -0.262385
O6    O     O_R   0.969690 0.151000 0.934080 -0.490540
O7    O     O_R   0.187530 0.180840 0.938210 -0.490830
O8    O     O_R   0.358160 0.327300 0.941250 -0.504267
O9    O     O_R   0.323950 0.507710 0.953980 -0.500333
O10   O     O_R   0.170530 0.527770 0.952070 -0.517004
O11   O     O_R   0.987720 0.318450 0.945940 -0.504067
O12   O     O_R   0.678470 0.153390 0.554100 -0.495483
O13   O     O_R   0.976400 0.159230 0.032040 -0.521012
O14   O     O_R   0.193740 0.188470 0.029020 -0.437238
O15   O     O_R   0.364860 0.335530 0.039220 -0.527662
O16   O     O_R   0.330170 0.515340 0.044800 -0.497386
O17   O     O_R   0.177230 0.536000 0.050040 -0.486335
O18   O     O_R   0.993930 0.326080 0.036750 -0.433990
O19   O     O_3   0.169480 0.339450 0.991460 -0.268904
O20   O     O_R   0.697870 0.003940 0.549410 -0.505104
O21   O     O_R   0.480980 0.827230 0.535590 -0.499952
O22   O     O_R   0.309390 0.811640 0.537920 -0.507868
O23   O     O_R   0.341810 0.023400 0.546180 -0.493557
O24   O     O_R   0.493150 0.185870 0.461540 -0.462867
O25   O     O_R   0.677630 0.150660 0.463530 -0.494629
O26   O     O_R   0.696960 0.000990 0.451710 -0.510191
C91   C     C_2   0.116410 0.012174 0.685792 0.280559
H39   H     H_    0.109141 0.066488 0.665254 0.072561
O27   O     O_2   0.033652 0.922633 0.687028 -0.442981
O28   O     O_3   0.393278 0.352270 0.708059 -0.604329
H40   H     H_    0.376127 0.355986 0.676467 0.329065
O29   O     O_3   0.367629 0.363814 0.794141 -0.651467
H41   H     H_    0.447069 0.383043 0.789043 0.372338
O30   O     O_3   0.466300 0.087850 0.709217 -0.736309
H42   H     H_    0.417957 0.020939 0.722493 0.296535
O31   O     O_3   0.533711 0.273842 0.719182 -0.636335
H43   H     H_    0.555342 0.264927 0.688001 0.357424
C92   C     C_2   0.060774 0.352932 0.789967 0.186511
H44   H     H_    0.084031 0.367348 0.825742 0.130087
O32   O     O_2   0.136093 0.381012 0.764234 -0.509798
C93   C     C_2   0.823349 0.989065 0.779263 0.265288
H45   H     H_    0.732837 0.940325 0.770412 0.119846
O33   O     O_2   0.870105 0.952250 0.800737 -0.454056
C94   C     C_2   0.152442 0.674574 0.196640 0.229027
H46   H     H_    0.142016 0.668837 0.160459 0.128077
O34   O     O_2   0.068806 0.647193 0.218048 -0.462427
O35   O     O_3   0.180345 0.503574 0.286695 -0.658791
H47   H     H_    0.189400 0.489868 0.317538 0.323875
O36   O     O_3   0.175990 0.461391 0.198643 -0.670085
H48   H     H_    0.120538 0.484841 0.209085 0.390217
C95   C     C_2   0.552633 0.717343 0.290951 0.220905
H49   H     H_    0.613560 0.774570 0.318220 0.116277
O37   O     O_2   0.552004 0.630799 0.277656 -0.490829
O38   O     O_3   0.157084 0.026785 0.071290 -0.689906
H50   H     H_    0.091122 0.980136 0.087268 0.331146
O39   O     O_3   0.186517 0.986102 0.160824 -0.700889
H51   H     H_    0.164653 0.927095 0.134586 0.333514
C96   C     C_2   0.442307 0.336951 0.424556 0.240719
H52   H     H_    0.507967 0.414464 0.416361 0.128062
O40   O     O_2   0.411615 0.334116 0.462722 -0.487541
O41   O     O_3   0.406397 0.345879 0.329541 -0.685108
H53   H     H_    0.407052 0.399229 0.354843 0.317520
O42   O     O_3   0.924747 0.403269 0.103078 -0.634963
H54   H     H_    0.965715 0.464608 0.128237 0.358961
C97   C     C_2   0.832246 0.378886 0.190899 0.260634
H55   H     H_    0.832436 0.384582 0.227131 0.180048
O43   O     O_2   0.810316 0.440696 0.173403 -0.444966
C98   C     C_2   0.932042 0.380037 0.342708 0.294025
H56   H     H_    0.995391 0.439821 0.368726 0.148961
O44   O     O_2   0.922788 0.410459 0.307639 -0.482669
C99   C     C_2   0.871436 0.327865 0.434420 0.219025
H57   H     H_    0.892493 0.313603 0.466784 0.113347
O45   O     O_2   0.872818 0.414654 0.432118 -0.496584
C100  C     C_2   0.793609 0.998503 0.166689 0.245135
H58   H     H_    0.810735 0.938991 0.146091 0.119391
O46   O     O_2   0.744313 0.972971 0.200641 -0.533915
C101  C     C_2   0.523041 0.635668 0.814376 0.280638
H59   H     H_    0.575319 0.613420 0.833232 0.110001
O47   O     O_2   0.552094 0.664796 0.778008 -0.482678
O48   O     O_3   0.110352 0.033025 0.775738 -0.661483
H60   H     H_    0.096888 0.003270 0.804524 0.358457

loop_
_geom_bond_atom_site_label_1
_geom_bond_atom_site_label_2
_ccdc_geom_bond_type
C44   C49   S    
C15   C18   S    
C55   O41   S    
C5    H7    S    
Cr5   O9    S    
O39   H51   S    
C100  O46   D    
C88   O17   A    
Cr4   O6    S    
C41   C42   S    
C14   C18   S    
C35   C36   S    
C57   C66   S    
O36   H48   S    
C85   O9    A    
C7    C13   A    
C94   H46   S    
C53   C59   A    
C7    C8    A    
C93   O33   D    
C49   H23   S    
C99   H57   S    
C59   H30   S    
C40   C46   S    
Cr6   O11   S    
C67   C78   A    
C28   C29   S    
C90   O13   A    
C98   O44   D    
C60   C61   A    
C43   C88   S    
C29   H13   S    
O28   H40   S    
C28   H12   S    
C7    H37   S    
C76   O42   S    
C77   H35   S    
C5    C6    A    
C19   H6    S    
C95   O37   D    
O31   H43   S    
C78   H31   S    
C28   H11   S    
C15   C16   S    
Cr6   O18   S    
C29   C33   S    
C70   H34   S    
C85   O10   A    
C73   C74   A    
C23   C26   S    
C46   C94   S    
Cr1   O24   S    
C56   O24   A    
Cr3   O4    S    
C71   H36   S    
C46   C47   S    
C21   H8    S    
C101  H59   S    
C16   O29   S    
C8    C9    A    
C47   C48   S    
C35   H19   S    
C70   C71   A    
Cr5   O15   S    
C96   H52   S    
C30   C86   S    
C8    C101  S    
C75   C80   A    
Cr1   O25   S    
C63   H32   S    
C86   O6    A    
C72   C73   A    
C22   O30   S    
C34   O25   A    
C77   C79   A    
C97   H55   S    
C21   C22   S    
C62   H33   S    
C41   O35   S    
C1    O12   A    
Cr2   O2    S    
C18   C25   S    
C12   O22   A    
C2    C11   S    
C76   C83   A    
C91   O27   D    
C92   O32   D    
C91   H39   S    
C47   C50   S    
C57   C58   A    
C99   O45   D    
C78   C89   A    
Cr4   O14   S    
C38   C39   T    
C12   C67   S    
C17   C24   T    
C98   H56   S    
C27   C31   S    
C51   C52   T    
C6    H1    S    
C20   C24   S    
C15   O28   S    
C90   O18   A    
C87   O14   A    
C48   H25   S    
C21   H4    S    
O48   H60   S    
C100  H58   S    
C14   H5    S    
O41   H53   S    
C27   H10   S    
C58   C59   A    
O35   H47   S    
Cr6   O17   S    
C61   O38   S    
C81   C82   T    
C63   C64   A    
C30   C37   T    
O38   H50   S    
Cr5   O19   S    
C96   O40   D    
C2    C89   A    
C75   C76   A    
C28   C31   S    
C5    C9    A    
C62   C63   A    
Cr3   O5    S    
Cr6   O10   S    
C56   O4    A    
Cr6   O19   S    
C84   O8    A    
C3    H16   S    
C16   C20   S    
C36   H15   S    
C45   O3    A    
Cr1   O1    S    
C69   C74   A    
C43   C50   T    
Cr5   O16   S    
Cr3   O23   S    
C34   C69   S    
C22   O31   S    
C54   C96   S    
Cr5   O8    S    
Cr1   O5    S    
C27   H17   S    
C44   C51   S    
C69   C70   A    
O30   H42   S    
C101  O47   D    
C75   C97   S    
C32   H9    S    
C55   C57   A    
C36   H14   S    
O29   H41   S    
C41   C44   S    
C46   H27   S    
C12   O21   A    
C3    C4    A    
C86   O11   A    
C92   H44   S    
C9    C10   S    
C53   C56   S    
Cr4   O13   S    
C83   C90   S    
C54   C55   A    
C48   C49   S    
C45   O2    A    
C89   H38   S    
C27   C32   S    
C18   C22   S    
Cr4   O7    S    
C88   O16   A    
C14   C19   S    
Cr3   O22   S    
C42   H22   S    
C80   C81   S    
Cr2   O26   S    
C48   H28   S    
C4    C67   A    
C94   O34   D    
C16   H3    S    
C53   C54   A    
C23   O1    A    
C42   O36   S    
C40   H26   S    
C73   C98   S    
C45   C52   S    
C31   C38   S    
C62   C68   A    
C60   C64   A    
C19   O48   S    
C35   C93   S    
C32   C33   S    
C17   C84   S    
C19   C20   S    
C2    C3    A    
C25   C26   T    
C71   C72   A    
C93   H45   S    
C64   C65   S    
C6    C13   A    
C61   C68   A    
C95   H49   S    
C40   H20   S    
C84   O7    A    
C14   C91   S    
Cr4   O19   S    
C23   O23   A    
C33   C35   S    
Cr2   O21   S    
O42   H54   S    
C42   C47   S    
Cr1   O12   S    
C29   C92   S    
C1    O20   A    
C33   C37   S    
Cr3   O3    S    
C10   C11   T    
C1    C39   S    
C79   C80   A    
C40   C44   S    
C49   C95   S    
C20   C21   S    
C58   H29   S    
C60   O39   S    
C65   C66   T    
C87   O15   A    
C13   C85   S    
C97   O43   D    
C68   C87   S    
C77   C83   A    
C31   C36   S    
C4    H24   S    
Cr2   O20   S    
C15   H2    S    
C32   H18   S    
Cr2   O5    S    
C41   H21   S    
C72   C82   S    
C79   C100  S    
C74   C99   S    
C34   O26   A    
