data_mof_unit_13831.cif
_audit_creation_date              2013-03-05T15:55:26-0500
_audit_creation_method            fapswitch 2.2
_symmetry_space_group_name_H-M    P1
_symmetry_Int_Tables_number       1
_space_group_crystal_system       triclinic
_cell_length_a                    10.752242
_cell_length_b                    12.421661
_cell_length_c                    13.285778
_cell_angle_alpha                 117.463762
_cell_angle_beta                  75.044654
_cell_angle_gamma                 100.910749
_cell_volume                      1516.03111735

loop_
_atom_site_label
_atom_site_type_symbol
_atom_site_description
_atom_site_fract_x
_atom_site_fract_y
_atom_site_fract_z
_atom_type_partial_charge
O1    O     O_R   0.537340 0.972510 0.318130 -0.583085
O2    O     O_R   0.487200 0.806530 0.359650 -0.558616
C1    C     C_R   0.510660 0.855217 0.286908 0.800646
O3    O     O_R   0.707380 0.082980 0.479220 -0.608612
O4    O     O_R   0.657240 0.917000 0.520740 -0.539170
C2    C     C_R   0.739496 0.001642 0.502311 0.805480
Cu1   Cu    Cu3+1 0.529690 0.098270 0.475420 0.946946
Cu2   Cu    Cu3+1 0.470310 0.901730 0.524580 0.972600
O5    O     O_R   0.512800 0.193470 0.640350 -0.583548
O6    O     O_R   0.462660 0.027490 0.681870 -0.576181
O7    O     O_R   0.342760 0.083000 0.479260 -0.585587
O8    O     O_R   0.292620 0.917020 0.520780 -0.609812
C3    C     C_R   0.481083 0.145114 0.713579 0.831799
C4    C     C_R   0.260469 0.002282 0.502693 0.849969
C5    C     C_3   0.960437 0.105099 0.472948 -0.432186
H1    H     H_    0.923966 0.195873 0.533459 0.193424
H2    H     H_    0.953450 0.087170 0.384271 0.178285
C6    C     C_3   0.102440 0.109096 0.477322 -0.356054
H3    H     H_    0.163867 0.101402 0.393319 0.182182
H4    H     H_    0.132788 0.199543 0.542641 0.215126
H5    H     H_    0.871040 0.128643 0.687038 0.193312
C7    C     C_3   0.894970 0.032922 0.629331 -0.077477
C8    C     C_3   0.930989 0.880655 0.415508 -0.408222
C9    C     C_3   0.877846 0.004342 0.505626 0.049169
H6    H     H_    0.878352 0.808542 0.440503 0.204704
H7    H     H_    0.914325 0.859290 0.328728 0.164663
C10   C     C_3   0.122817 0.004799 0.504527 0.005826
C11   C     C_3   0.038234 0.020350 0.625060 0.111812
C12   C     C_3   0.075873 0.880908 0.411543 -0.041908
H8    H     H_    0.086969 0.807135 0.433427 0.190367
H9    H     H_    0.042262 0.935615 0.633040 0.103370
C13   C     C_R   0.327375 0.282050 0.028817 -0.153455
H10   H     H_    0.333789 0.099968 0.893929 0.164893
H11   H     H_    0.245807 0.467543 0.229017 0.170946
H12   H     H_    0.259883 0.253964 0.090208 0.135903
C14   C     C_R   0.454997 0.229155 0.836384 -0.045890
C15   C     C_R   0.593259 0.812388 0.081825 -0.186401
C16   C     C_R   0.617876 0.732140 0.965439 -0.138139
C17   C     C_R   0.572389 0.610298 0.929358 -0.165377
C18   C     C_R   0.496033 0.566871 0.009541 0.086278
C19   C     C_R   0.457558 0.652340 0.125809 0.069088
C20   C     C_R   0.455717 0.441637 0.978052 0.082856
C21   C     C_R   0.367320 0.405533 0.058970 0.149283
C22   C     C_R   0.317790 0.493167 0.168149 -0.203878
C23   C     C_R   0.360901 0.614868 0.200711 -0.188307
C24   C     C_R   0.501844 0.350768 0.868672 -0.235702
C25   C     C_R   0.370662 0.194113 0.917676 -0.107167
C26   C     C_R   0.516330 0.773189 0.163430 -0.092541
H13   H     H_    0.573542 0.372100 0.805669 0.147889
H14   H     H_    0.637346 0.904779 0.108230 0.155823
H15   H     H_    0.596249 0.553331 0.837770 0.132433
H16   H     H_    0.676321 0.763674 0.903056 0.145536
H17   H     H_    0.314982 0.679039 0.284562 0.192265
C27   C     C_R   0.742954 0.361793 0.369673 -0.206443
H18   H     H_    0.752004 0.177281 0.333886 0.124277
H19   H     H_    0.838843 0.364390 0.318612 0.199543
N1    N     N_R   0.574690 0.246280 0.438200 -0.186640
C28   C     C_R   0.314747 0.756642 0.638636 0.074317
C29   C     C_R   0.274284 0.661679 0.670634 -0.241975
C30   C     C_R   0.347861 0.562391 0.623348 -0.154804
C31   C     C_R   0.464648 0.556750 0.543459 -0.058088
C32   C     C_R   0.504371 0.656363 0.512801 0.248263
C33   C     C_R   0.541347 0.453923 0.490204 -0.094153
C34   C     C_R   0.667189 0.461830 0.425433 0.032556
C35   C     C_R   0.712517 0.565052 0.407712 0.235552
C36   C     C_R   0.624792 0.648066 0.431952 0.029497
C37   C     C_R   0.498537 0.341629 0.496160 0.061529
C38   C     C_R   0.693601 0.254022 0.375583 0.044408
N2    N     N_R   0.426100 0.754320 0.561190 -0.184848
H20   H     H_    0.405892 0.327883 0.546167 0.123539
H21   H     H_    0.256865 0.833374 0.676404 0.142428
H22   H     H_    0.312748 0.492326 0.652656 0.151140
H23   H     H_    0.185385 0.665172 0.732743 0.155122
N3    N     N_3   0.805321 0.955834 0.677776 -0.584869
H24   H     H_    0.814266 0.986582 0.763519 0.236788
H25   H     H_    0.830153 0.865851 0.633167 0.226805
N4    N     N_R   0.840702 0.572805 0.342469 0.083660
O9    O     O_R   0.939715 0.590584 0.389246 -0.422789
O10   O     O_R   0.858774 0.537284 0.231374 -0.378833
N5    N     N_3   0.642745 0.691059 0.346925 -0.495404
H26   H     H_    0.735588 0.729620 0.331217 0.227538
H27   H     H_    0.626441 0.617092 0.269330 0.236815
N6    N     N_R   0.088039 0.122414 0.722664 0.113309
O11   O     O_R   0.084976 0.234809 0.742529 -0.384621
O12   O     O_R   0.127948 0.100781 0.795531 -0.395613
N7    N     N_3   0.153707 0.854173 0.295276 -0.604310
H28   H     H_    0.131342 0.763067 0.240695 0.257333
H29   H     H_    0.128620 0.906429 0.261521 0.233411

loop_
_geom_bond_atom_site_label_1
_geom_bond_atom_site_label_2
_geom_bond_distance
_ccdc_geom_bond_type
C5    C6    1.533486 S    
C17   H15   1.077300 S    
C10   C12   1.556735 S    
H18   C38   1.081606 S    
Cu1   Cu2   2.731276 S    
N4    O9    1.301634 A    
Cu1   O7    1.972314 S    
C24   H13   1.076735 S    
Cu2   N2    2.046467 S    
C15   C16   1.386225 A    
N3    H25   1.045066 S    
C8    C12   1.544525 S    
C16   C17   1.389683 A    
O7    C4    1.301936 A    
N7    H29   1.045191 S    
C28   H21   1.081577 S    
C16   H16   1.082912 S    
C30   H22   1.078850 S    
C5    H1    1.113564 S    
C1    C26   1.470813 S    
C14   C25   1.398898 A    
C5    H2    1.113823 S    
C6    H3    1.111752 S    
C20   C24   1.399570 A    
C8    H7    1.112746 S    
C31   C33   1.440897 A    
O5    C3    1.309147 A    
C13   C21   1.403685 A    
C8    C9    1.550174 S    
C14   C24   1.394821 A    
C4    C10   1.479996 S    
C29   H23   1.082601 S    
C18   C20   1.421589 A    
C23   H17   1.079925 S    
C29   C30   1.392772 A    
C7    C11   1.561486 S    
H5    C7    1.113965 S    
C11   N6    1.469916 S    
N1    C37   1.366262 A    
O3    Cu1   1.971010 S    
C33   C37   1.415548 A    
N4    O10   1.301810 A    
C27   H19   1.082062 S    
C35   N4    1.438888 S    
N3    H24   1.046018 S    
C32   C36   1.439267 A    
C13   H12   1.083849 S    
H11   C22   1.084171 S    
C3    C14   1.460844 S    
N5    H27   1.047058 S    
C17   C18   1.418055 A    
N7    H28   1.046146 S    
C28   C29   1.390777 A    
C32   N2    1.410324 A    
C30   C31   1.408933 A    
O1    C1    1.312585 A    
C21   C22   1.391749 A    
C12   H8    1.115148 S    
N6    O11   1.301149 A    
Cu2   O8    1.971009 S    
C2    C9    1.493160 S    
C15   C26   1.402959 A    
C12   N7    1.470239 S    
O3    C2    1.306455 A    
C18   C19   1.417101 A    
N6    O12   1.300608 A    
O8    C4    1.309632 A    
H10   C25   1.083072 S    
C13   C25   1.392896 A    
C7    C9    1.566633 S    
C20   C21   1.419931 A    
C7    N3    1.469417 S    
N1    C38   1.346959 A    
C22   C23   1.386486 A    
Cu1   O5    1.928388 S    
C5    C9    1.557233 S    
O1    Cu1   1.939814 S    
C11   H9    1.115138 S    
O2    Cu2   1.928390 S    
C6    C10   1.561183 S    
N5    H26   1.035949 S    
O6    C3    1.310441 A    
O4    Cu2   1.972316 S    
C28   N2    1.357539 A    
C36   N5    1.415430 S    
C37   H20   1.077737 S    
C34   C35   1.385512 A    
O2    C1    1.311064 A    
C15   H14   1.083245 S    
O4    C2    1.311967 A    
C27   C34   1.406838 A    
C19   C26   1.419319 A    
C6    H4    1.109007 S    
C8    H6    1.103824 S    
C31   C32   1.433318 A    
C33   C34   1.416920 A    
C27   C38   1.373460 A    
Cu2   O6    1.939814 S    
C35   C36   1.400648 A    
C10   C11   1.567899 S    
C19   C23   1.413278 A    
Cu1   N1    2.058438 S    
