data_mof_unit_14086.cif
_audit_creation_date              2012-10-26T21:17:41-0400
_audit_creation_method            fapswitch 2.2
_symmetry_space_group_name_H-M    P1
_symmetry_Int_Tables_number       1
_space_group_crystal_system       triclinic
_cell_length_a                    10.826756
_cell_length_b                    9.084994
_cell_length_c                    7.896445
_cell_angle_alpha                 90.000324
_cell_angle_beta                  88.857634
_cell_angle_gamma                 89.968245
_cell_volume                      776.547837812

loop_
_atom_site_label
_atom_site_type_symbol
_atom_type_description
_atom_site_fract_x
_atom_site_fract_y
_atom_site_fract_z
_atom_type_partial_charge
C1    C     C_R   0.500017 0.220471 0.499992 0.558019
C2    C     C_R   0.057347 0.505145 0.656256 0.043846
C3    C     C_R   0.127595 0.520647 0.506434 0.014627
C4    C     C_R   0.872651 0.476359 0.496688 0.010427
C5    C     C_R   0.065768 0.536631 0.355638 -0.167191
C6    C     C_R   0.937343 0.531724 0.356373 -0.178973
C7    C     C_1   0.500081 0.065491 0.500035 -0.039858
C8    C     C_1   0.500090 0.934514 0.500031 -0.042110
C9    C     C_R   0.500077 0.779530 0.499989 0.554432
C10   C     C_R   0.262130 0.510349 0.502134 0.565213
C11   C     C_R   0.737824 0.488271 0.498854 0.564926
C12   C     C_R   0.085603 0.577276 0.808290 0.114541
C13   C     C_R   0.883558 0.385352 0.791965 0.117864
C14   C     C_R   0.005501 0.558350 0.946881 -0.139894
C15   C     C_R   0.915818 0.447148 0.945842 -0.122975
C16   C     C_R   0.938653 0.443546 0.644082 0.043246
Cu1   Cu    Cu3+1 0.500000 0.500000 0.669080 1.024616
Cu2   Cu    Cu3+1 0.500000 0.500000 0.330920 1.005060
H1    H     H_    0.118785 0.562314 0.243047 0.141921
H2    H     H_    0.886889 0.577279 0.253128 0.133324
H3    H     H_    0.010581 0.636244 0.048043 0.103736
H4    H     H_    0.863617 0.416274 0.057921 0.128664
H5    H     H_    0.135124 0.790120 0.838630 0.220498
H6    H     H_    0.236200 0.666246 0.914789 0.246983
H7    H     H_    0.832869 0.177022 0.844727 0.221412
H8    H     H_    0.716641 0.299110 0.857044 0.258810
N1    N     N_1   0.500000 0.500000 0.076820 -0.094582
N2    N     N_1   0.500000 0.500000 0.923180 -0.099401
N3    N     N_3   0.178572 0.689427 0.813442 -0.597473
N4    N     N_3   0.794674 0.268639 0.785132 -0.605829
O1    O     O_R   0.500000 0.288390 0.642760 -0.497240
O2    O     O_R   0.500000 0.711610 0.642760 -0.489209
O3    O     O_R   0.500000 0.288370 0.357190 -0.497245
O4    O     O_R   0.500000 0.711630 0.357190 -0.498911
O5    O     O_R   0.319650 0.500000 0.642810 -0.475233
O6    O     O_R   0.680350 0.500000 0.642810 -0.489104
O7    O     O_R   0.319630 0.500000 0.357240 -0.516514
O8    O     O_R   0.680370 0.500000 0.357240 -0.520423

loop_
_geom_bond_atom_site_label_1
_geom_bond_atom_site_label_2
_ccdc_geom_bond_type
Cu1   Cu2   S    
C4    C16   A    
C11   O8    A    
C10   O5    A    
C5    H1    S    
Cu1   O6    S    
C12   N3    S    
C6    H2    S    
C14   C15   A    
C2    C12   A    
C2    C3    A    
Cu2   O8    S    
C1    O3    A    
C7    C8    T    
C3    C10   S    
C4    C11   S    
Cu2   O4    S    
C5    C6    A    
C10   O7    A    
H5    N3    S    
C14   H3    S    
C11   O6    A    
Cu2   O7    S    
C12   C14   A    
H8    N4    S    
C13   C15   A    
C9    O4    A    
Cu1   O1    S    
Cu2   O3    S    
C13   N4    S    
C1    O1    A    
C2    C16   A    
C4    C6    A    
C13   C16   A    
N1    N2    T    
Cu1   O2    S    
H6    N3    S    
H7    N4    S    
Cu1   O5    S    
C9    O2    A    
C1    C7    S    
Cu1   N2    S    
C15   H4    S    
Cu2   N1    S    
C8    C9    S    
C3    C5    A    
