data_mof_unit_42477.cif
_audit_creation_date              2012-12-11T21:14:45-0500
_audit_creation_method            fapswitch 2.2
_symmetry_space_group_name_H-M    P1
_symmetry_Int_Tables_number       1
_space_group_crystal_system       triclinic
_cell_length_a                    8.204348
_cell_length_b                    18.812847
_cell_length_c                    26.944371
_cell_angle_alpha                 99.721522
_cell_angle_beta                  92.548443
_cell_angle_gamma                 88.140015
_cell_volume                      4093.69825233

loop_
_atom_site_label
_atom_site_type_symbol
_atom_type_description
_atom_site_fract_x
_atom_site_fract_y
_atom_site_fract_z
_atom_type_partial_charge
Ba1   Ba    Ba6+2 0.160810 0.465630 0.521640 1.647232
Ba2   Ba    Ba6+2 0.649380 0.534380 0.478400 1.640719
C1    C     C_3   0.380913 0.299146 0.703108 -0.252275
C2    C     C_R   0.078471 0.094750 0.452147 0.031309
C3    C     C_R   0.226296 0.070842 0.429868 -0.084567
C4    C     C_3   0.949632 0.278815 0.622596 0.377038
C5    C     C_R   0.287238 0.000853 0.431113 -0.088308
C6    C     C_R   0.200335 0.952890 0.453978 0.032597
C7    C     C_R   0.052272 0.976220 0.476750 0.015199
C8    C     C_R   0.258549 0.881869 0.453682 -0.107969
C9    C     C_R   0.169237 0.832260 0.474802 -0.038782
C10   C     C_R   0.021967 0.855911 0.498885 -0.004582
C11   C     C_R   0.964598 0.928242 0.499872 -0.007454
C12   C     C_3   0.430085 0.311389 0.651551 0.843630
C13   C     C_R   0.221106 0.759303 0.471882 -0.007461
C14   C     C_R   0.124359 0.710914 0.490861 -0.294808
C15   C     C_R   0.983661 0.733525 0.517038 0.053287
C16   C     C_3   0.943012 0.204460 0.637338 -0.338983
C17   C     C_R   0.932055 0.807567 0.521981 -0.045081
C18   C     C_R   0.844738 0.071638 0.499241 -0.004741
C19   C     C_R   0.786663 0.143810 0.499917 -0.013428
C20   C     C_R   0.876988 0.192268 0.477099 -0.045571
C21   C     C_R   0.017730 0.165228 0.451114 -0.036563
C22   C     C_R   0.792444 0.834875 0.548457 -0.040267
C23   C     C_3   0.469416 0.313837 0.397156 0.307533
C24   C     C_R   0.731650 0.905339 0.547371 0.032533
C25   C     C_R   0.817738 0.952321 0.523063 0.007771
C26   C     C_R   0.757163 0.023676 0.522392 0.014994
C27   C     C_R   0.583934 0.929292 0.569693 -0.080623
C28   C     C_3   0.826473 0.633050 0.634645 0.299098
C29   C     C_R   0.522297 0.999067 0.568068 -0.086214
C30   C     C_R   0.608733 0.046896 0.544958 0.029527
C31   C     C_R   0.638400 0.167227 0.523469 -0.043551
C32   C     C_R   0.549461 0.117630 0.544713 -0.091017
C33   C     C_R   0.585032 0.239912 0.525653 0.047502
C34   C     C_3   0.476220 0.232532 0.380358 -0.392938
C35   C     C_R   0.680083 0.288131 0.505992 -0.298553
C36   C     C_R   0.824114 0.266088 0.481590 0.041551
C37   C     C_R   0.299962 0.447641 0.173522 0.587535
C38   C     C_R   0.169723 0.563922 0.174289 0.580777
C39   C     C_2   0.027421 0.523782 0.268523 -0.072334
C40   C     C_3   0.783897 0.665074 0.688439 -0.368280
C41   C     C_3   0.992225 0.518964 0.322703 -0.053159
C42   C     C_1   0.279796 0.491812 0.335873 0.013117
C43   C     C_2   0.314709 0.494046 0.288702 -0.095067
C44   C     C_2   0.181096 0.509698 0.251737 0.203629
C45   C     C_3   0.867899 0.721863 0.377283 0.354501
C46   C     C_R   0.297412 0.503029 0.097805 -0.079376
C47   C     C_R   0.343356 0.445342 0.123150 -0.031718
C48   C     C_R   0.433419 0.386753 0.097878 -0.061384
C49   C     C_R   0.208777 0.562416 0.123562 -0.030199
C50   C     C_2   0.147515 0.524561 0.355247 -0.287485
C51   C     C_2   0.653705 0.476818 0.639610 -0.215678
C52   C     C_3   0.979276 0.368520 0.365461 0.297883
C53   C     C_R   0.467105 0.438324 0.969662 0.020476
C54   C     C_R   0.345650 0.560472 0.971789 0.020151
C55   C     C_R   0.428685 0.498824 0.945599 0.049733
C56   C     C_3   0.874866 0.796094 0.362378 -0.367333
C57   C     C_R   0.543245 0.377108 0.941105 -0.099481
C58   C     C_R   0.585686 0.376401 0.891597 -0.061290
C59   C     C_R   0.553378 0.436407 0.867971 -0.035057
C60   C     C_R   0.474158 0.497675 0.894794 -0.077827
C61   C     C_R   0.440993 0.557854 0.870876 -0.030780
C62   C     C_R   0.487740 0.556150 0.820828 0.585171
C63   C     C_R   0.597354 0.435943 0.817804 0.579351
C64   C     C_3   0.014577 0.337890 0.310844 -0.365508
C65   C     C_2   0.760874 0.477844 0.727662 -0.025526
C66   C     C_3   0.804096 0.482500 0.674222 -0.058067
C67   C     C_3   0.353627 0.696003 0.349573 0.297775
C68   C     C_1   0.519785 0.510881 0.656750 0.025946
C69   C     C_2   0.479690 0.512150 0.704096 -0.103179
C70   C     C_2   0.606055 0.494012 0.742510 0.204088
C71   C     C_R   0.428105 0.440689 0.021075 0.020321
C72   C     C_R   0.340557 0.501443 0.046743 0.049360
C73   C     C_R   0.296357 0.560783 0.022014 0.020712
C74   C     C_R   0.475742 0.384543 0.048223 -0.100513
C75   C     C_R   0.161450 0.619355 0.098204 -0.061076
C76   C     C_3   0.331779 0.685476 0.591829 0.313005
C77   C     C_R   0.316255 0.620231 0.946718 -0.101229
C78   C     C_3   0.388294 0.709057 0.296990 -0.346788
C79   C     C_R   0.362774 0.618814 0.897532 -0.062516
C80   C     C_R   0.203421 0.618558 0.048644 -0.100415
C81   C     C_3   0.327101 0.766800 0.608949 -0.394387
C82   C     C_R   0.991978 0.047655 0.476234 0.008124
F1    F     F_    0.598172 0.310590 0.650735 -0.757033
H1    H     H_    0.381109 0.365122 0.646118 0.022620
H2    H     H_    0.206726 0.667174 0.581160 0.010336
H3    H     H_    0.410522 0.672619 0.558894 0.067774
H4    H     H_    0.246699 0.294082 0.703503 0.076846
H5    H     H_    0.450762 0.785279 0.622733 0.114696
H6    H     H_    0.417053 0.345718 0.732042 0.108423
H7    H     H_    0.595266 0.332404 0.407460 0.023235
H8    H     H_    0.392951 0.325883 0.430683 0.057754
H9    H     H_    0.556952 0.218359 0.347989 0.135217
H10   H     H_    0.524899 0.205661 0.411759 0.051945
H11   H     H_    0.351845 0.212793 0.368874 0.114515
H12   H     H_    0.693911 0.710402 0.688099 0.143625
H13   H     H_    0.441450 0.249228 0.712564 0.122680
H14   H     H_    0.831835 0.200705 0.658924 0.171871
H15   H     H_    0.763969 0.722086 0.402260 0.111564
H16   H     H_    0.983168 0.711190 0.397979 -0.048215
H17   H     H_    0.892557 0.837758 0.396557 0.075624
H18   H     H_    0.978218 0.797641 0.337227 0.123770
H19   H     H_    0.758630 0.808578 0.342397 0.137307
H20   H     H_    0.222451 0.708074 0.356217 -0.018125
H21   H     H_    0.382009 0.638349 0.351115 0.068823
H22   H     H_    0.313953 0.672707 0.268737 0.123398
H23   H     H_    0.729763 0.624233 0.707343 0.071776
H24   H     H_    0.519370 0.697895 0.289453 0.151493
H25   H     H_    0.062351 0.281118 0.601834 0.064328
H26   H     H_    0.357093 0.765889 0.293445 0.117863
H27   H     H_    0.295594 0.106461 0.411705 0.063542
H28   H     H_    0.401870 0.983998 0.413709 0.073065
H29   H     H_    0.163656 0.654897 0.487296 0.067307
H30   H     H_    0.372540 0.865628 0.435948 0.109101
H31   H     H_    0.084134 0.198742 0.430645 0.098400
H32   H     H_    0.726340 0.801443 0.569071 0.099304
H33   H     H_    0.515029 0.893840 0.588089 0.064110
H34   H     H_    0.895548 0.685463 0.710396 0.123544
H35   H     H_    0.407492 0.015865 0.585383 0.073355
H36   H     H_    0.434458 0.133514 0.561895 0.110126
H37   H     H_    0.841948 0.286268 0.597492 0.053045
H38   H     H_    0.638856 0.343795 0.508561 0.072556
H39   H     H_    0.438181 0.483088 0.276486 0.119981
H40   H     H_    0.473377 0.342174 0.116665 0.122145
H41   H     H_    0.856915 0.467593 0.754783 0.093469
H42   H     H_    0.644289 0.328015 0.871737 0.122547
H43   H     H_    0.569948 0.327852 0.955539 0.069371
H44   H     H_    0.549290 0.338265 0.032586 0.069467
H45   H     H_    0.092725 0.390014 0.385205 0.021556
H46   H     H_    0.926565 0.532006 0.242479 0.104710
H47   H     H_    0.091047 0.665299 0.116705 0.122083
H48   H     H_    0.259643 0.669937 0.964255 0.069854
H49   H     H_    0.939064 0.162470 0.602825 0.064794
H50   H     H_    0.336896 0.666227 0.880359 0.122366
H51   H     H_    0.356030 0.526762 0.715356 0.127400
H52   H     H_    0.158611 0.664148 0.032151 0.069098
H53   H     H_    0.149541 0.552750 0.393920 0.068104
H54   H     H_    0.655527 0.446170 0.601656 0.082716
H55   H     H_    0.053382 0.194315 0.660934 0.112604
H56   H     H_    0.884760 0.412189 0.366744 0.040123
H57   H     H_    0.714719 0.611087 0.613953 0.017530
H58   H     H_    0.920803 0.589592 0.635128 0.033396
H59   H     H_    0.240803 0.781398 0.639873 0.131961
H60   H     H_    0.286875 0.794728 0.577275 0.058172
H61   H     H_    0.101785 0.291184 0.309338 0.147755
H62   H     H_    0.069148 0.378786 0.292089 0.078424
H63   H     H_    0.899615 0.319622 0.289870 0.118788
N1    N     N_R   0.216046 0.507001 0.198904 -0.426174
N2    N     N_R   0.563515 0.495343 0.794578 -0.429494
O1    O     O_2   0.106080 0.324280 0.466820 -0.472253
O2    O     O_2   0.659711 0.561452 0.332128 -0.492781
O3    O     O_3   0.848153 0.669800 0.333678 -0.592599
O4    O     O_3   0.859130 0.413620 0.470620 -0.481354
O5    O     O_3   0.459240 0.537930 0.559910 -0.490732
O6    O     O_2   0.583120 0.462390 0.379940 -0.462175
O7    O     O_3   0.402222 0.346594 0.357518 -0.632740
O8    O     O_2   0.561211 0.756582 0.477923 -0.496031
O9    O     O_3   0.451406 0.741005 0.384867 -0.606146
O10   O     O_2   0.335879 0.396424 0.194693 -0.598847
O11   O     O_2   0.664691 0.382323 0.794655 -0.580026
O12   O     O_3   0.393359 0.652895 0.631901 -0.627696
O13   O     O_2   0.096316 0.616409 0.196714 -0.599608
O14   O     O_2   0.462651 0.609224 0.800805 -0.600196
O15   O     O_3   0.376230 0.370290 0.556910 -0.485756
O16   O     O_2   0.245608 0.243666 0.522871 -0.509562
O17   O     O_3   0.921026 0.312756 0.387183 -0.642953
O18   O     O_3   0.366549 0.256316 0.614674 -0.647007
O19   O     O_2   0.227190 0.537650 0.620070 -0.468968
O20   O     O_3   0.971110 0.406970 0.583250 -0.497318
O21   O     O_2   0.136347 0.441621 0.670228 -0.524790
O22   O     O_3   0.948444 0.331783 0.666158 -0.557466
O23   O     O_2   0.704230 0.675760 0.533200 -0.473162
O24   O     O_3   0.951180 0.586390 0.529420 -0.484952
O25   O     O_3   0.434080 0.629720 0.443130 -0.473202
O26   O     O_3   0.889455 0.687780 0.612836 -0.639989
O27   O     O_3   0.351080 0.462080 0.440130 -0.476750
O28   O     O_3   0.839200 0.593040 0.416790 -0.486712
P1    P     P_3+3 0.929380 0.335110 0.452880 0.977577
P2    P     P_3+3 0.398530 0.559060 0.613740 0.989910
P3    P     P_3+3 0.965818 0.416892 0.648778 0.989469
P4    P     P_3+3 0.880940 0.664900 0.547160 0.978215
P5    P     P_3+3 0.833809 0.584589 0.351052 0.974430
P6    P     P_3+3 0.393811 0.277092 0.554582 0.956157
P7    P     P_3+3 0.399873 0.440260 0.376752 0.960550
P8    P     P_3+3 0.416012 0.722681 0.444945 0.927361

loop_
_geom_bond_atom_site_label_1
_geom_bond_atom_site_label_2
_ccdc_geom_bond_type
C76   H2    S    
O17   P1    S    
C23   H8    S    
Ba2   O5    S    
C45   H16   S    
C53   C57   A    
C37   O10   D    
C4    H25   S    
C71   C72   A    
C34   H10   S    
C52   O17   S    
C62   O14   D    
O24   P4    S    
C55   C60   A    
C4    O22   S    
C43   C44   S    
C42   C43   D    
O26   P4    S    
C78   H22   S    
C22   H32   S    
C35   C36   A    
C54   C77   A    
C61   C79   A    
O9    P8    S    
C33   C35   A    
O7    P7    S    
C65   C70   D    
C80   H52   S    
Ba2   O23   S    
C81   H59   S    
Ba1   P2    S    
C41   C50   S    
C19   C31   A    
C13   C14   A    
C20   C36   A    
Ba1   O20   S    
O27   P7    S    
C54   C55   A    
C10   C17   A    
C1    H6    S    
Ba1   Ba2   S    
Ba2   P4    S    
Ba1   O19   S    
C63   N2    Am   
Ba1   O5    S    
C51   C66   S    
C7    C11   A    
C67   O9    S    
C21   H31   S    
C81   H60   S    
Ba1   O27   S    
C15   P4    S    
C46   C49   A    
O3    P5    S    
C14   C15   A    
O18   P6    S    
C78   H24   S    
C50   H53   S    
C39   C44   D    
Ba1   O1    S    
C68   C69   D    
C56   H17   S    
Ba2   O27   S    
O19   P2    D    
O12   P2    S    
O28   P5    S    
C42   P7    S    
C42   C50   D    
C57   C58   A    
Ba2   O4    S    
C54   C73   A    
C35   H38   S    
C19   C20   A    
C39   C41   S    
C59   C60   A    
O22   P3    S    
C9    C13   A    
C77   H48   S    
C51   C68   D    
O8    P8    D    
C28   O26   S    
C79   H50   S    
C43   H39   S    
C52   H45   S    
C13   P8    S    
C4    C16   S    
C72   C73   A    
C65   C66   S    
C46   C72   A    
C26   C30   A    
O16   P6    D    
C12   H1    S    
C38   O13   D    
C40   H12   S    
C69   H51   S    
C3    C5    A    
C2    C21   A    
C67   H20   S    
C6    C7    A    
C18   C26   A    
C57   H43   S    
O6    P7    D    
C28   H58   S    
C62   N2    Am   
C58   C59   A    
C75   H47   S    
C30   C32   A    
C49   C75   A    
C60   C61   A    
C48   C74   A    
Ba2   O25   S    
C74   H44   S    
C34   H11   S    
O1    P1    D    
C29   C30   A    
C2    C82   A    
Ba1   O15   S    
C9    C10   A    
C52   H56   S    
C31   C32   A    
C24   C25   A    
C48   H40   S    
C18   C19   A    
O2    P5    D    
C16   H55   S    
C64   H62   S    
C1    C12   S    
C46   C47   A    
C37   C47   A    
O23   P4    D    
C76   O12   S    
C32   H36   S    
C70   N2    S    
C18   C82   A    
O20   P3    S    
C23   O7    S    
C71   C74   A    
C65   H41   S    
C56   H19   S    
C16   H14   S    
C4    H37   S    
C12   O18   S    
O5    P2    S    
C39   H46   S    
C76   H3    S    
C81   H5    S    
C23   H7    S    
Ba2   O6    S    
C36   P1    S    
C23   C34   S    
C51   H54   S    
O15   P6    S    
C64   H63   S    
O21   P3    D    
C58   H42   S    
C28   C40   S    
C12   F1    S    
C22   C24   A    
C2    C3    A    
C14   H29   S    
C76   C81   S    
C67   H21   S    
C73   C80   A    
C52   C64   S    
C3    H27   S    
C38   C49   A    
C45   O3    S    
C27   H33   S    
C37   N1    Am   
C77   C79   A    
C28   H57   S    
C1    H4    S    
C5    H28   S    
C53   C55   A    
C17   C22   A    
C33   P6    S    
Ba1   O24   S    
C27   C29   A    
Ba2   O24   S    
C45   C56   S    
Ba1   P1    S    
C1    H13   S    
C68   P2    S    
C75   C80   A    
C34   H9    S    
C78   H26   S    
C41   P5    S    
C31   C33   A    
C38   N1    Am   
C16   H49   S    
C66   P3    S    
Ba1   O4    S    
C40   H34   S    
C29   H35   S    
C64   H61   S    
C5    C6    A    
C8    C9    A    
C45   H15   S    
C7    C82   A    
C61   C62   A    
C53   C71   A    
C15   C17   A    
C59   C63   A    
C69   C70   S    
C44   N1    S    
C10   C11   A    
C24   C27   A    
C6    C8    A    
C47   C48   A    
C63   O11   D    
C25   C26   A    
C20   C21   A    
C11   C25   A    
C67   C78   S    
C56   H18   S    
Ba2   O28   S    
O4    P1    S    
C40   H23   S    
C8    H30   S    
O25   P8    S    
