data_mof_unit_37174.cif
_audit_creation_date              2012-10-26T19:22:59-0400
_audit_creation_method            fapswitch 2.2
_symmetry_space_group_name_H-M    P1
_symmetry_Int_Tables_number       1
_space_group_crystal_system       triclinic
_cell_length_a                    17.249778
_cell_length_b                    12.989072
_cell_length_c                    11.776171
_cell_angle_alpha                 100.933489
_cell_angle_beta                  91.20586
_cell_angle_gamma                 91.904984
_cell_volume                      2588.21993036

loop_
_atom_site_label
_atom_site_type_symbol
_atom_type_description
_atom_site_fract_x
_atom_site_fract_y
_atom_site_fract_z
_atom_type_partial_charge
C1    C     C_R   0.501278 0.299343 0.477484 0.581964
C2    C     C_R   0.540414 0.866799 0.466254 -0.003578
C3    C     C_R   0.476591 0.029313 0.542767 0.042123
C4    C     C_R   0.523287 0.970675 0.457196 0.041942
C5    C     C_R   0.413455 0.421165 0.026938 0.007230
C6    C     C_R   0.586536 0.578847 0.973064 0.008074
C7    C     C_R   0.424109 0.423344 0.147870 0.129187
C8    C     C_R   0.575894 0.576647 0.852127 0.132461
C9    C     C_R   0.538502 0.530607 0.154336 0.069355
C10   C     C_R   0.461490 0.469406 0.845665 0.069136
C11   C     C_R   0.531632 0.527727 0.032297 -0.010067
C12   C     C_R   0.498706 0.700654 0.522514 0.581349
C13   C     C_R   0.468358 0.472287 0.967705 -0.009877
C14   C     C_R   0.350740 0.502657 0.514192 0.567561
C15   C     C_R   0.649243 0.496889 0.485769 0.564078
C16   C     C_R   0.266699 0.512174 0.520605 0.031267
C17   C     C_R   0.733062 0.484740 0.479206 0.030035
C18   C     C_R   0.225299 0.540190 0.428046 -0.109810
C19   C     C_R   0.773596 0.455480 0.571821 -0.120967
C20   C     C_R   0.145700 0.550609 0.433215 -0.067174
C21   C     C_R   0.852731 0.441091 0.566102 -0.140473
C22   C     C_R   0.106304 0.532007 0.530241 0.149468
C23   C     C_R   0.494796 0.814725 0.536978 0.014923
C24   C     C_R   0.892635 0.456816 0.468430 -0.011322
C25   C     C_R   0.147115 0.505272 0.624972 0.057102
C26   C     C_R   0.852734 0.485141 0.373810 0.005193
C27   C     C_R   0.227652 0.496098 0.619461 -0.075329
C28   C     C_R   0.772564 0.498256 0.379827 -0.080369
C29   C     C_2   0.021402 0.535274 0.527324 -0.004459
C30   C     C_2   0.977326 0.450989 0.471672 -0.044955
C31   C     C_3   0.633588 0.642938 0.798844 -0.327271
C32   C     C_3   0.366444 0.356992 0.201127 -0.322398
C33   C     C_2   0.343496 0.365565 0.964747 0.178824
C34   C     C_R   0.505137 0.185265 0.463005 0.015220
C35   C     C_2   0.656485 0.634463 0.035263 0.176686
C36   C     C_2   0.008332 0.348549 0.414858 0.221780
C37   C     C_2   0.986751 0.635661 0.582499 0.200721
C38   C     C_3   0.105397 0.484122 0.729732 -0.378249
C39   C     C_3   0.895058 0.503570 0.268492 -0.395283
C40   C     C_3   0.613836 0.816068 0.417288 -0.334001
C41   C     C_3   0.386104 0.184000 0.582722 -0.329512
C42   C     C_2   0.401650 0.819255 0.700807 0.236066
C43   C     C_2   0.598173 0.180653 0.299024 0.229578
C44   C     C_2   0.576450 0.954225 0.255058 0.222469
C45   C     C_R   0.552133 0.018073 0.366258 -0.023708
C46   C     C_2   0.423347 0.045702 0.744854 0.222023
C47   C     C_R   0.447714 0.981886 0.633670 -0.023280
C48   C     C_R   0.551706 0.127799 0.377947 -0.039095
C49   C     C_R   0.448165 0.872156 0.621971 -0.040031
C50   C     C_R   0.459504 0.133213 0.533737 -0.005734
Cu1   Cu    Cu3+1 0.505800 0.507690 0.615350 0.977043
Cu2   Cu    Cu3+1 0.494200 0.492310 0.384650 0.978796
H1    H     H_    0.254451 0.554620 0.351697 0.131294
H2    H     H_    0.690138 0.604242 0.789497 0.091437
H3    H     H_    0.615979 0.661234 0.716041 0.187515
H4    H     H_    0.357707 0.278374 0.144828 0.124913
H5    H     H_    0.384014 0.338776 0.283981 0.189369
H6    H     H_    0.309852 0.395585 0.210364 0.100533
H7    H     H_    0.286280 0.383994 0.997555 0.103794
H8    H     H_    0.713706 0.616038 0.002471 0.100434
H9    H     H_    0.968419 0.288506 0.367307 0.127198
H10   H     H_    0.924546 0.645101 0.580800 0.122417
H11   H     H_    0.075036 0.555155 0.770657 0.161254
H12   H     H_    0.744094 0.442945 0.648614 0.136198
H13   H     H_    0.062212 0.418082 0.703644 0.144684
H14   H     H_    0.146120 0.462966 0.795215 0.124627
H15   H     H_    0.939866 0.567671 0.293838 0.137983
H16   H     H_    0.923536 0.430836 0.227860 0.137973
H17   H     H_    0.855047 0.526203 0.203033 0.131532
H18   H     H_    0.641232 0.773556 0.480200 0.092162
H19   H     H_    0.600352 0.759272 0.335934 0.221392
H20   H     H_    0.658450 0.875243 0.402474 0.135405
H21   H     H_    0.358739 0.226577 0.519846 0.101916
H22   H     H_    0.341454 0.124853 0.597490 0.142494
H23   H     H_    0.741188 0.520394 0.307981 0.128043
H24   H     H_    0.399608 0.240751 0.664101 0.220017
H25   H     H_    0.401751 0.850988 0.792883 0.107827
H26   H     H_    0.597954 0.148947 0.206934 0.106892
H27   H     H_    0.627636 0.977020 0.212484 0.111403
H28   H     H_    0.372120 0.022917 0.787335 0.117122
H29   H     H_    0.259685 0.474818 0.691219 0.125731
H30   H     H_    0.883469 0.419866 0.639012 0.117472
H31   H     H_    0.114289 0.571054 0.360452 0.109085
H32   H     H_    0.413620 0.427663 0.794766 0.166137
H33   H     H_    0.586370 0.572354 0.205236 0.165686
H34   H     H_    0.642419 0.721531 0.855165 0.122045
N1    N     N_R   0.514530 0.519260 0.788680 -0.236577
N2    N     N_R   0.485470 0.480740 0.211320 -0.236552
O1    O     O_R   0.504120 0.354440 0.581590 -0.495513
O2    O     O_2   0.650387 0.705082 0.118804 -0.509623
O3    O     O_2   0.076777 0.328692 0.421058 -0.509582
O4    O     O_2   0.028131 0.709947 0.630638 -0.488416
O5    O     O_2   0.360691 0.741435 0.662675 -0.478605
O6    O     O_2   0.639225 0.258396 0.337090 -0.485784
O7    O     O_2   0.537489 0.877014 0.208283 -0.454025
O8    O     O_2   0.462315 0.122874 0.791722 -0.456282
O9    O     O_R   0.495880 0.645560 0.418410 -0.494529
O10   O     O_R   0.494320 0.341440 0.386760 -0.496429
O11   O     O_R   0.505680 0.658560 0.613240 -0.497665
O12   O     O_R   0.391870 0.507230 0.608700 -0.491282
O13   O     O_R   0.608130 0.492770 0.391300 -0.491123
O14   O     O_R   0.382070 0.494240 0.413880 -0.529491
O15   O     O_R   0.617930 0.505760 0.586120 -0.530895
O16   O     O_2   0.349578 0.294961 0.881188 -0.506322

loop_
_geom_bond_atom_site_label_1
_geom_bond_atom_site_label_2
_ccdc_geom_bond_type
C40   H19   S    
C33   O16   D    
C39   H16   S    
C32   H6    S    
C37   H10   S    
C47   C49   A    
C43   H26   S    
C12   C23   S    
Cu2   O14   S    
C40   H18   S    
C22   C29   S    
C24   C26   A    
C9    N2    A    
C26   C39   S    
C14   O14   A    
Cu1   O15   S    
C42   O5    D    
Cu2   O9    S    
C43   O6    D    
C6    C35   S    
C10   H32   S    
C12   O11   A    
C18   H1    S    
C9    H33   S    
C41   H22   S    
C38   H14   S    
C22   C25   A    
C5    C33   S    
C3    C47   A    
C43   C48   S    
C5    C13   A    
C16   C27   A    
C33   H7    S    
C31   H34   S    
C17   C28   A    
C32   H5    S    
C3    C50   A    
C1    C34   S    
C4    C45   A    
Cu1   O11   S    
C10   N1    A    
Cu2   O13   S    
C34   C50   A    
Cu1   Cu2   S    
C27   H29   S    
Cu1   N1    S    
C6    C11   A    
C5    C7    A    
C6    C8    A    
C35   H8    S    
C2    C4    A    
C29   C30   D    
C25   C38   S    
C7    N2    A    
C38   H13   S    
Cu2   N2    S    
C19   H12   S    
C39   H17   S    
C15   O13   A    
C9    C11   A    
C12   O9    A    
C36   O3    D    
C20   C22   A    
C14   C16   S    
C20   H31   S    
C34   C48   A    
C36   H9    S    
C41   C50   S    
C44   C45   S    
C38   H11   S    
C45   C48   A    
Cu1   O12   S    
C15   C17   S    
C46   C47   S    
C1    O1    A    
C7    C32   S    
C40   H20   S    
C37   O4    D    
C19   C21   A    
C8    C31   S    
C39   H15   S    
C44   H27   S    
C10   C13   A    
C1    O10   A    
C14   O12   A    
C25   C27   A    
C26   C28   A    
C30   C36   S    
C8    N1    A    
C15   O15   A    
C44   O7    D    
Cu1   O1    S    
C41   H24   S    
C46   H28   S    
C11   C13   A    
Cu2   O10   S    
C17   C19   A    
C18   C20   A    
C31   H2    S    
C24   C30   S    
C23   C49   A    
C42   C49   S    
C41   H21   S    
C35   O2    D    
C2    C40   S    
C46   O8    D    
C21   H30   S    
C42   H25   S    
C16   C18   A    
C21   C24   A    
C29   C37   S    
C2    C23   A    
C31   H3    S    
C28   H23   S    
C32   H4    S    
C3    C4    A    
