data_mof_unit_47343.cif
_audit_creation_date              2012-12-10T20:51:41-0500
_audit_creation_method            fapswitch 2.2
_symmetry_space_group_name_H-M    P1
_symmetry_Int_Tables_number       1
_space_group_crystal_system       triclinic
_cell_length_a                    8.091936
_cell_length_b                    8.935776
_cell_length_c                    16.984087
_cell_angle_alpha                 89.509779
_cell_angle_beta                  92.449528
_cell_angle_gamma                 90.016379
_cell_volume                      1226.91367303

loop_
_atom_site_label
_atom_site_type_symbol
_atom_type_description
_atom_site_fract_x
_atom_site_fract_y
_atom_site_fract_z
_atom_type_partial_charge
C1    C     C_R   0.499964 0.217935 0.500023 0.937318
C2    C     C_R   0.500036 0.782065 0.499976 0.937334
C3    C     C_R   0.517767 0.501584 0.653435 0.887990
C4    C     C_R   0.482230 0.498382 0.346569 0.888012
C5    C     C_R   0.519551 0.496618 0.739035 -0.148231
C6    C     C_R   0.480428 0.503108 0.260970 -0.148187
C7    C     C_R   0.381300 0.545907 0.780113 -0.074613
C8    C     C_R   0.618546 0.453429 0.219920 -0.074648
C9    C     C_R   0.377107 0.520063 0.861152 0.051259
C10   C     C_R   0.622722 0.478952 0.138851 0.051303
C11   C     C_R   0.515480 0.455407 0.901470 0.264052
C12   C     C_R   0.484449 0.543721 0.098497 0.264018
C13   C     C_R   0.652996 0.408415 0.860576 0.054927
C14   C     C_R   0.347054 0.591082 0.139371 0.054981
C15   C     C_R   0.654297 0.429269 0.779663 -0.214211
C16   C     C_R   0.345775 0.570518 0.220303 -0.214248
C17   C     C_1   0.499968 0.065173 0.500007 -0.182770
C18   C     C_1   0.500032 0.934827 0.499993 -0.182791
H1    H     H_    0.759767 0.390182 0.748350 0.186701
H2    H     H_    0.240406 0.609885 0.251597 0.186658
N1    N     N_1   0.073640 0.500030 0.499990 -0.024087
N2    N     N_1   0.926360 0.499970 0.500010 -0.024083
N3    N     N_2   0.520345 0.440574 0.983764 -0.161994
N4    N     N_2   0.479615 0.558489 0.016199 -0.162115
O1    O     O_R   0.636850 0.285340 0.500000 -0.614258
O2    O     O_R   0.363150 0.714660 0.500000 -0.614269
O3    O     O_R   0.363100 0.285350 0.500000 -0.614158
O4    O     O_R   0.636900 0.714650 0.500000 -0.614144
O5    O     O_R   0.652140 0.498630 0.616140 -0.620909
O6    O     O_R   0.347860 0.501370 0.383860 -0.620919
O7    O     O_R   0.378390 0.498650 0.616130 -0.613451
O8    O     O_R   0.621610 0.501350 0.383870 -0.613452
Zn1   Zn    Zn3+2 0.682780 0.499990 0.500010 1.007967
Zn2   Zn    Zn3+2 0.317220 0.500010 0.499990 1.007954
C19   C     C_1   0.755478 0.373985 0.259228 0.194190
N5    N     N_1   0.864854 0.310584 0.290415 -0.191170
C20   C     C_1   0.244234 0.625268 0.740869 0.194243
N6    N     N_1   0.134744 0.688600 0.709736 -0.191207
N7    N     N_3   0.767431 0.442431 0.096723 -0.458697
H3    H     H_    0.789893 0.327572 0.102634 0.190222
H4    H     H_    0.868436 0.500275 0.122016 0.197429
N8    N     N_3   0.232301 0.556179 0.903299 -0.458701
H5    H     H_    0.209620 0.671021 0.897502 0.190156
H6    H     H_    0.131429 0.498269 0.877927 0.197535
N9    N     N_3   0.793851 0.341190 0.900667 -0.461329
H7    H     H_    0.843578 0.418291 0.941088 0.208269
H8    H     H_    0.753893 0.247607 0.931959 0.199600
N10   N     N_3   0.206301 0.658415 0.099245 -0.461252
H9    H     H_    0.156375 0.581256 0.058908 0.208214
H10   H     H_    0.246417 0.751821 0.067857 0.199562

loop_
_geom_bond_atom_site_label_1
_geom_bond_atom_site_label_2
_ccdc_geom_bond_type
C3    O7    A    
N3    N4    D    
C1    O1    A    
C7    C9    A    
C20   N6    T    
C2    C18   S    
C9    C11   A    
C12   N4    S    
C1    C17   S    
C19   N5    T    
C16   H2    S    
O8    Zn1   S    
N10   H10   S    
C17   C18   T    
C7    C20   S    
O7    Zn2   S    
C2    O2    A    
N1    N2    T    
C15   H1    S    
C11   C13   A    
C3    O5    A    
C9    N8    S    
C4    O8    A    
N8    H6    S    
C6    C8    A    
C10   C12   A    
C11   N3    S    
N10   H9    S    
C12   C14   A    
O4    Zn1   S    
C5    C7    A    
C13   C15   A    
O3    Zn2   S    
C14   C16   A    
C5    C15   A    
C4    C6    S    
N8    H5    S    
O6    Zn2   S    
C6    C16   A    
O5    Zn1   S    
C13   N9    S    
N7    H4    S    
N9    H8    S    
N7    H3    S    
C1    O3    A    
N2    Zn1   S    
C14   N10   S    
C2    O4    A    
N1    Zn2   S    
N9    H7    S    
O2    Zn2   S    
C8    C10   A    
C4    O6    A    
O1    Zn1   S    
C10   N7    S    
C3    C5    S    
C8    C19   S    
