data_mof_unit_59816.cif
_audit_creation_date              2012-12-11T14:39:34-0500
_audit_creation_method            fapswitch 2.2
_symmetry_space_group_name_H-M    P1
_symmetry_Int_Tables_number       1
_space_group_crystal_system       triclinic
_cell_length_a                    7.217861
_cell_length_b                    14.096351
_cell_length_c                    16.306687
_cell_angle_alpha                 90.0
_cell_angle_beta                  97.316137
_cell_angle_gamma                 89.999929
_cell_volume                      1645.62442612

loop_
_atom_site_label
_atom_site_type_symbol
_atom_type_description
_atom_site_fract_x
_atom_site_fract_y
_atom_site_fract_z
_atom_type_partial_charge
O1    O     O_R   0.525340 0.338340 0.164530 -0.541068
O2    O     O_R   0.474660 0.661660 0.835470 -0.541067
O3    O     O_R   0.974660 0.838340 0.835470 -0.541067
O4    O     O_R   0.025340 0.161660 0.164530 -0.541068
O5    O     O_R   0.253520 0.352000 0.336710 -0.544254
O6    O     O_R   0.746480 0.648000 0.663290 -0.544254
O7    O     O_R   0.246480 0.852000 0.663290 -0.544253
O8    O     O_R   0.753520 0.148000 0.336710 -0.544253
O9    O     O_R   0.083330 0.168380 0.337300 -0.534613
O10   O     O_R   0.916670 0.831620 0.662700 -0.534613
O11   O     O_R   0.416670 0.668380 0.662700 -0.534613
O12   O     O_R   0.583330 0.331620 0.337300 -0.534613
C1    C     C_R   0.432283 0.368720 0.363675 0.683018
C2    C     C_R   0.567717 0.631280 0.636325 0.683018
C3    C     C_R   0.067717 0.868720 0.636325 0.683018
C4    C     C_R   0.932283 0.131280 0.363675 0.683018
O13   O     O_R   0.195840 0.349670 0.165140 -0.539594
O14   O     O_R   0.804160 0.650330 0.834860 -0.539594
O15   O     O_R   0.304160 0.849670 0.834860 -0.539594
O16   O     O_R   0.695840 0.150330 0.165140 -0.539594
C5    C     C_R   0.357232 0.371992 0.137707 0.742924
C6    C     C_R   0.642768 0.628008 0.862293 0.742924
C7    C     C_R   0.142768 0.871992 0.862293 0.742923
C8    C     C_R   0.857232 0.128008 0.137707 0.742923
O17   O     O_3   0.387830 0.193120 0.250910 -0.375865
O18   O     O_3   0.612170 0.806880 0.749090 -0.375865
O19   O     O_3   0.112170 0.693120 0.749090 -0.375865
O20   O     O_3   0.887830 0.306880 0.250910 -0.375865
V1    V     V_3+5 0.113010 0.264540 0.250910 1.442398
V2    V     V_3+5 0.886990 0.735460 0.749090 1.442398
V3    V     V_3+5 0.386990 0.764540 0.749090 1.442399
V4    V     V_3+5 0.613010 0.235460 0.250910 1.442399
C9    C     C_R   0.078326 0.195521 0.526907 -0.265288
C10   C     C_R   0.921674 0.804479 0.473093 -0.265288
C11   C     C_R   0.421667 0.695521 0.473094 -0.265279
C12   C     C_R   0.578333 0.304479 0.526906 -0.265279
C13   C     C_R   0.148530 0.228377 0.605297 -0.197807
C14   C     C_R   0.851470 0.771623 0.394703 -0.197807
C15   C     C_R   0.351452 0.728377 0.394705 -0.197808
C16   C     C_R   0.648548 0.271623 0.605295 -0.197808
C17   C     C_R   0.180588 0.165385 0.671116 0.718319
C18   C     C_R   0.819412 0.834615 0.328883 0.718319
C19   C     C_R   0.319384 0.665385 0.328886 0.718302
C20   C     C_R   0.680616 0.334615 0.671114 0.718302
C21   C     C_R   0.142497 0.069086 0.658912 -0.236786
C22   C     C_R   0.857503 0.930914 0.341088 -0.236786
C23   C     C_R   0.357480 0.569085 0.341090 -0.236785
C24   C     C_R   0.642520 0.430915 0.658910 -0.236785
C25   C     C_R   0.072806 0.033575 0.579713 -0.029176
C26   C     C_R   0.927194 0.966425 0.420287 -0.029176
C27   C     C_R   0.427185 0.533575 0.420288 -0.029172
C28   C     C_R   0.572815 0.466425 0.579712 -0.029172
C29   C     C_R   0.040163 0.097889 0.512495 0.061384
C30   C     C_R   0.959837 0.902111 0.487505 0.061384
C31   C     C_R   0.459832 0.597889 0.487506 0.061385
C32   C     C_R   0.540168 0.402111 0.512494 0.061385
C33   C     C_R   0.032490 0.935933 0.566993 -0.105567
C34   C     C_R   0.967510 0.064067 0.433007 -0.105567
C35   C     C_R   0.467508 0.435933 0.433007 -0.105571
C36   C     C_R   0.532492 0.564067 0.566993 -0.105571
H1    H     H_    0.053329 0.247726 0.478144 0.150714
H2    H     H_    0.946671 0.752273 0.521856 0.150714
H3    H     H_    0.446670 0.747727 0.521856 0.150713
H4    H     H_    0.553330 0.252273 0.478144 0.150713
H5    H     H_    0.177287 0.303215 0.614992 0.155864
H6    H     H_    0.822713 0.696785 0.385008 0.155864
H7    H     H_    0.322692 0.803215 0.385010 0.155862
H8    H     H_    0.677308 0.196784 0.614990 0.155862
H9    H     H_    0.167230 0.023063 0.712271 0.133574
H10   H     H_    0.832770 0.976937 0.287729 0.133574
H11   H     H_    0.332739 0.523062 0.287731 0.133579
H12   H     H_    0.667261 0.476938 0.712268 0.133579
H13   H     H_    0.138019 0.066468 0.056319 0.157261
H14   H     H_    0.861981 0.933531 0.943681 0.157261
H15   H     H_    0.361981 0.566467 0.943680 0.157262
H16   H     H_    0.638019 0.433532 0.056320 0.157262
C37   C     C_2   0.149863 0.942092 0.930499 -0.281263
C38   C     C_2   0.850137 0.057907 0.069501 -0.281263
C39   C     C_2   0.350137 0.442092 0.069501 -0.281264
C40   C     C_2   0.649863 0.557908 0.930499 -0.281264
C41   C     C_2   0.996128 0.965590 0.965551 -0.087148
C42   C     C_2   0.003871 0.034410 0.034449 -0.087148
C43   C     C_2   0.503872 0.465590 0.034449 -0.087150
C44   C     C_2   0.496128 0.534409 0.965551 -0.087150
H17   H     H_    0.716384 0.025905 0.046835 0.138712
H18   H     H_    0.283615 0.974095 0.953165 0.138712
H19   H     H_    0.783616 0.525906 0.953166 0.138713
H20   H     H_    0.216384 0.474094 0.046834 0.138713
F1    F     F_    0.752103 0.802193 0.252590 -0.645737
F2    F     F_    0.247897 0.197807 0.747410 -0.645737
F3    F     F_    0.747942 0.302194 0.747406 -0.645738
F4    F     F_    0.252057 0.697806 0.252594 -0.645738

loop_
_geom_bond_atom_site_label_1
_geom_bond_atom_site_label_2
_ccdc_geom_bond_type
O1    C5    A    
O13   V1    S    
O3    C7    A    
C40   C44   D    
O15   V3    S    
C41   C42   S    
C26   C30   A    
O20   V1    S    
O9    C4    A    
C14   C18   A    
C40   H19   S    
O10   C3    A    
O4    C8    A    
O11   C2    A    
H15   C44   S    
C10   H2    S    
C25   C33   A    
C18   C22   A    
O10   V2    S    
C28   C36   A    
C14   H6    S    
C13   H5    S    
O2    C6    A    
O14   V2    S    
C37   C41   D    
O5    C1    A    
O4    V1    S    
O9    V1    S    
O17   V4    S    
O7    C3    A    
C17   F2    S    
O11   V3    S    
O18   V3    S    
O8    C4    A    
C10   C14   A    
C31   C36   A    
O12   V4    S    
O19   V2    S    
C3    C33   S    
C24   H12   S    
H16   C43   S    
C39   H20   S    
O5    V1    S    
C9    C29   A    
O7    V3    S    
C21   H9    S    
C26   C34   A    
O16   C8    A    
C12   C16   A    
C24   C28   A    
O15   C7    A    
C23   C27   A    
C11   C31   A    
O1    V4    S    
O13   C5    A    
O2    V3    S    
O8    V4    S    
O3    V2    S    
C11   C15   A    
C12   C32   A    
O6    C2    A    
C38   C42   D    
C43   C44   S    
C21   C25   A    
C5    C39   S    
C4    C34   S    
C7    C37   S    
C23   H11   S    
C20   F3    S    
C38   H17   S    
C8    C38   S    
O6    V2    S    
C37   H18   S    
C10   C30   A    
C27   C35   A    
H14   C41   S    
H13   C42   S    
O16   V4    S    
O14   C6    A    
C15   H7    S    
C15   C19   A    
C29   C34   A    
C1    C35   S    
C2    C36   S    
C22   C26   A    
C19   F4    S    
C32   C35   A    
C18   F1    S    
C6    C40   S    
C39   C43   D    
C25   C29   A    
C27   C31   A    
C13   C17   A    
C9    C13   A    
C22   H10   S    
C28   C32   A    
C16   C20   A    
O12   C1    A    
C9    H1    S    
C16   H8    S    
C17   C21   A    
C11   H3    S    
C12   H4    S    
C19   C23   A    
C20   C24   A    
C30   C33   A    
