data_mof_unit_41506.cif
_audit_creation_date              2012-12-10T17:29:19-0500
_audit_creation_method            fapswitch 2.2
_symmetry_space_group_name_H-M    P1
_symmetry_Int_Tables_number       1
_space_group_crystal_system       triclinic
_cell_length_a                    18.351897
_cell_length_b                    18.35379
_cell_length_c                    51.315119
_cell_angle_alpha                 89.996812
_cell_angle_beta                  89.986784
_cell_angle_gamma                 90.109195
_cell_volume                      17284.2787137

loop_
_atom_site_label
_atom_site_type_symbol
_atom_type_description
_atom_site_fract_x
_atom_site_fract_y
_atom_site_fract_z
_atom_type_partial_charge
C1    C     C_R   0.000022 0.500169 0.179959 0.504176
C2    C     C_R   0.373126 0.049484 0.986069 -0.126862
C3    C     C_R   0.627496 0.264952 0.283262 -0.094944
C4    C     C_R   0.715643 0.608517 0.731265 -0.087766
C5    C     C_R   0.284293 0.391539 0.268663 -0.087962
C6    C     C_R   0.627961 0.264556 0.716502 -0.095373
C7    C     C_R   0.272928 0.834478 0.204354 -0.096591
C8    C     C_R   0.764735 0.127741 0.783353 -0.094251
C9    C     C_R   0.334576 0.772779 0.295627 -0.096317
C10   C     C_R   0.891423 0.784162 0.768805 -0.087620
C11   C     C_R   0.108396 0.215518 0.231412 -0.087561
C12   C     C_R   0.336190 0.771098 0.704665 -0.096721
C13   C     C_R   0.950337 0.626870 0.013950 -0.126857
C14   C     C_R   0.765025 0.127511 0.216761 -0.094631
C15   C     C_R   0.108476 0.215628 0.768710 -0.087362
C16   C     C_R   0.891548 0.784258 0.231307 -0.087779
C17   C     C_R   0.784506 0.891588 0.231398 -0.087461
C18   C     C_R   0.215795 0.108571 0.768795 -0.087977
C19   C     C_R   0.872540 0.235010 0.216766 -0.094201
C20   C     C_R   0.228944 0.663631 0.704723 -0.096211
C21   C     C_R   0.215720 0.108469 0.231327 -0.087660
C22   C     C_R   0.784378 0.891494 0.768706 -0.087732
C23   C     C_R   0.227174 0.665502 0.295646 -0.097295
C24   C     C_R   0.054898 0.384165 0.986445 -0.126598
C25   C     C_R   0.872216 0.235272 0.783368 -0.094625
C26   C     C_R   0.177886 0.768670 0.182046 -0.127036
C27   C     C_R   0.675407 0.378236 0.700041 -0.126568
C28   C     C_R   0.407626 0.354289 0.277605 -0.115848
C29   C     C_R   0.592532 0.646108 0.722090 -0.115512
C30   C     C_R   0.674696 0.378842 0.299609 -0.124914
C31   C     C_R   0.175873 0.770522 0.817625 -0.128134
C32   C     C_R   0.592313 0.645949 0.277702 -0.115102
C33   C     C_R   0.407481 0.354088 0.722156 -0.115828
C34   C     C_R   0.353946 0.407467 0.722096 -0.115472
C35   C     C_R   0.372968 0.049637 0.013304 -0.126503
C36   C     C_R   0.645679 0.592406 0.277633 -0.115647
C37   C     C_R   0.229407 0.824094 0.817616 -0.126990
C38   C     C_R   0.621099 0.325231 0.299613 -0.125298
C39   C     C_R   0.645909 0.592572 0.722154 -0.116251
C40   C     C_R   0.354090 0.407662 0.277667 -0.115080
C41   C     C_R   0.621791 0.324641 0.700045 -0.126021
C42   C     C_R   0.231411 0.822239 0.182052 -0.128112
C43   C     C_R   0.824932 0.121437 0.799746 -0.122834
C44   C     C_R   0.322408 0.731164 0.317917 -0.128079
C45   C     C_R   0.907494 0.853904 0.777873 -0.114511
C46   C     C_R   0.616483 0.945812 0.986309 -0.126674
C47   C     C_R   0.092386 0.145715 0.222386 -0.115081
C48   C     C_R   0.325179 0.728236 0.682602 -0.129734
C49   C     C_R   0.825347 0.121111 0.200423 -0.124054
C50   C     C_R   0.092502 0.145878 0.777801 -0.115241
C51   C     C_R   0.907682 0.854045 0.222295 -0.114387
C52   C     C_R   0.854316 0.907587 0.222362 -0.115285
C53   C     C_R   0.146037 0.092503 0.777864 -0.114501
C54   C     C_R   0.878957 0.174710 0.200426 -0.122840
C55   C     C_R   0.271677 0.674645 0.682632 -0.131306
C56   C     C_R   0.145925 0.092347 0.222321 -0.114486
C57   C     C_R   0.054428 0.383715 0.013670 -0.126668
C58   C     C_R   0.854126 0.907447 0.777803 -0.115151
C59   C     C_R   0.268805 0.677673 0.317931 -0.128707
C60   C     C_R   0.878522 0.175056 0.799755 -0.124081
C61   C     C_R   0.262418 0.792033 0.227159 0.010842
C62   C     C_R   0.688665 0.256901 0.733322 0.011728
C63   C     C_R   0.266845 0.321223 0.259035 0.011569
C64   C     C_R   0.733148 0.678817 0.740906 0.012373
C65   C     C_R   0.688425 0.257106 0.266549 0.011842
C66   C     C_R   0.261695 0.792699 0.772728 0.010743
C67   C     C_R   0.733078 0.678765 0.259026 0.012247
C68   C     C_R   0.950162 0.627035 0.986715 -0.126515
C69   C     C_R   0.266801 0.321163 0.740885 0.011838
C70   C     C_R   0.321199 0.266848 0.740905 0.012235
C71   C     C_R   0.678770 0.733170 0.259048 0.011782
C72   C     C_R   0.207284 0.738279 0.772737 0.010814
C73   C     C_R   0.742871 0.311554 0.266548 0.011632
C74   C     C_R   0.678838 0.733219 0.740882 0.011483
C75   C     C_R   0.321244 0.266910 0.259018 0.012392
C76   C     C_R   0.743110 0.311349 0.733324 0.011989
C77   C     C_R   0.208019 0.737607 0.227156 0.010714
C78   C     C_R   0.811413 0.243023 0.766600 0.011842
C79   C     C_R   0.101836 0.414144 0.513250 -0.125241
C80   C     C_R   0.237647 0.707951 0.272840 0.010932
C81   C     C_R   0.766856 0.821183 0.759081 0.012101
C82   C     C_R   0.233162 0.178782 0.240960 0.011726
C83   C     C_R   0.238469 0.707087 0.727327 0.011390
C84   C     C_R   0.811587 0.242880 0.233466 0.011716
C85   C     C_R   0.233202 0.178834 0.759103 0.011520
C86   C     C_R   0.766918 0.821231 0.240972 0.012369
C87   C     C_R   0.821226 0.766826 0.240950 0.011548
C88   C     C_R   0.178802 0.233147 0.759082 0.012426
C89   C     C_R   0.757137 0.188438 0.233464 0.011839
C90   C     C_R   0.900167 0.585496 0.486265 -0.127082
C91   C     C_R   0.292855 0.761533 0.727307 0.010837
C92   C     C_R   0.178762 0.233093 0.240978 0.012208
C93   C     C_R   0.821163 0.766778 0.759108 0.011734
C94   C     C_R   0.292070 0.762353 0.272837 0.011023
C95   C     C_R   0.756979 0.188568 0.766593 0.011647
C96   C     C_R   0.303932 0.803928 0.250002 0.006570
C97   C     C_R   0.696073 0.196054 0.749976 0.010812
C98   C     C_R   0.196077 0.303876 0.250001 0.008861
C99   C     C_R   0.803870 0.696068 0.750008 0.009163
C100  C     C_R   0.696059 0.196064 0.250002 0.011017
C101  C     C_R   0.428753 0.109245 0.513693 -0.124743
C102  C     C_R   0.303919 0.803914 0.750000 0.006677
C103  C     C_R   0.803871 0.696068 0.249994 0.008902
C104  C     C_R   0.196077 0.303877 0.749991 0.009221
C105  C     C_R   0.303929 0.196125 0.750003 0.008873
C106  C     C_R   0.696126 0.803929 0.250005 0.009133
C107  C     C_R   0.196074 0.696064 0.750018 0.006901
C108  C     C_R   0.803939 0.303937 0.250005 0.010895
C109  C     C_R   0.696127 0.803926 0.749987 0.008735
C110  C     C_R   0.303926 0.196125 0.249997 0.009118
C111  C     C_R   0.803934 0.303942 0.749985 0.011030
C112  C     C_R   0.000022 0.500186 0.820124 0.505209
C113  C     C_R   0.566767 0.883320 0.486783 -0.125167
C114  C     C_R   0.196103 0.696068 0.250000 0.006603
C115  C     C_R   0.434598 0.023516 0.054721 0.414099
C116  C     C_R   0.555367 0.973029 0.944912 0.413709
C117  C     C_R   0.027112 0.444756 0.055078 0.413652
C118  C     C_R   0.976363 0.565469 0.945287 0.414135
C119  C     C_R   0.553852 0.971616 0.054810 0.412453
C120  C     C_R   0.435419 0.023310 0.944777 0.413139
C121  C     C_R   0.976645 0.564615 0.055232 0.413119
C122  C     C_R   0.028497 0.446328 0.945179 0.412476
C123  C     C_R   0.950998 0.540765 0.554779 0.413835
C124  C     C_R   0.899957 0.584931 0.513495 -0.125037
C125  C     C_R   0.049999 0.457651 0.444736 0.437152
C126  C     C_R   0.532102 0.941714 0.555285 0.435384
C127  C     C_R   0.464589 0.051572 0.445206 0.413083
C128  C     C_R   0.051104 0.457793 0.554661 0.412220
C129  C     C_R   0.951507 0.542551 0.444855 0.439332
C130  C     C_R   0.463771 0.052351 0.555122 0.442354
C131  C     C_R   0.531709 0.940205 0.445346 0.414116
C132  C     C_R   0.555304 0.971157 0.027408 0.020472
C133  C     C_R   0.433866 0.023663 0.972190 0.020026
C134  C     C_R   0.976273 0.566177 0.027819 0.020026
C135  C     C_R   0.101503 0.414017 0.486020 -0.127387
C136  C     C_R   0.028966 0.444864 0.972581 0.020503
C137  C     C_R   0.433465 0.023785 0.027303 0.020537
C138  C     C_R   0.556106 0.971937 0.972317 0.020312
C139  C     C_R   0.028202 0.444035 0.027672 0.020329
C140  C     C_R   0.976113 0.566595 0.972706 0.020554
C141  C     C_R   0.051686 0.456725 0.527249 0.019501
C142  C     C_R   0.950401 0.543040 0.472269 0.022348
C143  C     C_R   0.463101 0.053198 0.527709 0.024267
C144  C     C_R   0.532442 0.939398 0.472764 0.020000
C145  C     C_R   0.950201 0.542161 0.527370 0.019984
C146  C     C_R   0.566932 0.883721 0.514016 -0.125697
C147  C     C_R   0.051232 0.456728 0.472146 0.022437
C148  C     C_R   0.532609 0.940108 0.527872 0.024782
C149  C     C_R   0.463440 0.052726 0.472611 0.020156
C150  C     C_R   0.494508 0.997505 0.013596 -0.031967
C151  C     C_R   0.494811 0.997674 0.986013 -0.032194
C152  C     C_R   0.002358 0.505287 0.013986 -0.032179
C153  C     C_R   0.002513 0.505601 0.986402 -0.031949
C154  C     C_R   0.000911 0.499551 0.513551 -0.032211
C155  C     C_R   0.000848 0.499773 0.485967 -0.029850
C156  C     C_R   0.497845 0.996483 0.514030 -0.029131
C157  C     C_R   0.428998 0.109058 0.486465 -0.124666
C158  C     C_R   0.497888 0.996186 0.486446 -0.031971
C159  C     C_3   0.930821 0.321627 0.394236 0.015360
C160  C     C_3   0.911608 0.266594 0.415512 -0.248225
C161  C     C_3   0.912492 0.188725 0.405090 -0.483505
C162  C     C_3   0.890057 0.372300 0.589962 0.013773
C163  C     C_3   0.845162 0.331381 0.610476 -0.278323
C164  C     C_3   0.765793 0.323441 0.602090 -0.476001
C165  C     C_3   0.637692 0.090772 0.411548 0.013627
C166  C     C_3   0.687253 0.131688 0.392476 -0.276730
C167  C     C_3   0.702861 0.209035 0.401882 -0.476975
C168  C     C_R   0.965130 0.443557 0.390147 0.269185
C169  C     C_3   0.681826 0.047286 0.603086 0.020536
C170  C     C_3   0.720433 0.115578 0.613271 -0.271293
C171  C     C_3   0.798133 0.098854 0.621928 -0.475226
C172  C     C_3   0.073649 0.678264 0.393296 0.015284
C173  C     C_3   0.092325 0.734547 0.414193 -0.247458
C174  C     C_3   0.095114 0.811398 0.402868 -0.483324
C175  C     C_3   0.113993 0.623092 0.589406 0.015094
C176  C     C_3   0.162326 0.657748 0.610389 -0.281753
C177  C     C_3   0.242041 0.659292 0.601961 -0.481148
C178  C     C_3   0.361176 0.898237 0.409026 0.013480
C179  C     C_R   0.981825 0.435897 0.609931 0.275378
C180  C     C_3   0.316030 0.859230 0.388101 -0.278640
C181  C     C_3   0.301509 0.779984 0.395484 -0.481733
C182  C     C_3   0.316315 0.931884 0.607258 0.022317
C183  C     C_3   0.298887 0.856764 0.618768 -0.275225
C184  C     C_3   0.228144 0.857764 0.634370 -0.479178
C185  C     C_3   0.452345 0.834737 0.909125 0.012100
C186  C     C_3   0.436283 0.773287 0.889773 -0.276649
C187  C     C_3   0.471619 0.701982 0.898286 -0.472142
C188  C     C_3   0.408655 0.852209 0.091628 0.010965
C189  C     C_3   0.373069 0.809012 0.113861 -0.280829
C190  C     C_R   0.564551 0.008656 0.390335 0.272978
C191  C     C_3   0.295966 0.784917 0.106764 -0.475110
C192  C     C_3   0.147502 0.591988 0.908328 0.010894
C193  C     C_3   0.190555 0.627650 0.886073 -0.280879
C194  C     C_3   0.214380 0.704857 0.893136 -0.474955
C195  C     C_3   0.165244 0.548016 0.090873 0.012017
C196  C     C_3   0.226521 0.563698 0.110335 -0.276840
C197  C     C_3   0.297962 0.528697 0.101777 -0.472116
C198  C     C_3   0.538736 0.162761 0.910664 0.012584
C199  C     C_3   0.556272 0.226318 0.892386 -0.274951
C200  C     C_3   0.518110 0.296019 0.901042 -0.472731
C201  C     C_R   0.557204 0.029905 0.609671 0.271129
C202  C     C_3   0.577038 0.145622 0.088763 0.011164
C203  C     C_3   0.614150 0.194549 0.109015 -0.278348
C204  C     C_3   0.689430 0.219021 0.099857 -0.469912
C205  C     C_3   0.854563 0.422670 0.911242 0.011171
C206  C     C_3   0.805592 0.385505 0.891017 -0.278347
C207  C     C_3   0.781314 0.310168 0.900171 -0.469897
C208  C     C_3   0.837348 0.461045 0.089326 0.012573
C209  C     C_3   0.773843 0.443529 0.107636 -0.274989
C210  C     C_3   0.704058 0.481519 0.098970 -0.472774
C211  C     C_R   0.035835 0.556862 0.390059 0.270539
C212  C     C_R   0.499817 0.999972 0.179876 0.505200
C213  C     C_R   0.020843 0.562892 0.609885 0.276501
C214  C     C_R   0.433943 0.984521 0.389954 0.275728
C215  C     C_R   0.440036 0.965965 0.610116 0.277256
C216  C     C_R   0.456134 0.946828 0.889532 0.273044
C217  C     C_R   0.488802 0.932750 0.110091 0.275636
C218  C     C_R   0.067217 0.511518 0.889902 0.275625
C219  C     C_R   0.053154 0.543990 0.110474 0.273147
C220  C     C_R   0.537441 0.051958 0.890117 0.272731
C221  C     C_R   0.501647 0.064898 0.109616 0.272991
C222  C     C_R   0.935095 0.498270 0.890389 0.272940
C223  C     C_R   0.499833 0.999984 0.820040 0.504142
C224  C     C_R   0.948145 0.462517 0.109878 0.272786
C225  C     C_R   0.964774 0.444440 0.362618 -0.158541
C226  C     C_R   0.983862 0.435907 0.637218 -0.137469
C227  C     C_R   0.564849 0.007910 0.363031 -0.136993
C228  C     C_R   0.556672 0.031505 0.637132 -0.153960
C229  C     C_R   0.035931 0.555682 0.362507 -0.161044
C230  C     C_R   0.017632 0.563428 0.637157 -0.138044
C231  C     C_R   0.434382 0.988291 0.362700 -0.138825
C232  C     C_R   0.442172 0.965923 0.637683 -0.161931
C233  C     C_R   0.457156 0.947801 0.862230 -0.137347
C234  C     C_R   0.499990 0.999950 0.679933 0.506645
C235  C     C_R   0.493293 0.933599 0.137330 -0.139776
C236  C     C_R   0.066379 0.506968 0.862665 -0.139740
C237  C     C_R   0.052156 0.542959 0.137777 -0.137346
C238  C     C_R   0.538691 0.051725 0.862811 -0.134748
C239  C     C_R   0.501312 0.065218 0.136928 -0.138580
C240  C     C_R   0.934770 0.498562 0.863077 -0.138613
C241  C     C_R   0.948368 0.461248 0.137183 -0.134717
C242  C     C_R   0.000265 0.500015 0.348823 -0.042519
C243  C     C_R   0.000372 0.499828 0.651056 -0.069837
C244  C     C_R   0.499771 0.998896 0.348981 -0.070158
C245  C     C_R   0.499977 0.999891 0.320122 0.504679
C246  C     C_R   0.499735 0.999117 0.651164 -0.049489
C247  C     C_R   0.498621 0.999840 0.848746 -0.056813
C248  C     C_R   0.498407 0.999666 0.151016 -0.070517
C249  C     C_R   0.000319 0.501632 0.848984 -0.070513
C250  C     C_R   0.000180 0.501396 0.151254 -0.056751
C251  C     C_R   0.000532 0.500240 0.403619 0.289193
C252  C     C_R   0.001340 0.499324 0.596033 0.227425
C253  C     C_R   0.498983 0.996130 0.403996 0.230278
C254  C     C_R   0.498357 0.997777 0.596362 0.284274
C255  C     C_R   0.496292 0.999145 0.903629 0.239388
C256  C     C_R   0.000045 0.499980 0.679892 0.503455
C257  C     C_R   0.494553 0.998481 0.096017 0.234023
C258  C     C_R   0.001501 0.505579 0.903982 0.234100
C259  C     C_R   0.000904 0.503758 0.096371 0.239344
C260  C     C_R   0.859836 0.640107 0.250011 0.489858
C261  C     C_R   0.140114 0.359842 0.750007 0.489941
C262  C     C_R   0.359886 0.859891 0.250001 0.485203
C263  C     C_R   0.640092 0.140110 0.749989 0.488737
C264  C     C_R   0.140114 0.359837 0.249988 0.489985
C265  C     C_R   0.859836 0.640111 0.749992 0.489847
C266  C     C_R   0.640096 0.140102 0.250001 0.488826
C267  C     C_R   0.000039 0.499998 0.320061 0.507557
C268  C     C_R   0.359893 0.859878 0.749996 0.485324
C269  C     C_R   0.859888 0.359910 0.749995 0.488738
C270  C     C_R   0.140125 0.640110 0.250001 0.485222
C271  C     C_R   0.359890 0.140160 0.749991 0.489939
C272  C     C_R   0.640163 0.859891 0.249990 0.489969
C273  C     C_R   0.140084 0.640133 0.750015 0.485205
C274  C     C_R   0.859899 0.359902 0.250002 0.488624
C275  C     C_R   0.640161 0.859884 0.750006 0.489918
C276  C     C_R   0.359888 0.140164 0.250012 0.489968
C277  C     C_R   0.165623 0.727108 0.204344 -0.097025
C278  C     C_R   0.616048 0.945337 0.013533 -0.126591
C279  C     C_R   0.735479 0.372054 0.716500 -0.095367
C280  C     C_R   0.391611 0.284485 0.268583 -0.087566
C281  C     C_R   0.608585 0.715838 0.731177 -0.088261
C282  C     C_R   0.734996 0.372467 0.283258 -0.095249
C283  C     C_R   0.164257 0.728354 0.795434 -0.096797
C284  C     C_R   0.608448 0.715737 0.268690 -0.087767
C285  C     C_R   0.391516 0.284352 0.731265 -0.087647
C286  C     C_R   0.284201 0.391416 0.731182 -0.087889
C287  C     C_R   0.715489 0.608406 0.268598 -0.087647
C288  C     C_R   0.271581 0.835736 0.795418 -0.097108
H1    H     H_    0.259822 0.645014 0.335211 0.112360
H2    H     H_    0.961726 0.866464 0.215066 0.114981
H3    H     H_    0.856449 0.278828 0.423290 0.175197
H4    H     H_    0.872657 0.182548 0.388954 0.148149
H5    H     H_    0.897439 0.150335 0.420937 0.156105
H6    H     H_    0.967766 0.174560 0.397901 0.162528
H7    H     H_    0.884934 0.343254 0.571053 0.162082
H8    H     H_    0.867137 0.427949 0.586789 0.144218
H9    H     H_    0.868774 0.276333 0.613542 0.179925
H10   H     H_    0.846996 0.361406 0.629255 0.156639
H11   H     H_    0.740797 0.377937 0.599245 0.162336
H12   H     H_    0.734827 0.293970 0.617425 0.152307
H13   H     H_    0.358756 0.736212 0.665491 0.107569
H14   H     H_    0.762095 0.291993 0.583643 0.152587
H15   H     H_    0.663945 0.090535 0.431055 0.161024
H16   H     H_    0.585068 0.120568 0.413888 0.145409
H17   H     H_    0.739632 0.101940 0.390400 0.181644
H18   H     H_    0.660686 0.134442 0.373053 0.159336
H19   H     H_    0.651283 0.240151 0.403769 0.163393
H20   H     H_    0.738541 0.237300 0.387609 0.152585
H21   H     H_    0.731019 0.207766 0.421034 0.150296
H22   H     H_    0.711675 0.027460 0.585639 0.166814
H23   H     H_    0.684878 0.002392 0.617721 0.128476
H24   H     H_    0.830435 0.074418 0.187672 0.109951
H25   H     H_    0.722030 0.157349 0.597600 0.178792
H26   H     H_    0.689768 0.138531 0.630016 0.164816
H27   H     H_    0.797811 0.057962 0.637888 0.160741
H28   H     H_    0.824392 0.149452 0.629205 0.151831
H29   H     H_    0.830496 0.077618 0.605295 0.157372
H30   H     H_    0.019160 0.692000 0.385014 0.148111
H31   H     H_    0.116098 0.681086 0.377845 0.127018
H32   H     H_    0.050594 0.732531 0.429887 0.189326
H33   H     H_    0.146141 0.721259 0.422889 0.174080
H34   H     H_    0.136337 0.814624 0.387062 0.149044
H35   H     H_    0.961490 0.866287 0.785146 0.114674
H36   H     H_    0.110332 0.850684 0.418401 0.157139
H37   H     H_    0.040971 0.826834 0.394956 0.161856
H38   H     H_    0.119987 0.654933 0.571115 0.161268
H39   H     H_    0.133393 0.566880 0.584887 0.148172
H40   H     H_    0.143668 0.714320 0.614190 0.179617
H41   H     H_    0.157946 0.626136 0.628777 0.151830
H42   H     H_    0.261986 0.603059 0.598410 0.163964
H43   H     H_    0.275676 0.684253 0.617578 0.142704
H44   H     H_    0.248481 0.692010 0.583894 0.154956
H45   H     H_    0.331649 0.894582 0.427885 0.161145
H46   H     H_    0.038331 0.133122 0.215248 0.111457
H47   H     H_    0.414177 0.869539 0.411956 0.147252
H48   H     H_    0.263152 0.887804 0.385588 0.181643
H49   H     H_    0.345597 0.860389 0.369221 0.153231
H50   H     H_    0.353690 0.749848 0.397302 0.160523
H51   H     H_    0.267984 0.753564 0.380131 0.147473
H52   H     H_    0.271524 0.777040 0.414254 0.152785
H53   H     H_    0.275875 0.943171 0.591673 0.163370
H54   H     H_    0.308838 0.976463 0.621761 0.129110
H55   H     H_    0.293840 0.816714 0.602640 0.173883
H56   H     H_    0.343820 0.838377 0.631638 0.162723
H57   H     H_    0.829941 0.074795 0.812526 0.111833
H58   H     H_    0.232527 0.896800 0.650841 0.163796
H59   H     H_    0.217370 0.802669 0.642445 0.156917
H60   H     H_    0.181810 0.873570 0.621662 0.155445
H61   H     H_    0.434295 0.817292 0.928834 0.159505
H62   H     H_    0.512425 0.844060 0.910473 0.151863
H63   H     H_    0.376425 0.765138 0.888271 0.176375
H64   H     H_    0.457461 0.788355 0.870222 0.163894
H65   H     H_    0.531686 0.708600 0.899606 0.164883
H66   H     H_    0.459254 0.658773 0.883792 0.156256
H67   H     H_    0.449967 0.684680 0.917538 0.150373
H68   H     H_    0.355159 0.740075 0.335175 0.112175
H69   H     H_    0.407016 0.818523 0.073650 0.161141
H70   H     H_    0.376292 0.902221 0.087322 0.151671
H71   H     H_    0.406466 0.760091 0.118281 0.183948
H72   H     H_    0.370197 0.843341 0.131647 0.152712
H73   H     H_    0.261523 0.833049 0.102328 0.162900
H74   H     H_    0.271414 0.755155 0.123447 0.149899
H75   H     H_    0.297051 0.748112 0.089583 0.154727
H76   H     H_    0.181208 0.593802 0.926298 0.161156
H77   H     H_    0.097378 0.624186 0.912634 0.151775
H78   H     H_    0.239598 0.594418 0.881657 0.183879
H79   H     H_    0.575251 0.329563 0.687215 0.108920
H80   H     H_    0.156196 0.630341 0.868291 0.152963
H81   H     H_    0.166119 0.739140 0.897560 0.162859
H82   H     H_    0.244062 0.729452 0.876441 0.150372
H83   H     H_    0.251187 0.703966 0.910316 0.154670
H84   H     H_    0.182883 0.566428 0.071229 0.159542
H85   H     H_    0.155908 0.487976 0.089364 0.151997
H86   H     H_    0.234559 0.623521 0.112038 0.176293
H87   H     H_    0.211337 0.542012 0.129802 0.163815
H88   H     H_    0.291447 0.468662 0.100247 0.164888
H89   H     H_    0.341033 0.540752 0.116355 0.156276
H90   H     H_    0.240439 0.854893 0.164773 0.114343
H91   H     H_    0.315397 0.550870 0.082616 0.150265
H92   H     H_    0.554568 0.178203 0.930822 0.159134
H93   H     H_    0.478615 0.152969 0.911065 0.151311
H94   H     H_    0.616087 0.235835 0.892139 0.177025
H95   H     H_    0.538403 0.212622 0.872291 0.164535
H96   H     H_    0.458084 0.288091 0.901070 0.165549
H97   H     H_    0.531777 0.340878 0.887357 0.155473
H98   H     H_    0.536323 0.311812 0.920901 0.150631
H99   H     H_    0.574862 0.175278 0.069904 0.160514
H100  H     H_    0.610603 0.095901 0.085246 0.149562
H101  H     H_    0.633382 0.538568 0.714948 0.111163
H102  H     H_    0.579895 0.243405 0.112621 0.183135
H103  H     H_    0.620227 0.164345 0.127640 0.159054
H104  H     H_    0.724688 0.170994 0.096148 0.165550
H105  H     H_    0.715287 0.253085 0.115171 0.152851
H106  H     H_    0.684874 0.251827 0.081739 0.151875
H107  H     H_    0.825003 0.424757 0.930124 0.160509
H108  H     H_    0.904372 0.389196 0.914712 0.149567
H109  H     H_    0.756644 0.419666 0.887459 0.183157
H110  H     H_    0.835708 0.379524 0.872367 0.159023
H111  H     H_    0.829435 0.274995 0.903825 0.165494
H112  H     H_    0.925144 0.170051 0.812543 0.109960
H113  H     H_    0.366520 0.461701 0.284885 0.114302
H114  H     H_    0.747194 0.284282 0.884879 0.152938
H115  H     H_    0.748613 0.314625 0.918319 0.151936
H116  H     H_    0.821877 0.445107 0.069182 0.159147
H117  H     H_    0.847082 0.521166 0.088890 0.151343
H118  H     H_    0.764420 0.383708 0.107930 0.177044
H119  H     H_    0.787544 0.461548 0.127713 0.164509
H120  H     H_    0.711893 0.541550 0.098891 0.165551
H121  H     H_    0.659241 0.467876 0.112679 0.155451
H122  H     H_    0.688255 0.463148 0.079131 0.150589
H123  H     H_    0.237964 0.857176 0.834816 0.120891
H124  H     H_    0.574406 0.330284 0.312373 0.108494
H125  H     H_    0.366337 0.461455 0.714815 0.113802
H126  H     H_    0.633077 0.538356 0.284777 0.111273
H127  H     H_    0.538270 0.633530 0.284931 0.114076
H128  H     H_    0.461497 0.366614 0.714951 0.111305
H129  H     H_    0.669619 0.425524 0.312366 0.109663
H130  H     H_    0.142798 0.761932 0.834832 0.114406
H131  H     H_    0.461682 0.366881 0.284744 0.111221
H132  H     H_    0.133498 0.038310 0.215100 0.114690
H133  H     H_    0.538545 0.633733 0.714808 0.114019
H134  H     H_    0.145284 0.759646 0.164759 0.120853
H135  H     H_    0.670506 0.424773 0.687206 0.107209
H136  H     H_    0.122240 0.687244 0.203456 0.122352
H137  H     H_    0.775800 0.415126 0.715824 0.105952
H138  H     H_    0.434881 0.244635 0.269409 0.119750
H139  H     H_    0.565440 0.755813 0.730282 0.122799
H140  H     H_    0.775304 0.415551 0.283931 0.106428
H141  H     H_    0.120928 0.688422 0.796311 0.121900
H142  H     H_    0.565304 0.755711 0.269592 0.123080
H143  H     H_    0.866674 0.961461 0.784990 0.111430
H144  H     H_    0.434781 0.244492 0.730445 0.119725
H145  H     H_    0.244229 0.434564 0.730289 0.122731
H146  H     H_    0.755334 0.565130 0.269418 0.119772
H147  H     H_    0.311484 0.879093 0.796283 0.121564
H148  H     H_    0.584418 0.224638 0.283937 0.106507
H149  H     H_    0.755502 0.565251 0.730448 0.119532
H150  H     H_    0.244325 0.434688 0.269560 0.123210
H151  H     H_    0.584882 0.224243 0.715828 0.106493
H152  H     H_    0.312763 0.877888 0.203475 0.122737
H153  H     H_    0.724437 0.084646 0.784019 0.106910
H154  H     H_    0.925670 0.169635 0.187677 0.111781
H155  H     H_    0.377999 0.812600 0.296500 0.122142
H156  H     H_    0.934565 0.744185 0.769705 0.122924
H157  H     H_    0.065123 0.255366 0.230588 0.119835
H158  H     H_    0.379471 0.811082 0.703774 0.120653
H159  H     H_    0.724713 0.084431 0.216086 0.106846
H160  H     H_    0.065207 0.255484 0.769529 0.119672
H161  H     H_    0.934692 0.744284 0.230406 0.123306
H162  H     H_    0.744660 0.934863 0.230577 0.119750
H163  H     H_    0.255767 0.065424 0.769690 0.123080
H164  H     H_    0.915625 0.275317 0.216094 0.106846
H165  H     H_    0.263655 0.640945 0.665562 0.108994
H166  H     H_    0.189074 0.620240 0.703881 0.120788
H167  H     H_    0.255691 0.065323 0.230428 0.123164
H168  H     H_    0.744527 0.934766 0.769520 0.119792
H169  H     H_    0.187296 0.622132 0.296535 0.121904
H170  H     H_    0.915292 0.275588 0.784046 0.106912
H171  H     H_    0.663543 0.924814 0.023658 0.168000
H172  H     H_    0.325555 0.069813 0.975941 0.167973
H173  H     H_    0.929932 0.674399 0.024086 0.167988
H174  H     H_    0.075502 0.336716 0.976313 0.167987
H175  H     H_    0.325278 0.070079 0.023338 0.167927
H176  H     H_    0.866919 0.961636 0.215218 0.111391
H177  H     H_    0.664289 0.925630 0.976277 0.168235
H178  H     H_    0.074695 0.335944 0.023694 0.168244
H179  H     H_    0.929628 0.674688 0.976689 0.167906
H180  H     H_    0.141454 0.380667 0.523281 0.168530
H181  H     H_    0.860753 0.619211 0.476234 0.167031
H182  H     H_    0.401661 0.153511 0.523709 0.167322
H183  H     H_    0.593746 0.838986 0.476766 0.168070
H184  H     H_    0.860384 0.618245 0.523622 0.168203
H185  H     H_    0.140859 0.380448 0.475892 0.166996
H186  H     H_    0.594021 0.839688 0.524161 0.166689
H187  H     H_    0.133638 0.038505 0.785133 0.114939
H188  H     H_    0.402084 0.153202 0.476322 0.168247
H189  H     H_    0.935469 0.403209 0.351783 0.121830
H190  H     H_    0.970946 0.386070 0.647551 0.155750
H191  H     H_    0.616035 0.015571 0.352876 0.157284
H192  H     H_    0.599896 0.059012 0.647586 0.131899
H193  H     H_    0.065004 0.596800 0.351529 0.116355
H194  H     H_    0.030634 0.613327 0.647439 0.155480
H195  H     H_    0.383485 0.981484 0.352297 0.156880
H196  H     H_    0.400016 0.939262 0.648902 0.126558
H197  H     H_    0.424715 0.908487 0.851555 0.136024
H198  H     H_    0.038476 0.133332 0.784990 0.111384
H199  H     H_    0.491402 0.882312 0.147748 0.157677
H200  H     H_    0.117664 0.509000 0.852242 0.157699
H201  H     H_    0.091402 0.575469 0.148458 0.135717
H202  H     H_    0.571798 0.091471 0.852608 0.141635
H203  H     H_    0.504346 0.116900 0.147055 0.157175
H204  H     H_    0.883091 0.495361 0.852954 0.157130
H205  H     H_    0.908673 0.428067 0.147382 0.141595
H206  H     H_    0.986695 0.309199 0.386927 0.149175
H207  H     H_    0.890483 0.315814 0.378212 0.129639
H208  H     H_    0.951450 0.271394 0.431732 0.188889
N1    N     N_R   0.494198 0.997705 0.067903 -0.376258
N2    N     N_R   0.495630 0.998431 0.931724 -0.373556
N3    N     N_R   0.001623 0.504442 0.068276 -0.373617
N4    N     N_R   0.002287 0.505931 0.932096 -0.376148
N5    N     N_R   0.001151 0.499267 0.567884 -0.381443
N6    N     N_R   0.000722 0.500204 0.431700 -0.343072
N7    N     N_R   0.497991 0.997226 0.568292 -0.345290
N8    N     N_R   0.498321 0.995854 0.432127 -0.378994
O1    O     O_3   0.000000 0.500000 0.250000 -0.432574
O2    O     O_R   0.060810 0.500000 0.807590 -0.544369
O3    O     O_R   0.500000 0.939190 0.192410 -0.544525
O4    O     O_R   0.500000 0.060810 0.807590 -0.538229
O5    O     O_R   0.560810 0.000000 0.692410 -0.539769
O6    O     O_R   0.439190 0.000000 0.307590 -0.543605
O7    O     O_R   0.000000 0.560810 0.692410 -0.542148
O8    O     O_R   1.000000 0.439190 0.307590 -0.539063
O9    O     O_R   0.439190 0.000000 0.692410 -0.542075
O10   O     O_R   0.560810 0.000000 0.307590 -0.540016
O11   O     O_R   0.000000 0.439190 0.692410 -0.539721
O12   O     O_3   1.000000 0.500000 0.750000 -0.432096
O13   O     O_R   0.000000 0.560810 0.307590 -0.541489
O14   O     O_R   0.853910 0.585600 0.235240 -0.541123
O15   O     O_R   0.146090 0.414400 0.764760 -0.540155
O16   O     O_R   0.414400 0.853910 0.235240 -0.546166
O17   O     O_R   0.585600 0.146090 0.764760 -0.542308
O18   O     O_R   0.146090 0.414400 0.235240 -0.540087
O19   O     O_R   0.853910 0.585600 0.764760 -0.541199
O20   O     O_R   0.585600 0.146090 0.235240 -0.542302
O21   O     O_R   0.414400 0.853910 0.764760 -0.546035
O22   O     O_R   0.853910 0.414400 0.764760 -0.542184
O23   O     O_3   0.500000 0.000000 0.250000 -0.431798
O24   O     O_R   0.146090 0.585600 0.235240 -0.546469
O25   O     O_R   0.414400 0.146090 0.764760 -0.540964
O26   O     O_R   0.585600 0.853910 0.235240 -0.540169
O27   O     O_R   0.146090 0.585600 0.764760 -0.545989
O28   O     O_R   0.853910 0.414400 0.235240 -0.542484
O29   O     O_R   0.585600 0.853910 0.764760 -0.539819
O30   O     O_R   0.414400 0.146090 0.235240 -0.541229
O31   O     O_R   0.353910 0.085600 0.735240 -0.540139
O32   O     O_R   0.646090 0.914400 0.264760 -0.540515
O33   O     O_R   0.914400 0.353910 0.735240 -0.542748
O34   O     O_3   0.500000 1.000000 0.750000 -0.432243
O35   O     O_R   0.085600 0.646090 0.264760 -0.546465
O36   O     O_R   0.646090 0.914400 0.735240 -0.541420
O37   O     O_R   0.353910 0.085600 0.264760 -0.539518
O38   O     O_R   0.085600 0.646090 0.735240 -0.545586
O39   O     O_R   0.914400 0.353910 0.264760 -0.543308
O40   O     O_R   0.353910 0.914400 0.264760 -0.545930
O41   O     O_R   0.646090 0.085600 0.735240 -0.543365
O42   O     O_R   0.914400 0.646090 0.264760 -0.539892
O43   O     O_R   0.085600 0.353910 0.735240 -0.540134
O44   O     O_R   0.646090 0.085600 0.264760 -0.542497
O45   O     O_R   0.060810 0.500000 0.192410 -0.541175
O46   O     O_R   0.353910 0.914400 0.735240 -0.546821
O47   O     O_R   0.085600 0.353910 0.264760 -0.540890
O48   O     O_R   0.914400 0.646090 0.735240 -0.539305
O49   O     O_2   0.376485 0.048471 0.068101 -0.487350
O50   O     O_2   0.613721 0.948596 0.931539 -0.489507
O51   O     O_2   0.051634 0.386435 0.068440 -0.489468
O52   O     O_2   0.951276 0.623527 0.931916 -0.487483
O53   O     O_2   0.611866 0.946801 0.068276 -0.487616
O54   O     O_2   0.377450 0.048048 0.931274 -0.490259
O55   O     O_2   0.951822 0.622534 0.068745 -0.490180
O56   O     O_R   0.939190 0.500000 0.807590 -0.540587
O57   O     O_2   0.053427 0.388376 0.931704 -0.487778
O58   O     O_2   0.901692 0.580170 0.568228 -0.480440
O59   O     O_2   0.097731 0.416562 0.431210 -0.494144
O60   O     O_2   0.565334 0.888278 0.568840 -0.496468
O61   O     O_2   0.432779 0.106035 0.431732 -0.482853
O62   O     O_2   0.100475 0.418183 0.567995 -0.479593
O63   O     O_2   0.903685 0.583815 0.431445 -0.491073
O64   O     O_2   0.430669 0.106187 0.568519 -0.486971
O65   O     O_2   0.563731 0.885609 0.432006 -0.482453
O66   O     O_3   0.926758 0.392521 0.404846 -0.550877
O67   O     O_R   0.500000 0.060810 0.192410 -0.540563
O68   O     O_3   0.964739 0.372212 0.596884 -0.532782
O69   O     O_3   0.629574 0.017324 0.403595 -0.534826
O70   O     O_3   0.610247 0.065536 0.595104 -0.552245
O71   O     O_3   0.073795 0.608265 0.404765 -0.550728
O72   O     O_3   0.039729 0.626108 0.596839 -0.534201
O73   O     O_3   0.368767 0.973096 0.402860 -0.534759
O74   O     O_3   0.386159 0.930994 0.595523 -0.549299
O75   O     O_3   0.411889 0.897577 0.902412 -0.544241
O76   O     O_3   0.482842 0.866789 0.097235 -0.537766
O77   O     O_3   0.133166 0.517739 0.902751 -0.537848
O78   O     O_R   0.500000 0.939190 0.807590 -0.541033
O79   O     O_3   0.102328 0.588344 0.097604 -0.544237
O80   O     O_3   0.580439 0.101039 0.903594 -0.542657
O81   O     O_3   0.504360 0.130330 0.096290 -0.537568
O82   O     O_3   0.869669 0.495384 0.903724 -0.537617
O83   O     O_3   0.899140 0.419446 0.096395 -0.542604
O84   O     O_R   0.939190 0.500000 0.192410 -0.538142
Zn1   Zn    Zn3+2 1.000000 0.586890 0.272200 0.923663
Zn2   Zn    Zn3+2 0.500000 0.913110 0.227800 0.923819
Zn3   Zn    Zn3+2 0.913110 0.500000 0.772200 0.927562
Zn4   Zn    Zn3+2 0.086890 0.500000 0.227800 0.923835
Zn5   Zn    Zn3+2 0.500000 0.913110 0.772200 0.924106
Zn6   Zn    Zn3+2 0.500000 0.086890 0.227800 0.927703
Zn7   Zn    Zn3+2 0.086890 0.500000 0.772200 0.923856
Zn8   Zn    Zn3+2 0.913110 0.500000 0.227800 0.927472
Zn9   Zn    Zn3+2 0.000000 0.413110 0.727800 0.928361
Zn10  Zn    Zn3+2 0.413110 0.000000 0.272200 0.924922
Zn11  Zn    Zn3+2 0.586890 1.000000 0.727800 0.925678
Zn12  Zn    Zn3+2 0.000000 0.413110 0.272200 0.926648
Zn13  Zn    Zn3+2 0.000000 0.586890 0.727800 0.925516
Zn14  Zn    Zn3+2 0.586890 0.000000 0.272200 0.928442
Zn15  Zn    Zn3+2 0.413110 1.000000 0.727800 0.922481
Zn16  Zn    Zn3+2 0.500000 0.086890 0.772200 0.927662

loop_
_geom_bond_atom_site_label_1
_geom_bond_atom_site_label_2
_ccdc_geom_bond_type
C73   C282  A    
C125  O59   S    
C239  H203  S    
O11   Zn9   S    
C132  C150  A    
C12   C91   A    
C133  C151  A    
C101  H182  S    
C241  H205  S    
C120  N2    A    
C202  H99   S    
C266  O20   A    
C71   C284  A    
O30   Zn6   S    
O56   Zn3   S    
C35   H175  S    
C63   C98   A    
C191  H73   S    
O42   Zn1   S    
C221  C257  A    
C169  H22   S    
O23   Zn2   S    
C28   C40   A    
O34   Zn16  S    
C220  C255  A    
C198  H92   S    
C139  C152  A    
C184  H60   S    
C217  C257  A    
C244  C245  S    
C30   C38   A    
C213  C252  A    
C120  C133  A    
C7    C42   A    
C263  O17   A    
C182  C183  S    
C88   C104  A    
C18   H163  S    
C66   C72   A    
C123  C145  A    
C238  C247  A    
C288  H147  S    
O39   Zn12  S    
C25   C60   A    
C147  C155  A    
C117  O51   S    
C12   C48   A    
C178  H47   S    
C170  H26   S    
C69   C286  A    
C199  C200  S    
O9    Zn15  S    
C162  O68   S    
C192  O77   S    
C60   H112  S    
C214  C253  A    
C216  C233  A    
C220  C238  A    
C3    C65   A    
O47   Zn12  S    
C181  H52   S    
C118  C140  A    
C214  C231  A    
C17   C52   A    
C273  O38   A    
C273  O27   A    
C159  H206  S    
C28   C280  A    
C196  H87   S    
C268  O46   A    
C50   C53   A    
C202  C203  S    
C51   C52   A    
O1    Zn12  S    
C161  H4    S    
C33   C34   A    
C41   H79   S    
O18   Zn4   S    
C206  C207  S    
C73   C108  A    
C129  C142  A    
C47   H46   S    
C225  C242  A    
C217  O76   S    
C215  C254  A    
C25   C78   A    
C31   C37   A    
C239  C248  A    
C113  C146  A    
C13   C134  A    
C165  O69   S    
C183  C184  S    
C199  H94   S    
C164  H14   S    
C182  O74   S    
C204  H106  S    
C21   C56   A    
C119  N1    A    
C10   H156  S    
C175  C176  S    
C130  O64   S    
C94   C96   A    
C159  H207  S    
C122  C136  A    
C154  C155  A    
C121  O55   S    
C51   H2    S    
C188  H70   S    
C226  H190  S    
C22   H168  S    
C33   C285  A    
C216  C255  A    
C178  O73   S    
C68   C140  A    
C194  H83   S    
C183  H56   S    
C132  C278  A    
O12   Zn13  S    
C29   H133  S    
C182  H54   S    
C168  C251  A    
C96   C262  S    
C238  H202  S    
C196  C197  S    
C70   C105  A    
O32   Zn14  S    
C22   C58   A    
C266  O44   A    
C95   C97   A    
C174  H36   S    
C59   H1    S    
C202  O81   S    
C138  C151  A    
C83   C91   A    
C113  C144  A    
C36   H126  S    
C32   H127  S    
C196  H86   S    
C219  C237  A    
C179  C226  A    
C156  C158  A    
C204  H104  S    
C31   H130  S    
C35   C137  A    
C136  C153  A    
C263  O41   A    
C175  H39   S    
C100  C266  S    
C223  O78   A    
C66   C288  A    
C286  H145  S    
C137  C150  A    
C270  O24   A    
C129  N6    A    
C267  O13   A    
C173  H33   S    
C69   C70   A    
C107  C273  S    
C228  H192  S    
C195  C196  S    
C178  H45   S    
C98   C264  S    
C200  H97   S    
C2    H172  S    
C171  H29   S    
C260  O14   A    
C25   H170  S    
C71   C106  A    
C262  O16   A    
C186  C187  S    
C210  H121  S    
C265  O48   A    
C255  N2    S    
C229  C242  A    
C103  C260  S    
C173  H32   S    
C161  H6    S    
C16   C51   A    
C30   C282  A    
C212  C248  S    
C283  H141  S    
O4    Zn16  S    
C185  C186  S    
C61   C96   A    
C67   C103  A    
C112  C249  S    
C23   C59   A    
C245  O10   A    
C234  O5    A    
O7    Zn13  S    
C169  O70   S    
O8    Zn12  S    
C32   C36   A    
C276  O30   A    
C232  H196  S    
C183  H55   S    
C180  H49   S    
C163  H9    S    
C13   H173  S    
C224  C241  A    
C168  O66   S    
C170  C171  S    
C44   C59   A    
C201  C254  A    
C42   H90   S    
C224  O83   S    
C121  N3    A    
C39   H101  S    
C175  O72   S    
C189  C191  S    
O78   Zn5   S    
C57   H178  S    
C26   H134  S    
O6    Zn10  S    
C46   C278  A    
C52   H176  S    
C64   C99   A    
C115  C137  A    
C74   C281  A    
C61   C77   A    
C24   C57   A    
C9    H155  S    
C190  C253  A    
C167  H19   S    
C72   C107  A    
C112  O2    A    
C78   C111  A    
C194  H81   S    
C171  H27   S    
C8    H153  S    
C46   H177  S    
C149  C158  A    
C232  C246  A    
C1    O45   A    
C6    H151  S    
C219  O79   S    
C24   C136  A    
C166  H17   S    
C180  H48   S    
C86   C106  A    
C8    C95   A    
C10   C45   A    
O27   Zn7   S    
C131  O65   S    
O33   Zn9   S    
C189  H71   S    
C174  H34   S    
O23   Zn6   S    
C215  C232  A    
C264  O18   A    
C48   H13   S    
C54   H154  S    
C227  C244  A    
C97   C263  S    
C233  C247  A    
C85   C105  A    
C30   H129  S    
C223  C247  S    
O22   Zn3   S    
C68   H179  S    
C90   H181  S    
C27   H135  S    
C251  N6    S    
C15   H160  S    
C177  H43   S    
C205  H108  S    
C62   C97   A    
C37   H123  S    
C38   H124  S    
C70   C285  A    
O36   Zn11  S    
C209  C210  S    
O20   Zn6   S    
C259  N3    S    
C199  H95   S    
C43   H57   S    
C257  N1    S    
C7    H152  S    
C176  H40   S    
C224  C259  A    
C145  C154  A    
C19   C54   A    
C275  O29   A    
O29   Zn5   S    
C193  C194  S    
C135  C147  A    
O28   Zn8   S    
C172  H31   S    
C121  C134  A    
O31   Zn15  S    
C237  C250  A    
C162  H7    S    
C256  O11   A    
C235  C248  A    
C208  H116  S    
C26   C42   A    
C261  O15   A    
C85   C88   A    
C75   C110  A    
C16   H161  S    
C210  H120  S    
O35   Zn1   S    
C122  N4    A    
C195  H84   S    
C193  H80   S    
C192  H76   S    
C202  H100  S    
C194  H82   S    
C227  H191  S    
C75   C280  A    
C271  O31   A    
C231  C244  A    
O41   Zn11  S    
C272  O32   A    
C115  O49   S    
C127  C149  A    
C191  H74   S    
O43   Zn9   S    
C216  O75   S    
C269  O33   A    
C125  N6    A    
C79   C141  A    
C63   C75   A    
C76   C111  A    
C34   C286  A    
C198  H93   S    
C276  O37   A    
C26   C277  A    
C127  O61   S    
C260  O42   A    
C213  C230  A    
C231  H195  S    
C240  C249  A    
C256  O7    A    
C152  C153  A    
C229  H193  S    
C252  N5    S    
C150  C151  A    
C285  H144  S    
O1    Zn4   S    
C9    C94   A    
C207  H111  S    
O3    Zn2   S    
C47   C56   A    
C13   C68   A    
C2    C35   A    
C48   C55   A    
C126  O60   S    
C182  H53   S    
C197  H88   S    
C11   C47   A    
C8    C43   A    
C181  H51   S    
C205  O82   S    
O84   Zn8   S    
C218  O77   S    
C117  C139  A    
C275  O36   A    
C265  O19   A    
C192  H77   S    
C277  H136  S    
C185  O75   S    
C14   H159  S    
C117  N3    A    
C211  O71   S    
C207  H114  S    
C108  C274  S    
C214  O73   S    
C208  H117  S    
C113  H183  S    
O21   Zn5   S    
C82   C92   A    
C57   C139  A    
C124  H184  S    
C206  H109  S    
O10   Zn14  S    
C187  H66   S    
C7    C61   A    
C164  H11   S    
C160  H208  S    
C18   C53   A    
C209  H119  S    
C208  C209  S    
C130  N7    A    
C222  O82   S    
C23   C80   A    
C49   H24   S    
C12   H158  S    
C128  C141  A    
C93   C99   A    
C274  O28   A    
C118  O52   S    
C140  C153  A    
C281  H139  S    
C282  H140  S    
C11   H157  S    
C62   C76   A    
C200  H96   S    
O38   Zn13  S    
C261  O43   A    
C146  C148  A    
C45   C58   A    
C2    C133  A    
O14   Zn8   S    
C131  N8    A    
C89   C100  A    
C17   C86   A    
C18   C85   A    
C22   C81   A    
C114  C270  S    
C268  O21   A    
C272  O26   A    
C125  C147  A    
C126  C148  A    
C86   C87   A    
C169  H23   S    
C174  H37   S    
C127  N8    A    
C287  H146  S    
C10   C93   A    
O34   Zn15  S    
C173  C174  S    
O46   Zn15  S    
C184  H59   S    
C243  C256  S    
O24   Zn4   S    
C218  C258  A    
C223  O4    A    
C234  O9    A    
C262  O40   A    
C14   C89   A    
C5    C63   A    
C159  C160  S    
C279  H137  S    
C78   C95   A    
C186  H63   S    
O40   Zn10  S    
C267  O8    A    
C129  O63   S    
C72   C283  A    
C90   C142  A    
O19   Zn3   S    
C40   H113  S    
C23   H169  S    
O23   Zn10  S    
C128  N5    A    
C278  H171  S    
C170  H25   S    
C221  C239  A    
C112  O56   A    
C236  H200  S    
C208  O83   S    
C104  C261  S    
C111  C269  S    
C80   C94   A    
C77   C114  A    
C135  H185  S    
C128  O62   S    
C180  C181  S    
C162  C163  S    
C119  C132  A    
C253  N8    S    
C198  O80   S    
C179  O68   S    
C211  C229  A    
C76   C279  A    
C172  H30   S    
C115  N1    A    
C1    O84   A    
C90   C124  A    
C161  H5    S    
C241  C250  A    
C65   C100  A    
C212  O67   A    
C237  H201  S    
C122  O57   S    
C178  C180  S    
C235  H199  S    
C270  O35   A    
C79   C135  A    
C4    C64   A    
C33   H128  S    
C197  H89   S    
C6    C62   A    
C203  H102  S    
C218  C236  A    
C19   H164  S    
C204  H105  S    
C234  C246  S    
C165  H16   S    
C195  H85   S    
C226  C243  A    
O12   Zn7   S    
C222  C240  A    
C217  C235  A    
C84   C108  A    
C118  N4    A    
C67   C71   A    
C79   H180  S    
C193  H78   S    
C116  N2    A    
C191  H75   S    
C188  H69   S    
C205  H107  S    
C228  C246  A    
C29   C281  A    
C5    C40   A    
C123  N5    A    
C64   C74   A    
C148  C156  A    
C36   C287  A    
C32   C284  A    
C258  N4    S    
C176  H41   S    
C157  H188  S    
C131  C144  A    
C105  C271  S    
C201  C228  A    
O15   Zn7   S    
C3    H148  S    
C106  C272  S    
C165  C166  S    
C166  H18   S    
C17   H162  S    
O5    Zn11  S    
C169  C170  S    
C66   C102  A    
C31   C283  A    
C163  C164  S    
O67   Zn6   S    
O1    Zn1   S    
C236  C249  A    
C74   C109  A    
C92   C98   A    
C205  C206  S    
C119  O53   S    
C213  O72   S    
C200  H98   S    
C20   H166  S    
C167  H21   S    
C82   C110  A    
C172  O71   S    
C15   C50   A    
C14   C49   A    
C165  H15   S    
C49   C54   A    
C5    H150  S    
C65   C73   A    
C271  O25   A    
O1    Zn8   S    
C77   C277  A    
C177  H42   S    
C67   C287  A    
C230  C243  A    
C126  N7    A    
C240  H204  S    
C11   C92   A    
C3    C38   A    
C179  C252  A    
C6    C41   A    
C233  H197  S    
C207  H115  S    
C198  C199  S    
C142  C155  A    
C280  H138  S    
C56   H132  S    
C201  O70   S    
O26   Zn2   S    
C185  H62   S    
C134  C152  A    
C102  C268  S    
C37   C288  A    
O16   Zn2   S    
C44   H68   S    
C55   H165  S    
O25   Zn16  S    
C20   C55   A    
C162  H8    S    
O17   Zn16  S    
C24   H174  S    
C50   H198  S    
C116  C138  A    
C101  C157  A    
O45   Zn4   S    
C197  H91   S    
C190  C227  A    
C146  H186  S    
C34   H125  S    
C215  O74   S    
O12   Zn3   S    
C168  C225  A    
C163  H10   S    
C186  H64   S    
C1    C250  S    
O34   Zn11  S    
C27   C279  A    
O12   Zn9   S    
C254  N7    S    
C220  O80   S    
C28   H131  S    
C188  C189  S    
C53   H187  S    
C16   C87   A    
C81   C93   A    
C27   C41   A    
C58   H143  S    
C4    C39   A    
C29   C39   A    
C184  H58   S    
C167  H20   S    
C185  H61   S    
C242  C267  S    
C21   C82   A    
C130  C143  A    
O37   Zn10  S    
C222  C258  A    
C43   C60   A    
C110  C276  S    
C176  C177  S    
C80   C114  A    
C195  O79   S    
C123  O58   S    
C166  C167  S    
O48   Zn13  S    
C87   C103  A    
C219  C259  A    
C84   C89   A    
C91   C102  A    
C144  C158  A    
C19   C84   A    
C160  H3    S    
C189  H72   S    
C187  H67   S    
C172  C173  S    
C188  O76   S    
C245  O6    A    
C69   C104  A    
O44   Zn14  S    
C99   C265  S    
C9    C44   A    
O2    Zn7   S    
C81   C109  A    
C181  H50   S    
C45   H35   S    
C175  H38   S    
C264  O47   A    
C4    H149  S    
O34   Zn5   S    
C221  O81   S    
C124  C145  A    
C46   C138  A    
C211  C251  A    
C192  C193  S    
C177  H44   S    
C116  O50   S    
C274  O39   A    
C269  O22   A    
O23   Zn14  S    
C101  C143  A    
C284  H142  S    
C143  C156  A    
C171  H28   S    
C21   H167  S    
C159  O66   S    
C120  O54   S    
C83   C107  A    
C190  O69   S    
C206  H110  S    
C187  H65   S    
C160  C161  S    
C203  H103  S    
C164  H12   S    
C209  H118  S    
C230  H194  S    
C20   C83   A    
C212  O3    A    
C15   C88   A    
C203  C204  S    
C149  C157  A    
C141  C154  A    
C225  H189  S    
O13   Zn1   S    
C109  C275  S    
C210  H122  S    
