data_mof_unit_11114.cif
_audit_creation_date              2013-03-05T15:56:46-0500
_audit_creation_method            fapswitch 2.2
_symmetry_space_group_name_H-M    P1
_symmetry_Int_Tables_number       1
_space_group_crystal_system       triclinic
_cell_length_a                    6.930757
_cell_length_b                    14.588246
_cell_length_c                    16.020874
_cell_angle_alpha                 89.982162
_cell_angle_beta                  89.937245
_cell_angle_gamma                 89.988582
_cell_volume                      1619.83084694

loop_
_atom_site_label
_atom_site_type_symbol
_atom_site_description
_atom_site_fract_x
_atom_site_fract_y
_atom_site_fract_z
_atom_type_partial_charge
O1    O     O_R   0.638180 0.333920 0.163320 -0.598349
O2    O     O_R   0.361820 0.666080 0.836680 -0.598361
O3    O     O_R   0.308470 0.344960 0.336080 -0.604215
O4    O     O_R   0.691530 0.655040 0.663920 -0.604214
O5    O     O_R   0.138140 0.166110 0.336680 -0.594339
O6    O     O_R   0.861860 0.833890 0.663320 -0.594337
C1    C     C_R   0.477505 0.367193 0.365039 0.945415
C2    C     C_R   0.522495 0.632807 0.634961 0.945425
O7    O     O_R   0.308460 0.344950 0.163930 -0.583623
O8    O     O_R   0.691540 0.655050 0.836070 -0.583578
O9    O     O_R   0.138140 0.166100 0.163310 -0.569918
O10   O     O_R   0.861860 0.833900 0.836690 -0.569918
C3    C     C_R   0.477588 0.367216 0.135009 1.009857
C4    C     C_R   0.522412 0.632783 0.864990 1.009837
O11   O     O_R   0.638180 0.333930 0.336700 -0.600086
O12   O     O_R   0.361820 0.666070 0.663300 -0.600080
O13   O     O_3   0.471670 0.191340 0.250000 -0.266157
O14   O     O_3   0.528330 0.808660 0.750000 -0.266201
V1    V     V_3+5 0.196830 0.260900 0.250000 1.221226
V2    V     V_3+5 0.803170 0.739100 0.750000 1.221214
O15   O     O_R   0.808420 0.155070 0.163920 -0.587787
O16   O     O_R   0.191580 0.844930 0.836080 -0.587884
C5    C     C_R   0.977384 0.134862 0.133462 1.021777
C6    C     C_R   0.022618 0.865131 0.866544 1.021896
O17   O     O_R   0.808420 0.155080 0.336070 -0.598040
O18   O     O_R   0.191580 0.844920 0.663930 -0.598032
C7    C     C_R   0.977086 0.134217 0.365562 0.927162
C8    C     C_R   0.022914 0.865783 0.634437 0.927173
V3    V     V_3+5 0.696830 0.239130 0.250000 1.214319
V4    V     V_3+5 0.303170 0.760870 0.750000 1.214250
O19   O     O_3   0.971850 0.308690 0.250010 -0.278947
O20   O     O_3   0.028150 0.691310 0.749990 -0.278928
H1    H     H_    0.885597 0.827140 0.252759 0.186468
H2    H     H_    0.114402 0.172859 0.747240 0.186451
C9    C     C_R   0.041971 0.188778 0.537553 -0.319812
C10   C     C_R   0.958028 0.811222 0.462447 -0.319810
C11   C     C_R   0.074937 0.217934 0.619874 0.422057
C12   C     C_R   0.925062 0.782066 0.380126 0.422044
C13   C     C_R   0.089410 0.152333 0.683214 -0.206084
C14   C     C_R   0.910589 0.847667 0.316785 -0.206032
C15   C     C_R   0.069507 0.059492 0.665371 -0.219144
C16   C     C_R   0.930492 0.940508 0.334629 -0.219126
C17   C     C_R   0.035648 0.028821 0.583045 0.127381
C18   C     C_R   0.964352 0.971179 0.416954 0.127372
C19   C     C_R   0.022416 0.094671 0.517694 0.070646
C20   C     C_R   0.977583 0.905329 0.482306 0.070646
C21   C     C_R   0.012753 0.934197 0.565572 -0.255860
C22   C     C_R   0.987247 0.065803 0.434428 -0.255852
H3    H     H_    0.030940 0.240343 0.489249 0.153169
H4    H     H_    0.969059 0.759656 0.510750 0.153170
H5    H     H_    0.079954 0.012177 0.717198 0.120409
H6    H     H_    0.920045 0.987822 0.282801 0.120402
C23   C     C_R   0.149664 0.002171 0.941684 -0.221678
C24   C     C_R   0.850359 0.997800 0.058343 -0.221389
H7    H     H_    0.262900 0.006083 0.895113 0.178165
H8    H     H_    0.737141 0.993891 0.104923 0.178266
C25   C     C_R   0.138777 0.070633 0.003221 0.408087
C26   C     C_R   0.861258 0.929326 0.996814 0.407957
C27   C     C_R   0.988453 0.067989 0.063351 -0.334296
C28   C     C_R   0.011555 0.931987 0.936669 -0.334245
C29   C     C_R   0.323366 0.482584 0.461047 -0.012409
C30   C     C_R   0.676634 0.517416 0.538952 -0.012413
H9    H     H_    0.184854 0.470240 0.431956 0.164894
H10   H     H_    0.815146 0.529760 0.568044 0.164895
C31   C     C_R   0.334325 0.546113 0.526389 -0.017477
C32   C     C_R   0.665675 0.453887 0.473611 -0.017478
H11   H     H_    0.203745 0.581024 0.545596 0.150576
H12   H     H_    0.796255 0.418976 0.454404 0.150576
C33   C     C_R   0.511203 0.564477 0.566158 -0.218700
C34   C     C_R   0.488797 0.435523 0.433841 -0.218696
C35   C     C_R   0.320381 0.473987 0.032016 -0.055720
C36   C     C_R   0.679619 0.526013 0.967984 -0.055686
H13   H     H_    0.179511 0.454909 0.055568 0.128910
H14   H     H_    0.820489 0.545091 0.944431 0.128927
C37   C     C_R   0.331446 0.537608 0.966772 -0.095174
C38   C     C_R   0.668554 0.462392 0.033228 -0.095196
H15   H     H_    0.198568 0.565795 0.942229 0.133017
H16   H     H_    0.801431 0.434204 0.057771 0.133004
C39   C     C_R   0.511218 0.564465 0.933826 -0.138051
C40   C     C_R   0.488782 0.435535 0.066174 -0.138057
N1    N     N_R   0.092060 0.313963 0.639211 0.236126
O21   O     O_R   0.138418 0.340658 0.714068 -0.388708
O22   O     O_R   0.057456 0.375721 0.582633 -0.472673
N2    N     N_R   0.907939 0.686037 0.360789 0.236130
O23   O     O_R   0.861580 0.659342 0.285931 -0.388683
O24   O     O_R   0.942543 0.624279 0.417367 -0.472671
N3    N     N_R   0.275316 0.144664 0.000656 0.232767
O25   O     O_R   0.215319 0.229100 0.004423 -0.419135
O26   O     O_R   0.454309 0.128747 0.980705 -0.396239
N4    N     N_R   0.724801 0.855255 0.999419 0.232778
O27   O     O_R   0.784855 0.770843 0.995479 -0.419140
O28   O     O_R   0.545953 0.871083 0.019642 -0.396211

loop_
_geom_bond_atom_site_label_1
_geom_bond_atom_site_label_2
_geom_bond_distance
_ccdc_geom_bond_type
C7    C22   1.489207 S    
C29   C34   1.405237 A    
C32   H12   1.082791 S    
N3    O25   1.301375 A    
C8    C21   1.489207 S    
O13   V3    1.709309 S    
O4    C2    1.301691 A    
V1    O19   1.707915 S    
C1    C34   1.488509 S    
N1    O21   1.301678 A    
C13   C15   1.391231 A    
C5    C27   1.489883 S    
O9    V1    2.002401 S    
C2    C33   1.488509 S    
C37   C39   1.408232 A    
C12   C14   1.398302 A    
C38   H16   1.082763 S    
C36   C39   1.406172 A    
O3    C1    1.301692 A    
V2    O20   1.707914 S    
C25   C27   1.418710 A    
O12   V4    2.001727 S    
C29   H9    1.082747 S    
O7    C3    1.301179 A    
C30   H10   1.082747 S    
O5    C7    1.294403 A    
O7    V1    2.000103 S    
O6    C8    1.294403 A    
O8    V2    2.000100 S    
C31   H11   1.082791 S    
C9    H3    1.081820 S    
O3    V1    2.002021 S    
O14   V4    1.709309 S    
V4    O20   2.159562 S    
C36   C38   1.399683 A    
C14   C16   1.391231 A    
C3    C40   1.488179 S    
C2    O12   1.296347 A    
C15   C17   1.412769 A    
C11   N1    1.439781 S    
C16   C18   1.412770 A    
C35   C40   1.406171 A    
N1    O22   1.300271 A    
C23   C28   1.404129 A    
C18   C20   1.423718 A    
O11   V3    2.001726 S    
C24   C27   1.404117 A    
C23   H7    1.083785 S    
O17   V3    2.000973 S    
C24   H8    1.083780 S    
H1    C14   1.082794 S    
C30   C32   1.400477 A    
H2    C13   1.082795 S    
N2    O23   1.301677 A    
C36   H14   1.082730 S    
O8    C4    1.301181 A    
C35   H13   1.082730 S    
C23   C25   1.405535 A    
C1    O11   1.296348 A    
O15   V3    2.000532 S    
C25   N3    1.436625 S    
C30   C33   1.405237 A    
C17   C19   1.423718 A    
N4    O28   1.301473 A    
C6    C28   1.489889 S    
O10   V2    2.002403 S    
O1    V3    2.001425 S    
C4    C39   1.488177 S    
C10   C20   1.415898 A    
C26   N4    1.436688 S    
O18   V4    2.000974 S    
O15   C5    1.301947 A    
O16   C6    1.301945 A    
O1    C3    1.296625 A    
C9    C19   1.415897 A    
C10   H4    1.081820 S    
C9    C11   1.404834 A    
C24   C26   1.405582 A    
C19   C22   1.420356 A    
C20   C21   1.420355 A    
O16   V4    2.000532 S    
C12   N2    1.439781 S    
C38   C40   1.408232 A    
N2    O24   1.300274 A    
O5    V1    2.000973 S    
O17   C7    1.297456 A    
O6    V2    2.000976 S    
O10   C6    1.295843 A    
O18   C8    1.297456 A    
O2    V4    2.001422 S    
C10   C12   1.404833 A    
C11   C13   1.398301 A    
C35   C37   1.399682 A    
N4    O27   1.301313 A    
C32   C34   1.408013 A    
C17   C21   1.417556 A    
C31   C33   1.408013 A    
O9    C5    1.295837 A    
O13   V1    2.158104 S    
O14   V2    2.158104 S    
O2    C4    1.296626 A    
O4    V2    2.002023 S    
C29   C31   1.400477 A    
V3    O19   2.159563 S    
C37   H15   1.082763 S    
N3    O26   1.301590 A    
C26   C28   1.418762 A    
C15   H5    1.082061 S    
C18   C22   1.417556 A    
C16   H6    1.082059 S    
