data_mof_unit_51951.cif
_audit_creation_date              2012-12-10T17:40:56-0500
_audit_creation_method            fapswitch 2.2
_symmetry_space_group_name_H-M    P1
_symmetry_Int_Tables_number       1
_space_group_crystal_system       triclinic
_cell_length_a                    14.670388
_cell_length_b                    15.538924
_cell_length_c                    9.960796
_cell_angle_alpha                 88.11361
_cell_angle_beta                  90.836925
_cell_angle_gamma                 91.10699
_cell_volume                      2268.80752015

loop_
_atom_site_label
_atom_site_type_symbol
_atom_type_description
_atom_site_fract_x
_atom_site_fract_y
_atom_site_fract_z
_atom_type_partial_charge
C1    C     C_R   0.395469 0.869743 0.502033 0.875673
C2    C     C_R   0.389368 0.127321 0.497347 0.882120
C3    C     C_R   0.895470 0.369742 0.502033 0.875664
C4    C     C_R   0.889369 0.627321 0.497345 0.882119
C5    C     C_R   0.295718 0.238364 0.373326 0.171564
C6    C     C_R   0.325532 0.744845 0.388790 0.172823
C7    C     C_R   0.795713 0.738356 0.373322 0.171576
C8    C     C_R   0.825533 0.244844 0.388790 0.172849
C9    C     C_R   0.721366 0.790204 0.384038 -0.229799
C10   C     C_R   0.743694 0.198833 0.387141 -0.226245
C11   C     C_R   0.221379 0.290224 0.384033 -0.229810
C12   C     C_R   0.243693 0.698835 0.387140 -0.226235
C13   C     C_R   0.689159 0.813758 0.507941 -0.173441
C14   C     C_R   0.692772 0.186230 0.504384 -0.181344
C15   C     C_R   0.189149 0.313753 0.507934 -0.173426
C16   C     C_R   0.192772 0.686230 0.504385 -0.181347
C17   C     C_R   0.334945 0.979066 0.136306 -0.162078
C18   C     C_R   0.834943 0.479079 0.136307 -0.162067
C19   C     C_R   0.254070 0.963865 0.065276 -0.234946
C20   C     C_R   0.754067 0.463884 0.065278 -0.234938
C21   C     C_R   0.253671 0.966988 0.926193 -0.177382
C22   C     C_R   0.753669 0.467003 0.926194 -0.177383
C23   C     C_R   0.334496 0.982864 0.857701 -0.117617
C24   C     C_R   0.834495 0.482872 0.857701 -0.117628
C25   C     C_R   0.418664 0.990279 0.926603 0.135408
C26   C     C_R   0.918664 0.490284 0.926603 0.135406
C27   C     C_R   0.418771 0.989544 0.070752 0.118553
C28   C     C_R   0.918770 0.489550 0.070752 0.118553
C29   C     C_R   0.578954 0.009181 0.070301 0.195141
C30   C     C_R   0.078954 0.509176 0.070302 0.195104
C31   C     C_R   0.618832 0.122798 0.500243 0.873147
C32   C     C_R   0.618777 0.878205 0.502953 0.868125
C33   C     C_R   0.118832 0.622798 0.500243 0.873138
C34   C     C_R   0.118773 0.378203 0.502951 0.868122
C35   C     C_R   0.577354 0.011007 0.927541 -0.142188
C36   C     C_R   0.077356 0.510999 0.927543 -0.142152
C37   C     C_R   0.378120 0.240665 0.729005 -0.131600
C38   C     C_R   0.359715 0.766086 0.754678 -0.135192
C39   C     C_R   0.878178 0.740698 0.728957 -0.131594
C40   C     C_R   0.859711 0.266088 0.754678 -0.135198
C41   C     C_R   0.347630 0.260254 0.855504 -0.144615
C42   C     C_R   0.313780 0.753014 0.874717 -0.131071
C43   C     C_R   0.847727 0.760325 0.855457 -0.144606
C44   C     C_R   0.813773 0.253022 0.874715 -0.131057
C45   C     C_R   0.757978 0.784521 0.870344 -0.167511
C46   C     C_R   0.721415 0.231591 0.872753 -0.164350
C47   C     C_R   0.257867 0.284425 0.870358 -0.167458
C48   C     C_R   0.221422 0.731581 0.872757 -0.164364
C49   C     C_R   0.701974 0.798558 0.758385 -0.155664
C50   C     C_R   0.677407 0.215206 0.750831 -0.163899
C51   C     C_R   0.201891 0.298481 0.758374 -0.155616
C52   C     C_R   0.177411 0.715200 0.750835 -0.163894
C53   C     C_R   0.735146 0.787014 0.627698 0.104111
C54   C     C_R   0.726280 0.218409 0.628556 0.103222
C55   C     C_R   0.235105 0.286981 0.627698 0.104094
C56   C     C_R   0.226282 0.718406 0.628557 0.103220
C57   C     C_R   0.318679 0.245499 0.616069 0.072923
C58   C     C_R   0.313715 0.755719 0.630623 0.082447
C59   C     C_R   0.818711 0.745520 0.616051 0.072941
C60   C     C_R   0.813713 0.255719 0.630622 0.082448
C61   C     C_R   0.338943 0.207703 0.492958 -0.206458
C62   C     C_R   0.351115 0.785020 0.508023 -0.213477
C63   C     C_R   0.838951 0.707706 0.492949 -0.206481
C64   C     C_R   0.851116 0.285019 0.508023 -0.213471
H1    H     H_    0.190020 0.959675 0.871005 0.151870
H2    H     H_    0.690017 0.459693 0.871006 0.151867
H3    H     H_    0.328365 0.990793 0.751280 0.211312
H4    H     H_    0.828365 0.490795 0.751280 0.211313
H5    H     H_    0.639419 0.021502 0.871668 0.175641
H6    H     H_    0.139424 0.521483 0.871671 0.175650
H7    H     H_    0.447923 0.220966 0.720079 0.137930
H8    H     H_    0.431210 0.784709 0.759059 0.145688
H9    H     H_    0.947973 0.720984 0.720004 0.137916
H10   H     H_    0.931207 0.284709 0.759061 0.145670
H11   H     H_    0.392399 0.253033 0.942283 0.132575
H12   H     H_    0.349381 0.763096 0.968231 0.146373
H13   H     H_    0.892516 0.753117 0.942215 0.132568
H14   H     H_    0.849373 0.263107 0.968227 0.146368
H15   H     H_    0.731148 0.792501 0.968460 0.147224
H16   H     H_    0.684018 0.226843 0.965673 0.129015
H17   H     H_    0.231004 0.292371 0.968464 0.147173
H18   H     H_    0.184027 0.726830 0.965678 0.129017
H19   H     H_    0.632256 0.813994 0.778084 0.163187
H20   H     H_    0.605075 0.202380 0.754803 0.150493
H21   H     H_    0.132160 0.313898 0.778035 0.163126
H22   H     H_    0.105080 0.702373 0.754810 0.150494
H23   H     H_    0.687458 0.811624 0.292366 0.183764
H24   H     H_    0.720806 0.171458 0.294213 0.165542
H25   H     H_    0.187490 0.311663 0.292356 0.183791
H26   H     H_    0.220805 0.671460 0.294211 0.165550
H27   H     H_    0.328533 0.988292 0.241213 0.219324
H28   H     H_    0.828533 0.488304 0.241216 0.219328
H29   H     H_    0.190533 0.955103 0.118394 0.153972
H30   H     H_    0.690530 0.455127 0.118395 0.153965
N1    N     N_R   0.498810 0.000000 0.142780 -0.152914
N2    N     N_R   0.998810 0.500000 0.142780 -0.152913
N3    N     N_R   0.498740 0.000000 0.857170 -0.151591
N4    N     N_R   0.998740 0.500000 0.857170 -0.151588
O1    O     O_R   0.408390 0.908380 0.614690 -0.636163
O2    O     O_R   0.408390 0.091620 0.614690 -0.635703
O3    O     O_R   0.908390 0.408380 0.614690 -0.636166
O4    O     O_R   0.908390 0.591620 0.614690 -0.635696
O5    O     O_R   0.408370 0.908380 0.385360 -0.644620
O6    O     O_R   0.408370 0.091620 0.385360 -0.623652
O7    O     O_R   0.908370 0.408380 0.385360 -0.644621
O8    O     O_R   0.908370 0.591620 0.385360 -0.623659
O9    O     O_R   0.591620 0.091610 0.614640 -0.625904
O10   O     O_R   0.591620 0.908390 0.614640 -0.630827
O11   O     O_R   0.091620 0.591610 0.614640 -0.625906
O12   O     O_R   0.091620 0.408390 0.614640 -0.630804
O13   O     O_R   0.591610 0.091610 0.385310 -0.647606
O14   O     O_R   0.591610 0.908390 0.385310 -0.638657
O15   O     O_R   0.091610 0.591610 0.385310 -0.647602
O16   O     O_R   0.091610 0.408390 0.385310 -0.638668
Zn1   Zn    Zn3+2 0.500010 0.000000 0.653130 0.910783
Zn2   Zn    Zn3+2 0.000010 0.500000 0.653130 0.910792
Zn3   Zn    Zn3+2 0.499980 0.000000 0.346870 0.900876
Zn4   Zn    Zn3+2 0.999980 0.500000 0.346870 0.900872
C65   C     C_3   0.323691 0.220730 0.231200 -0.399316
C66   C     C_3   0.251887 0.163502 0.164003 -0.854250
H31   H     H_    0.234761 0.107166 0.230596 0.265330
H32   H     H_    0.187824 0.198830 0.144254 0.235180
H33   H     H_    0.277603 0.142276 0.066673 0.270627
H34   H     H_    0.328613 0.282985 0.173460 0.183089
H35   H     H_    0.392616 0.194271 0.222774 0.230727
C67   C     C_3   0.384310 0.749715 0.264532 -0.377397
C68   C     C_3   0.406988 0.660772 0.214501 -0.928728
H36   H     H_    0.435870 0.619948 0.297709 0.272789
H37   H     H_    0.345652 0.628507 0.172231 0.266031
H38   H     H_    0.458211 0.667666 0.133637 0.250435
H39   H     H_    0.348361 0.787918 0.185131 0.207482
H40   H     H_    0.451161 0.781530 0.285129 0.235178
C69   C     C_3   0.823709 0.720748 0.231196 -0.399318
C70   C     C_3   0.751915 0.663543 0.163931 -0.854258
H41   H     H_    0.734751 0.607205 0.230498 0.265339
H42   H     H_    0.687871 0.698889 0.144133 0.235175
H43   H     H_    0.777663 0.642317 0.066619 0.270639
H44   H     H_    0.828651 0.783015 0.173494 0.183096
H45   H     H_    0.892632 0.694283 0.222784 0.230733
C71   C     C_3   0.884303 0.249721 0.264523 -0.377433
C72   C     C_3   0.906998 0.160783 0.214497 -0.928808
H46   H     H_    0.935926 0.119983 0.297690 0.272801
H47   H     H_    0.845661 0.128492 0.172292 0.266054
H48   H     H_    0.958187 0.167685 0.133588 0.250437
H49   H     H_    0.848338 0.287911 0.185126 0.207484
H50   H     H_    0.951149 0.281548 0.285099 0.235207
C73   C     C_3   0.671108 0.022216 0.137000 -0.380242
C74   C     C_3   0.742192 0.959180 0.092976 -0.960156
H51   H     H_    0.714512 0.893272 0.107970 0.258490
H52   H     H_    0.761323 0.970776 0.986534 0.271020
H53   H     H_    0.804910 0.965894 0.155867 0.259433
H54   H     H_    0.695518 0.088716 0.112551 0.176735
H55   H     H_    0.668119 0.012414 0.245555 0.283206
C75   C     C_3   0.171109 0.522201 0.137005 -0.380252
C76   C     C_3   0.242185 0.459158 0.092975 -0.960044
H56   H     H_    0.214460 0.393250 0.107828 0.258480
H57   H     H_    0.261380 0.470818 0.986566 0.271006
H58   H     H_    0.304873 0.465800 0.155960 0.259414
H59   H     H_    0.195527 0.588699 0.112561 0.176720
H60   H     H_    0.168117 0.512400 0.245559 0.283205

loop_
_geom_bond_atom_site_label_1
_geom_bond_atom_site_label_2
_ccdc_geom_bond_type
C8    C71   S    
C58   C62   A    
C67   C68   S    
C40   C60   A    
C76   H57   S    
C13   C32   S    
C27   N1    A    
C73   C74   S    
C17   H27   S    
C74   H53   S    
C14   C31   S    
C1    C62   S    
C51   H21   S    
C70   H43   S    
C68   H37   S    
C53   C59   A    
C50   H20   S    
C54   C60   A    
C3    C64   S    
N1    Zn3   S    
C4    C63   S    
C10   H24   S    
C50   C54   A    
C5    C65   S    
O10   Zn1   S    
N2    Zn4   S    
C19   C21   A    
C24   C26   A    
C5    C11   A    
C72   H47   S    
O1    Zn1   S    
O14   Zn3   S    
C23   H3    S    
C9    C13   A    
C22   H2    S    
C30   N2    A    
O11   Zn2   S    
C38   C58   A    
C11   C15   A    
C12   C16   A    
C48   H18   S    
C4    O4    A    
C42   H12   S    
C45   C49   A    
N3    Zn1   S    
C1    O5    A    
C15   C34   S    
C18   C20   A    
C19   H29   S    
C2    C61   S    
C3    O3    A    
C39   H9    S    
C2    O2    A    
C69   H44   S    
O8    Zn4   S    
C76   H58   S    
C1    O1    A    
O5    Zn3   S    
O2    Zn1   S    
C52   H22   S    
C6    C12   A    
C26   C28   A    
C44   C46   A    
C46   C50   A    
C13   C53   A    
C56   C58   A    
C21   C23   A    
C39   C43   A    
C36   H6    S    
C38   H8    S    
C59   C63   A    
C17   C27   A    
C18   C28   A    
C74   H51   S    
C6    C67   S    
C10   C14   A    
C72   H48   S    
C71   H50   S    
C29   N1    A    
C47   C51   A    
C65   H34   S    
C4    O8    A    
C3    O7    A    
C60   C64   A    
C15   C55   A    
C16   C56   A    
C75   H60   S    
C16   C33   S    
C41   H11   S    
C11   H25   S    
N4    Zn2   S    
C2    O6    A    
C39   C59   A    
C41   C47   A    
C5    C61   A    
C45   H15   S    
C42   C48   A    
C71   C72   S    
C57   C61   A    
C43   C45   A    
C7    C63   A    
C75   C76   S    
O16   Zn4   S    
C8    C64   A    
C65   H35   S    
C25   N3    A    
C14   C54   A    
C26   N4    A    
C69   H45   S    
C30   C75   S    
C37   H7    S    
C69   C70   S    
C34   O12   A    
C22   C24   A    
O7    Zn4   S    
C34   O16   A    
C20   C22   A    
C40   C44   A    
C68   H36   S    
O12   Zn2   S    
C66   H31   S    
C66   H32   S    
O6    Zn3   S    
C12   H26   S    
C7    C9    A    
C20   H30   S    
C32   O14   A    
C21   H1    S    
C31   O9    A    
C74   H52   S    
C71   H49   S    
C29   C73   S    
C70   H42   S    
C65   C66   S    
C66   H33   S    
C7    C69   S    
C70   H41   S    
C30   C36   A    
C43   H13   S    
C29   C35   A    
C33   O15   A    
O13   Zn3   S    
C28   N2    A    
C18   H28   S    
C6    C62   A    
C55   C57   A    
C73   H54   S    
C68   H38   S    
C75   H59   S    
C72   H46   S    
C9    H23   S    
C46   H16   S    
C49   H19   S    
C67   H39   S    
C49   C53   A    
C44   H14   S    
C17   C19   A    
C40   H10   S    
O9    Zn1   S    
C51   C55   A    
C47   H17   S    
C37   C41   A    
C73   H55   S    
O4    Zn2   S    
C67   H40   S    
C24   H4    S    
O15   Zn4   S    
C38   C42   A    
C48   C52   A    
C23   C25   A    
C33   O11   A    
C35   H5    S    
C8    C10   A    
C32   O10   A    
C76   H56   S    
O3    Zn2   S    
C31   O13   A    
C36   N4    A    
C35   N3    A    
C37   C57   A    
C52   C56   A    
C25   C27   A    
