data_mof_unit_25825.cif
_audit_creation_date              2012-12-11T17:39:30-0500
_audit_creation_method            fapswitch 2.2
_symmetry_space_group_name_H-M    P1
_symmetry_Int_Tables_number       1
_space_group_crystal_system       triclinic
_cell_length_a                    14.895198
_cell_length_b                    15.129519
_cell_length_c                    14.826506
_cell_angle_alpha                 109.175257
_cell_angle_beta                  108.803251
_cell_angle_gamma                 110.279472
_cell_volume                      2576.684604

loop_
_atom_site_label
_atom_site_type_symbol
_atom_type_description
_atom_site_fract_x
_atom_site_fract_y
_atom_site_fract_z
_atom_type_partial_charge
C1    C     C_R   0.905516 0.979986 0.717592 -0.126196
C2    C     C_R   0.995628 0.321211 0.539173 0.034445
C3    C     C_R   0.368275 0.295297 0.799613 0.065738
C4    C     C_R   0.625813 0.918083 0.420419 0.067958
C5    C     C_R   0.735666 0.686453 0.277775 -0.149014
C6    C     C_R   0.258581 0.037675 0.442245 -0.059373
C7    C     C_R   0.089440 0.786329 0.585738 -0.122888
C8    C     C_R   0.910165 0.997777 0.197920 -0.138954
C9    C     C_R   0.092382 0.087800 0.286139 -0.085609
C10   C     C_R   0.905698 0.697186 0.494695 -0.153055
C11   C     C_R   0.739254 0.778151 0.185264 -0.102088
C12   C     C_R   0.089888 0.314244 0.558162 -0.142774
C13   C     C_R   0.258719 0.944137 0.532014 -0.122119
C14   C     C_R   0.702809 0.675608 0.174712 0.114123
C15   C     C_R   0.291241 0.966297 0.459245 0.019714
C16   C     C_R   0.995491 0.692048 0.548627 0.055701
C17   C     C_R   0.000550 0.049774 0.188509 0.080757
C18   C     C_R   0.478147 0.577843 0.391767 -0.102170
C19   C     C_R   0.466457 0.657132 0.368925 -0.158145
C20   C     C_R   0.463560 0.740287 0.444258 0.113380
C21   C     C_R   0.472923 0.742736 0.542750 -0.181887
C22   C     C_R   0.484407 0.663216 0.565027 -0.093293
C23   C     C_R   0.301351 0.205241 0.798149 -0.145818
C24   C     C_R   0.486543 0.580615 0.489450 -0.083418
C25   C     C_R   0.366370 0.843196 0.431456 -0.215925
C26   C     C_R   0.349787 0.922454 0.411556 0.071791
C27   C     C_R   0.395138 0.959817 0.351626 0.111746
C28   C     C_R   0.464847 0.927907 0.327422 -0.157812
C29   C     C_R   0.507321 0.878737 0.379622 0.014443
C30   C     C_R   0.446893 0.822014 0.418372 0.037169
C31   C     C_R   0.304914 0.026772 0.235005 -0.057911
C32   C     C_R   0.309693 0.114953 0.220000 -0.243478
C33   C     C_R   0.399360 0.220042 0.294832 -0.186175
C34   C     C_R   0.693276 0.987085 0.397851 -0.135367
C35   C     C_R   0.486773 0.239687 0.386578 0.017376
C36   C     C_R   0.481896 0.152718 0.403496 -0.215764
C37   C     C_R   0.391826 0.046922 0.329234 -0.019469
C38   C     C_R   0.808519 0.177474 0.172767 -0.128034
C39   C     C_R   0.881026 0.268306 0.277603 -0.114004
C40   C     C_R   0.839821 0.309895 0.343257 0.101275
C41   C     C_R   0.725668 0.260113 0.302511 -0.161383
C42   C     C_R   0.653677 0.168588 0.198386 -0.118833
C43   C     C_R   0.695049 0.127447 0.133422 -0.105976
C44   C     C_R   0.915912 0.501281 0.459852 -0.219321
C45   C     C_R   0.305614 0.295782 0.706530 -0.025202
C46   C     C_R   0.987667 0.599078 0.557270 0.058964
C47   C     C_R   0.053829 0.605866 0.654340 0.032407
C48   C     C_R   0.055482 0.512403 0.647598 -0.226427
C49   C     C_R   0.987662 0.414926 0.547130 0.081352
C50   C     C_R   0.914709 0.408637 0.452836 0.023339
C51   C     C_R   0.232571 0.752225 0.824993 -0.147095
C52   C     C_R   0.296463 0.854946 0.918932 -0.054512
C53   C     C_R   0.248067 0.915497 0.948468 -0.136160
C54   C     C_R   0.135002 0.872052 0.886706 -0.064848
C55   C     C_R   0.070596 0.768701 0.794023 -0.130270
C56   C     C_R   0.692794 0.897535 0.489490 -0.146632
C57   C     C_R   0.119442 0.708904 0.760744 0.087519
C58   C     C_2   0.558027 0.445401 0.884051 -0.065156
C59   C     C_2   0.483860 0.364602 0.883975 -0.192219
C60   C     C_2   0.644707 0.545205 0.988577 -0.107589
C61   C     C_2   0.628177 0.573080 0.074840 -0.167391
C62   C     C_R   0.363651 0.384351 0.095664 -0.131170
C63   C     C_R   0.280575 0.293168 0.082461 -0.184568
C64   C     C_R   0.172021 0.272083 0.039372 0.127379
C65   C     C_R   0.147511 0.342683 0.008119 -0.131455
C66   C     C_R   0.230752 0.434029 0.021895 -0.086287
C67   C     C_R   0.906168 0.218377 0.474421 -0.102061
C68   C     C_R   0.338818 0.455148 0.066109 -0.088006
C69   C     C_R   0.085347 0.162960 0.114868 -0.257711
C70   C     C_R   0.995842 0.074021 0.099233 0.083312
C71   C     C_R   0.898478 0.009935 0.996596 0.005015
C72   C     C_R   0.891567 0.036853 0.915577 -0.231247
C73   C     C_R   0.988204 0.101532 0.920967 0.053766
C74   C     C_R   0.082706 0.176099 0.024521 0.019627
C75   C     C_R   0.835329 0.814607 0.926450 -0.075788
C76   C     C_R   0.751072 0.707675 0.874609 -0.178711
C77   C     C_R   0.646147 0.685625 0.857543 -0.170102
C78   C     C_R   0.088302 0.069034 0.811575 -0.131966
C79   C     C_R   0.624171 0.769867 0.891692 -0.002679
C80   C     C_R   0.707365 0.876750 0.937397 -0.283622
C81   C     C_R   0.813669 0.899516 0.958100 0.112108
C82   C     C_R   0.995269 0.059668 0.820184 0.056179
H1    H     H_    0.819922 0.951520 0.692129 0.101668
H2    H     H_    0.268850 0.075201 0.394139 0.130908
H3    H     H_    0.173260 0.812264 0.640435 0.109186
H4    H     H_    0.827307 0.978127 0.149876 0.106594
H5    H     H_    0.175927 0.146652 0.314622 0.123384
H6    H     H_    0.820855 0.642702 0.467511 0.105479
H7    H     H_    0.722772 0.797779 0.120123 0.115494
H8    H     H_    0.271917 0.893723 0.565795 0.098487
H9    H     H_    0.494454 0.518729 0.506698 0.137347
H10   H     H_    0.480190 0.513941 0.333557 0.148755
H11   H     H_    0.459081 0.653483 0.292526 0.122275
H12   H     H_    0.173335 0.380756 0.602586 0.138382
H13   H     H_    0.471717 0.806359 0.602464 0.124970
H14   H     H_    0.491143 0.665344 0.640693 0.136300
H15   H     H_    0.321246 0.801552 0.462928 0.125686
H16   H     H_    0.499868 0.959404 0.283699 0.116083
H17   H     H_    0.243681 0.101918 0.149420 0.153217
H18   H     H_    0.400400 0.286490 0.281688 0.150217
H19   H     H_    0.549002 0.166588 0.474156 0.158593
H20   H     H_    0.638872 0.057376 0.052334 0.130851
H21   H     H_    0.328137 0.172437 0.849372 0.104519
H22   H     H_    0.840225 0.146307 0.121788 0.119643
H23   H     H_    0.968733 0.306512 0.307300 0.116744
H24   H     H_    0.692820 0.291900 0.351863 0.134434
H25   H     H_    0.565833 0.130049 0.167802 0.116494
H26   H     H_    0.864775 0.498069 0.386074 0.139545
H27   H     H_    0.108279 0.514930 0.719822 0.130606
H28   H     H_    0.271402 0.708078 0.799603 0.144668
H29   H     H_    0.383912 0.888884 0.967963 0.153555
H30   H     H_    0.298349 0.996048 0.019301 0.104701
H31   H     H_    0.097403 0.918763 0.910162 0.131208
H32   H     H_    0.668258 0.009952 0.336469 0.095325
H33   H     H_    0.983193 0.736629 0.746342 0.115644
H34   H     H_    0.548952 0.444052 0.808358 0.139327
H35   H     H_    0.504239 0.357335 0.957506 0.132811
H36   H     H_    0.716732 0.600927 0.991934 0.138202
H37   H     H_    0.557064 0.519824 0.074177 0.124303
H38   H     H_    0.402950 0.526379 0.077234 0.112044
H39   H     H_    0.447166 0.399920 0.128638 0.108380
H40   H     H_    0.299944 0.237077 0.101761 0.106017
H41   H     H_    0.064070 0.327459 0.974008 0.114126
H42   H     H_    0.211508 0.488578 0.998497 0.117709
H43   H     H_    0.157422 0.219524 0.195165 0.130079
H44   H     H_    0.814667 0.986456 0.839273 0.132949
H45   H     H_    0.916101 0.831092 0.937764 0.154076
H46   H     H_    0.766930 0.641798 0.847578 0.142719
H47   H     H_    0.581957 0.602867 0.817051 0.195464
H48   H     H_    0.690937 0.942689 0.959596 0.145671
H49   H     H_    0.667928 0.838933 0.515356 0.117940
H50   H     H_    0.820459 0.194479 0.443842 0.115610
H51   H     H_    0.172716 0.120668 0.876046 0.113475
H52   H     H_    0.716521 0.622323 0.298000 0.106973
N1    N     N_R   0.941940 0.944580 0.650780 -0.043511
N2    N     N_R   0.206190 0.054080 0.497260 -0.033662
N3    N     N_R   0.056380 0.847410 0.553580 -0.041395
N4    N     N_R   0.944890 0.999100 0.292900 -0.045731
N5    N     N_R   0.058060 0.055420 0.349220 -0.040701
N6    N     N_R   0.943200 0.791100 0.497260 -0.036554
N7    N     N_R   0.795540 0.849750 0.292910 -0.047911
N8    N     N_R   0.205730 0.996760 0.553580 -0.046509
N9    N     N_R   0.056800 0.208900 0.502740 -0.039797
N10   N     N_R   0.204460 0.150250 0.707090 -0.050384
N11   N     N_R   0.794270 0.003240 0.446420 -0.041461
N12   N     N_R   0.204920 0.207570 0.650770 -0.069438
N13   N     N_R   0.793810 0.945920 0.502740 -0.041800
N14   N     N_R   0.943620 0.152590 0.446420 -0.046790
N15   N     N_R   0.055110 0.000900 0.707100 -0.042069
N16   N     N_R   0.795080 0.792430 0.349230 -0.040710
Ni1   Ni    Ni4+2 0.869690 0.869690 0.500000 0.212761
Ni2   Ni    Ni4+2 0.130310 0.130310 0.500000 0.258792
Ni3   Ni    Ni4+2 0.129250 0.998840 0.629170 0.216101
Ni4   Ni    Ni4+2 0.870750 0.001160 0.370830 0.215767
C83   C     C_2   0.206375 0.916968 0.155578 0.978815
O1    O     O_2   0.118175 0.907785 0.103000 -0.683501
O2    O     O_R   0.213726 0.823900 0.139479 -0.799806
H53   H     H_    0.140973 0.754551 0.082600 0.326425
C84   C     C_2   0.583835 0.350375 0.463255 0.934278
O3    O     O_2   0.650688 0.371679 0.552585 -0.650969
O4    O     O_R   0.600521 0.430212 0.432529 -0.850237
H54   H     H_    0.670209 0.501923 0.491132 0.318026
C85   C     C_2   0.346052 0.355824 0.654724 0.924452
O5    O     O_2   0.390024 0.454441 0.701616 -0.653937
O6    O     O_R   0.327140 0.298980 0.548613 -0.824378
H55   H     H_    0.356638 0.348748 0.520528 0.309606
C86   C     C_2   0.515859 0.746333 0.882393 0.968342
O7    O     O_2   0.486246 0.812500 0.884450 -0.708868
O8    O     O_R   0.448809 0.649603 0.874700 -0.765466
H56   H     H_    0.378796 0.644114 0.873796 0.311933

loop_
_geom_bond_atom_site_label_1
_geom_bond_atom_site_label_2
_ccdc_geom_bond_type
C66   C68   A    
C79   C80   A    
C40   C41   A    
O2    H53   S    
C13   H8    S    
C61   H37   S    
C41   C42   A    
C3    C23   A    
C35   C36   A    
C2    C12   A    
O4    H54   S    
C86   O8    S    
C20   C30   S    
C53   C54   A    
C10   H6    S    
C26   C27   A    
O6    H55   S    
C10   N6    A    
C18   C24   A    
C36   C37   A    
C85   O6    S    
C38   C39   A    
C80   C81   A    
C34   N11   A    
C40   C50   S    
N7    Ni4   S    
C83   O2    S    
C58   C60   S    
C54   H31   S    
N5    Ni2   S    
C8    N4    A    
C18   C19   A    
O8    H56   S    
N10   Ni3   S    
C78   C82   A    
C6    N2    A    
C67   N14   A    
N11   N13   A    
C6    C15   A    
C54   C55   A    
C85   O5    D    
C23   H21   S    
C47   C48   A    
N2    N8    A    
C84   O4    S    
C60   H36   S    
C70   C71   A    
C51   C57   A    
C29   C30   A    
C42   H25   S    
C8    H4    S    
C4    C29   S    
C19   H11   S    
N4    Ni4   S    
C77   C79   A    
C48   H27   S    
C69   H43   S    
C17   C70   S    
C59   H35   S    
C21   C22   A    
C4    C56   A    
C58   H34   S    
C12   H12   S    
N9    N14   A    
N14   Ni4   S    
N2    Ni2   S    
C86   O7    D    
C44   C46   A    
N7    N16   A    
C44   H26   S    
C73   C74   A    
C5    H52   S    
N3    N6    A    
C4    C34   A    
C80   H48   S    
C41   H24   S    
C45   N12   A    
C6    H2    S    
C76   C77   A    
N10   N12   A    
C2    C67   A    
C16   C46   S    
C39   C40   A    
C7    N3    A    
C75   C81   A    
C15   C26   S    
C21   H13   S    
C52   H29   S    
C25   C26   A    
N1    N15   A    
C14   C61   S    
C3    C45   A    
C5    N16   A    
C51   C52   A    
C72   H44   S    
C36   H19   S    
N13   Ni1   S    
C75   C76   A    
C62   C63   A    
C2    C49   S    
C28   H16   S    
C47   C57   S    
C11   H7    S    
C31   C83   S    
C84   O3    D    
C48   C49   A    
N3    Ni3   S    
C69   C74   A    
C77   H47   S    
C13   N8    A    
C11   N7    A    
N6    Ni1   S    
C5    C14   A    
N12   Ni2   S    
N11   Ni4   S    
C53   H30   S    
C9    C17   A    
N9    Ni2   S    
C65   C66   A    
C51   H28   S    
C13   C15   A    
C76   H46   S    
C66   H42   S    
C22   C24   A    
C23   N10   A    
C58   C59   D    
C34   H32   S    
C42   C43   A    
C24   H9    S    
C73   C82   S    
C27   C28   A    
C63   H40   S    
C52   C53   A    
C44   C50   A    
C25   C30   A    
C39   H23   S    
C46   C47   A    
C28   C29   A    
C22   H14   S    
C31   C32   A    
C7    C16   A    
C25   H15   S    
C72   C73   A    
C38   H22   S    
C12   N9    A    
C1    H1    S    
C19   C20   A    
C8    C17   A    
C32   H17   S    
C62   C68   A    
C33   H18   S    
C18   H10   S    
C64   C65   A    
C56   N13   A    
C55   C57   A    
C1    C82   A    
C43   H20   S    
C38   C43   A    
C10   C16   A    
C32   C33   A    
C9    N5    A    
C33   C35   A    
C7    H3    S    
C55   H33   S    
C27   C37   S    
N1    Ni1   S    
N15   Ni3   S    
C11   C14   A    
C67   H50   S    
C75   H45   S    
C65   H41   S    
N8    Ni3   S    
C45   C85   S    
C69   C70   A    
C78   H51   S    
C35   C84   S    
C56   H49   S    
N4    N5    A    
C63   C64   A    
C31   C37   A    
C71   C72   A    
C20   C21   A    
C68   H38   S    
C49   C50   A    
C83   O1    D    
C64   C74   S    
N16   Ni1   S    
C60   C61   D    
C79   C86   S    
C1    N1    A    
C62   H39   S    
C9    H5    S    
C78   N15   A    
C71   C81   S    
C3    C59   S    
