data_mof_unit_20376.cif
_audit_creation_date              2012-10-26T20:02:25-0400
_audit_creation_method            fapswitch 2.2
_symmetry_space_group_name_H-M    P1
_symmetry_Int_Tables_number       1
_space_group_crystal_system       triclinic
_cell_length_a                    18.963227
_cell_length_b                    18.680177
_cell_length_c                    12.422866
_cell_angle_alpha                 90.507672
_cell_angle_beta                  129.999498
_cell_angle_gamma                 89.296859
_cell_volume                      3370.847745

loop_
_atom_site_label
_atom_site_type_symbol
_atom_type_description
_atom_site_fract_x
_atom_site_fract_y
_atom_site_fract_z
_atom_type_partial_charge
C1    C     C_R   0.610187 0.896673 0.649888 0.550957
C2    C     C_R   0.663676 0.731505 0.025850 0.040369
C3    C     C_1   0.912918 0.708390 0.204590 0.192216
C4    C     C_3   0.330296 0.787014 0.742200 -0.286464
C5    C     C_3   0.272567 0.829340 0.605423 -0.418823
C6    C     C_3   0.361613 0.230920 0.773137 -0.276195
C7    C     C_3   0.309375 0.204059 0.622810 -0.435760
C8    C     C_3   0.830294 0.287018 0.742201 -0.286461
C9    C     C_3   0.772566 0.329328 0.605404 -0.418820
C10   C     C_3   0.861610 0.730915 0.773134 -0.276194
C11   C     C_3   0.809375 0.704064 0.622803 -0.435761
C12   C     C_R   0.183517 0.745947 0.065524 0.042006
C13   C     C_R   0.163674 0.231501 0.025846 0.040386
C14   C     C_R   0.611878 0.200478 0.969103 -0.141567
C15   C     C_R   0.585706 0.767266 0.912621 -0.138563
C16   C     C_R   0.111876 0.700481 0.969099 -0.141573
C17   C     C_R   0.085705 0.267264 0.912617 -0.138559
C18   C     C_R   0.591859 0.186655 0.842306 -0.116583
C19   C     C_R   0.585073 0.798270 0.811217 -0.120541
C20   C     C_R   0.091860 0.686657 0.842304 -0.116593
C21   C     C_R   0.605959 0.105231 0.645970 0.564145
C22   C     C_R   0.085073 0.298269 0.811215 -0.120538
C23   C     C_R   0.280039 0.843808 0.107458 -0.027737
C24   C     C_R   0.322316 0.192550 0.158472 -0.028107
C25   C     C_R   0.780034 0.343810 0.107456 -0.027733
C26   C     C_R   0.822317 0.692551 0.158473 -0.028105
C27   C     C_R   0.277221 0.805192 0.290760 -0.140011
C28   C     C_R   0.238042 0.162756 0.238173 -0.142967
C29   C     C_R   0.777225 0.305189 0.290765 -0.140004
C30   C     C_R   0.738046 0.662760 0.238180 -0.142981
C31   C     C_R   0.655891 0.172411 0.718403 -0.009425
C32   C     C_R   0.110186 0.396673 0.649887 0.550966
C33   C     C_R   0.669286 0.833579 0.728848 -0.015785
C34   C     C_R   0.155892 0.672410 0.718403 -0.009428
C35   C     C_R   0.169286 0.333580 0.728848 -0.015781
C36   C     C_R   0.679361 0.954447 0.291651 -0.006527
C37   C     C_R   0.179441 0.454597 0.291719 -0.006531
C38   C     C_R   0.342563 0.008900 0.628146 0.116181
C39   C     C_R   0.842562 0.508889 0.628148 0.116181
C40   C     C_R   0.310979 0.020180 0.701585 -0.173405
C41   C     C_R   0.810978 0.520157 0.701589 -0.173398
C42   C     C_R   0.386314 0.100783 0.345508 0.551025
C43   C     C_R   0.105958 0.605231 0.645968 0.564145
C44   C     C_R   0.383519 0.902102 0.341394 0.553246
C45   C     C_R   0.886315 0.600784 0.345508 0.551028
C46   C     C_R   0.883519 0.402102 0.341394 0.553249
C47   C     C_R   0.371705 0.019357 0.846980 -0.147981
C48   C     C_R   0.871706 0.519334 0.846983 -0.147991
C49   C     C_R   0.465321 0.002895 0.923512 -0.028636
C50   C     C_R   0.965327 0.502889 0.923518 -0.028642
C51   C     C_R   0.497675 0.995061 0.846032 0.140751
C52   C     C_R   0.997682 0.495066 0.846036 0.140758
C53   C     C_R   0.527505 0.993995 0.074525 -0.031154
C54   C     C_R   0.228141 0.783893 0.026399 0.017012
C55   C     C_R   0.027519 0.494009 0.074538 -0.031161
C56   C     C_R   0.617016 0.965691 0.143939 0.025996
C57   C     C_R   0.117064 0.465772 0.143982 0.026038
C58   C     C_R   0.644985 0.952971 0.066547 -0.167248
C59   C     C_R   0.145020 0.453030 0.066581 -0.167241
C60   C     C_R   0.594494 0.978186 0.930268 0.004566
C61   C     C_R   0.094508 0.478210 0.930277 0.004558
C62   C     C_R   0.504050 0.009924 0.160157 0.044248
C63   C     C_R   0.004044 0.509899 0.160153 0.044223
C64   C     C_R   0.651885 0.974278 0.367762 0.056206
C65   C     C_R   0.241981 0.223632 0.034988 0.020143
C66   C     C_R   0.151924 0.474366 0.367798 0.056177
C67   C     C_R   0.708336 0.256707 0.197638 -0.127912
C68   C     C_R   0.663310 0.702686 0.129107 -0.136516
C69   C     C_R   0.208332 0.756711 0.197632 -0.127925
C70   C     C_R   0.163306 0.202680 0.129098 -0.136478
C71   C     C_R   0.312865 0.849542 0.245762 -0.000414
C72   C     C_R   0.316357 0.154977 0.250330 -0.010337
C73   C     C_R   0.812865 0.349542 0.245763 -0.000411
C74   C     C_R   0.816358 0.654979 0.250333 -0.010336
C75   C     C_R   0.711293 0.200992 0.691630 -0.109229
C76   C     C_R   0.728136 0.283895 0.026397 0.017017
C77   C     C_R   0.736293 0.813859 0.718260 -0.109852
C78   C     C_R   0.211294 0.700990 0.691629 -0.109234
C79   C     C_R   0.236295 0.313861 0.718262 -0.109856
C80   C     C_R   0.271070 0.757259 0.772301 0.013037
C81   C     C_R   0.296728 0.256831 0.796776 0.017109
C82   C     C_R   0.771064 0.257265 0.772297 0.013037
C83   C     C_R   0.796724 0.756827 0.796770 0.017113
C84   C     C_R   0.278568 0.783417 0.884907 -0.097040
C85   C     C_R   0.298087 0.225587 0.900198 -0.092465
C86   C     C_R   0.778558 0.283425 0.884898 -0.097039
C87   C     C_R   0.741982 0.723632 0.034989 0.020142
C88   C     C_R   0.798083 0.725584 0.900193 -0.092468
C89   C     C_R   0.719303 0.259791 0.909108 0.017422
C90   C     C_R   0.736883 0.748881 0.922045 0.018725
C91   C     C_R   0.219310 0.759787 0.909112 0.017417
C92   C     C_R   0.236884 0.248883 0.922046 0.018724
C93   C     C_R   0.654125 0.206031 0.820760 0.026429
C94   C     C_R   0.663298 0.794775 0.820552 0.016944
C95   C     C_R   0.154128 0.706030 0.820761 0.026420
C96   C     C_R   0.163298 0.294775 0.820552 0.016947
C97   C     C_3   0.774880 0.921698 0.372624 -0.298935
C98   C     C_R   0.683517 0.245946 0.065526 0.042010
C99   C     C_3   0.844917 0.977889 0.408135 -0.429835
C100  C     C_3   0.275061 0.422034 0.372766 -0.298918
C101  C     C_3   0.344880 0.478343 0.407892 -0.429781
C102  C     C_1   0.275159 0.004162 0.477516 0.232009
C103  C     C_1   0.775159 0.504157 0.477517 0.232007
C104  C     C_1   0.658400 0.999044 0.910623 0.276901
C105  C     C_1   0.158406 0.499043 0.910602 0.276907
C106  C     C_1   0.277084 0.907205 0.038240 0.208287
C107  C     C_1   0.412918 0.208392 0.204593 0.192208
C108  C     C_1   0.777064 0.407211 0.038232 0.208268
Cu1   Cu    Cu3+1 0.526340 0.000000 0.421010 0.961895
Cu2   Cu    Cu3+1 0.026340 0.500000 0.421010 0.961888
Cu3   Cu    Cu3+1 0.473640 0.000000 0.578990 0.942383
Cu4   Cu    Cu3+1 0.973640 0.500000 0.578990 0.942381
H1    H     H_    0.300316 0.809721 0.395845 0.124355
H2    H     H_    0.842439 0.529308 0.896366 0.142867
H3    H     H_    0.238302 0.029098 0.645714 0.112334
H4    H     H_    0.738300 0.529067 0.645720 0.112334
H5    H     H_    0.569824 0.177121 0.990175 0.108011
H6    H     H_    0.525245 0.771986 0.903537 0.099649
H7    H     H_    0.069819 0.677126 0.990167 0.108019
H8    H     H_    0.025243 0.271984 0.903531 0.099643
H9    H     H_    0.676576 0.226208 0.230124 0.126730
H10   H     H_    0.603471 0.708388 0.122010 0.116814
H11   H     H_    0.176569 0.726213 0.230115 0.126730
H12   H     H_    0.233736 0.136939 0.311312 0.151231
H13   H     H_    0.103465 0.208380 0.121998 0.116810
H14   H     H_    0.710575 0.178005 0.610525 0.140339
H15   H     H_    0.740590 0.841866 0.646664 0.123520
H16   H     H_    0.210572 0.678005 0.610519 0.140329
H17   H     H_    0.240592 0.341868 0.646666 0.123551
H18   H     H_    0.333277 0.820632 0.955300 0.121539
H19   H     H_    0.344328 0.180866 0.958495 0.116658
H20   H     H_    0.833263 0.320644 0.955287 0.121533
H21   H     H_    0.844323 0.680862 0.958490 0.116673
H22   H     H_    0.527434 0.160359 0.764446 0.151042
H23   H     H_    0.800325 0.309715 0.395852 0.124354
H24   H     H_    0.520591 0.821703 0.722460 0.147217
H25   H     H_    0.027434 0.660362 0.764441 0.151041
H26   H     H_    0.020591 0.321702 0.722458 0.147216
H27   H     H_    0.697858 0.966395 0.480279 0.127663
H28   H     H_    0.197904 0.466522 0.480328 0.127633
H29   H     H_    0.825308 0.003223 0.311674 0.160755
H30   H     H_    0.849792 0.020162 0.476081 0.153688
H31   H     H_    0.913641 0.952187 0.465729 0.151830
H32   H     H_    0.798337 0.898223 0.473047 0.128220
H33   H     H_    0.774450 0.876058 0.314340 0.150546
H34   H     H_    0.733740 0.636944 0.311320 0.151233
H35   H     H_    0.325208 0.503494 0.311254 0.160745
H36   H     H_    0.349548 0.520740 0.475472 0.153700
H37   H     H_    0.413714 0.452796 0.465742 0.151815
H38   H     H_    0.298658 0.398680 0.473353 0.128252
H39   H     H_    0.274747 0.376341 0.314688 0.150497
H40   H     H_    0.223935 0.793635 0.514507 0.157796
H41   H     H_    0.233142 0.872384 0.608935 0.172459
H42   H     H_    0.318902 0.854260 0.591261 0.145926
H43   H     H_    0.383420 0.823354 0.828129 0.144914
H44   H     H_    0.366290 0.742375 0.734836 0.136140
H45   H     H_    0.713894 0.932674 0.118843 0.125007
H46   H     H_    0.257259 0.163978 0.595127 0.160811
H47   H     H_    0.274284 0.249143 0.547061 0.139984
H48   H     H_    0.358234 0.178560 0.613081 0.146753
H49   H     H_    0.407694 0.275287 0.794726 0.152499
H50   H     H_    0.405609 0.186392 0.846150 0.143107
H51   H     H_    0.723956 0.293609 0.514500 0.157787
H52   H     H_    0.733116 0.372365 0.608875 0.172458
H53   H     H_    0.818904 0.354254 0.591256 0.145926
H54   H     H_    0.883407 0.323366 0.828118 0.144915
H55   H     H_    0.866300 0.242378 0.734865 0.136145
H56   H     H_    0.213926 0.432727 0.118871 0.124988
H57   H     H_    0.757255 0.663982 0.595104 0.160814
H58   H     H_    0.774289 0.749154 0.547065 0.139943
H59   H     H_    0.858237 0.678570 0.613076 0.146752
H60   H     H_    0.907699 0.775279 0.794740 0.152503
H61   H     H_    0.905600 0.686381 0.846137 0.143107
H62   H     H_    0.436869 0.029481 0.116624 0.143542
H63   H     H_    0.936841 0.529403 0.116609 0.143571
H64   H     H_    0.342440 0.029336 0.896365 0.142871
N1    N     N_R   0.566260 1.000000 0.302220 -0.248257
N2    N     N_1   0.485259 0.221044 0.241967 -0.317850
N3    N     N_1   0.773235 0.458101 0.982360 -0.342599
N4    N     N_1   0.985259 0.721041 0.241962 -0.317848
N5    N     N_R   0.066260 0.500000 0.302220 -0.248256
N6    N     N_R   0.434410 1.000000 0.697680 -0.258574
N7    N     N_R   0.934410 0.500000 0.697680 -0.258572
N8    N     N_1   0.220103 0.999662 0.356470 -0.313128
N9    N     N_1   0.720102 0.499662 0.356471 -0.313125
N10   N     N_1   0.715070 0.013802 0.904823 -0.298295
N11   N     N_1   0.215073 0.513782 0.904782 -0.298313
N12   N     N_1   0.273269 0.958092 0.982374 -0.342577
O1    O     O_R   0.608610 0.924520 0.551740 -0.514772
O2    O     O_R   0.435880 0.924530 0.314850 -0.492786
O3    O     O_R   0.935880 0.575470 0.314850 -0.491227
O4    O     O_R   0.935880 0.424530 0.314850 -0.492800
O5    O     O_R   0.391380 0.075460 0.448260 -0.513127
O6    O     O_R   0.391380 0.924540 0.448260 -0.504689
O7    O     O_R   0.891380 0.575460 0.448260 -0.513125
O8    O     O_R   0.891380 0.424540 0.448260 -0.504690
O9    O     O_R   0.608610 0.075480 0.551740 -0.494843
O10   O     O_R   0.108610 0.424520 0.551740 -0.514735
O11   O     O_R   0.108610 0.575480 0.551740 -0.494861
O12   O     O_R   0.564110 0.924510 0.685150 -0.508832
O13   O     O_R   0.564110 0.075490 0.685150 -0.509167
O14   O     O_R   0.064110 0.424510 0.685150 -0.508834
O15   O     O_R   0.064110 0.575490 0.685150 -0.509173
O16   O     O_R   0.435880 0.075470 0.314850 -0.491233

loop_
_geom_bond_atom_site_label_1
_geom_bond_atom_site_label_2
_ccdc_geom_bond_type
C45   O7    A    
C65   C92   A    
C12   C69   A    
C101  H36   S    
C11   H59   S    
C63   N5    A    
Cu2   O10   S    
C10   C83   S    
C99   H30   S    
C42   O16   A    
C103  N9    T    
C52   N7    A    
Cu4   O14   S    
C80   C84   A    
C51   N6    A    
C78   H16   S    
C33   C94   A    
Cu3   O13   S    
C62   N1    A    
C85   H19   S    
C1    C33   S    
C47   C49   A    
C7    H46   S    
C13   C65   A    
C35   C96   A    
C15   C19   A    
C21   C31   S    
C5    H40   S    
C8    C82   S    
C14   C98   A    
C99   H31   S    
C21   O13   A    
C84   H18   S    
C88   H21   S    
C4    C80   S    
C2    C68   A    
C52   C61   A    
Cu1   Cu3   S    
C30   C74   A    
C5    H41   S    
C57   C59   A    
C40   H3    S    
C7    H47   S    
C13   C70   A    
C69   H11   S    
C58   C60   A    
C5    H42   S    
C62   H62   S    
Cu2   O3    S    
C92   C96   A    
C44   C71   S    
C101  H37   S    
C9    H51   S    
C14   C18   A    
Cu4   O8    S    
C32   O10   A    
C67   C98   A    
C44   O2    A    
C29   C67   A    
Cu1   O9    S    
C45   O3    A    
C12   C16   A    
Cu2   N5    S    
Cu1   O1    S    
C8    C9    S    
C49   C51   A    
C55   C63   A    
C50   C52   A    
C90   C94   A    
C36   C97   S    
C84   C91   A    
C56   C58   A    
C61   C105  S    
C47   H64   S    
C27   C69   A    
C76   C89   A    
C10   H61   S    
C48   C50   A    
C83   C88   A    
C10   H60   S    
C6    C81   S    
C12   C54   A    
C32   O14   A    
C28   C72   A    
C22   C96   A    
C67   H9    S    
C97   C99   S    
C85   C92   A    
C99   H29   S    
C30   H34   S    
Cu4   N7    S    
Cu2   Cu4   S    
C3    C26   S    
C100  H39   S    
C29   C73   A    
C59   C61   A    
C32   C35   S    
C6    H50   S    
C42   O5    A    
C34   C95   A    
C39   C41   A    
C16   H7    S    
C68   H10   S    
C79   C81   A    
C26   C87   A    
C7    H48   S    
C100  H38   S    
C19   H24   S    
C31   C93   A    
C40   C47   A    
C86   C89   A    
Cu3   N6    S    
C108  N3    T    
C45   C74   S    
C17   H8    S    
C20   H25   S    
C9    H52   S    
C3    N4    T    
Cu4   O7    S    
C36   C56   A    
C8    H55   S    
C23   C71   A    
Cu3   O12   S    
C53   C62   A    
C31   C75   A    
C6    H49   S    
Cu1   O2    S    
C16   C20   A    
C14   H5    S    
C37   C66   A    
C42   C72   S    
C78   C80   A    
C2    C87   A    
C24   C107  S    
C39   N7    A    
C25   C76   A    
C63   H63   S    
C2    C15   A    
C19   C94   A    
C8    H54   S    
C24   C65   A    
Cu3   O5    S    
C27   H1    S    
C70   H13   S    
C29   H23   S    
C20   C95   A    
C88   C90   A    
C11   H57   S    
C55   C57   A    
C107  N2    T    
C43   O15   A    
C1    O12   A    
C41   H4    S    
C36   C64   A    
C27   C71   A    
C24   C72   A    
C23   C54   A    
C48   H2    S    
C53   C56   A    
C101  H35   S    
C4    H44   S    
Cu2   O11   S    
C97   H33   S    
C66   N5    A    
Cu1   O16   S    
C28   C70   A    
C34   C43   S    
C50   C55   A    
C46   O4    A    
C4    C5    S    
C58   H45   S    
C77   H15   S    
C28   H12   S    
C75   C82   A    
C39   C103  S    
C6    C7    S    
C30   C68   A    
C104  N10   T    
C22   H26   S    
C44   O6    A    
C17   C22   A    
C38   N6    A    
C15   H6    S    
C13   C17   A    
C33   C77   A    
C75   H14   S    
C102  N8    T    
C105  N11   T    
C79   H17   S    
C9    H53   S    
C106  N12   T    
C54   C91   A    
C38   C102  S    
C82   C86   A    
C34   C78   A    
C38   C40   A    
C64   N1    A    
C23   C106  S    
C86   H20   S    
C97   H32   S    
C49   C53   A    
C35   C79   A    
C100  C101  S    
C26   C74   A    
C41   C48   A    
C21   O9    A    
C18   H22   S    
C25   C73   A    
C46   C73   S    
C89   C93   A    
C37   C57   A    
C10   C11   S    
Cu3   O6    S    
C91   C95   A    
Cu1   N1    S    
C4    H43   S    
C66   H28   S    
C11   H58   S    
C87   C90   A    
C46   O8    A    
C18   C93   A    
C77   C83   A    
C43   O11   A    
C51   C60   A    
Cu2   O4    S    
Cu4   O15   S    
C60   C104  S    
C76   C98   A    
C37   C100  S    
C81   C85   A    
C59   H56   S    
C25   C108  S    
C64   H27   S    
C1    O1    A    
