data_mof_unit_50325.cif
_audit_creation_date              2012-12-11T15:53:48-0500
_audit_creation_method            fapswitch 2.2
_symmetry_space_group_name_H-M    P1
_symmetry_Int_Tables_number       1
_space_group_crystal_system       triclinic
_cell_length_a                    10.686451
_cell_length_b                    10.598611
_cell_length_c                    16.873974
_cell_angle_alpha                 80.964643
_cell_angle_beta                  99.111243
_cell_angle_gamma                 118.48405
_cell_volume                      1651.29575601

loop_
_atom_site_label
_atom_site_type_symbol
_atom_type_description
_atom_site_fract_x
_atom_site_fract_y
_atom_site_fract_z
_atom_type_partial_charge
C1    C     C_R   0.360815 0.228169 0.627128 0.550316
C2    C     C_R   0.516644 0.708783 0.736261 -0.159128
C3    C     C_R   0.493915 0.724677 0.812664 -0.136703
C4    C     C_3   0.097605 0.481552 0.774580 -0.246679
C5    C     C_3   0.122675 0.462819 0.691817 -0.023737
C6    C     C_R   0.401974 0.614138 0.686900 -0.010879
C7    C     C_1   0.852518 0.671216 0.702054 -0.058786
C8    C     C_1   0.900107 0.705249 0.769006 -0.058748
C9    C     C_1   0.345288 0.187512 0.709696 -0.033983
C10   C     C_1   0.321138 0.160753 0.778446 -0.040593
C11   C     C_1   0.369044 0.635361 0.274659 -0.064798
C12   C     C_R   0.414741 0.618796 0.601662 0.571393
C13   C     C_1   0.342269 0.653731 0.203923 -0.056171
C14   C     C_R   0.789540 0.646403 0.146613 0.005017
C15   C     C_R   0.750365 0.511422 0.190878 0.039375
C16   C     C_R   0.712870 0.487937 0.268114 -0.012242
C17   C     C_R   0.717552 0.719899 0.253009 -0.145753
C18   C     C_R   0.756515 0.744114 0.174282 -0.148533
C19   C     C_3   0.827223 0.421011 0.212138 -0.034552
C20   C     C_3   0.786141 0.396613 0.297145 -0.217697
C21   C     C_R   0.711143 0.597428 0.303331 -0.009407
C22   C     C_R   0.257039 0.044930 0.180930 -0.012120
C23   C     C_R   0.782460 0.622142 0.625792 0.554882
C24   C     C_R   0.150825 0.054677 0.214054 0.007081
C25   C     C_R   0.172928 0.092527 0.291131 0.088866
C26   C     C_R   0.397985 0.085687 0.311515 -0.148613
C27   C     C_R   0.373195 0.043022 0.233372 -0.158159
C28   C     C_3   0.067691 0.135894 0.183413 -0.211012
C29   C     C_3   0.088475 0.174992 0.268676 -0.035603
C30   C     C_R   0.305153 0.127357 0.336817 0.001929
C31   C     C_R   0.949622 0.725664 0.851564 0.559819
C32   C     C_R   0.316484 0.704605 0.899044 0.541298
C33   C     C_R   0.284959 0.115703 0.858179 0.554146
C34   C     C_R   0.348708 0.221152 0.401220 0.526965
C35   C     C_R   0.881233 0.688272 0.081969 0.549210
C36   C     C_R   0.316117 0.696891 0.122454 0.544988
C37   C     C_R   0.244872 0.035716 0.094662 0.575650
C38   C     C_R   0.402886 0.624426 0.358805 0.539033
C39   C     C_R   0.699896 0.582184 0.389465 0.557704
C40   C     C_R   0.355670 0.647349 0.839255 0.008543
C41   C     C_R   0.253735 0.531200 0.797456 -0.009420
C42   C     C_R   0.277051 0.514129 0.722404 0.056757
Cr1   Cr    Cr6+3 0.608440 0.389080 0.519680 1.007421
Cr2   Cr    Cr6+3 0.288640 0.400090 0.490760 1.023943
Cr3   Cr    Cr6+3 0.602940 0.710800 0.489510 1.015834
Cr4   Cr    Cr6+3 0.052530 0.947560 0.964210 1.003604
Cr5   Cr    Cr6+3 0.059970 0.626800 0.992920 0.999251
Cr6   Cr    Cr6+3 0.373320 0.938440 0.995370 1.011808
H1    H     H_    0.619307 0.779328 0.713325 0.143321
H2    H     H_    0.579694 0.809251 0.846095 0.149962
O1    O     O_R   0.754020 0.497590 0.609930 -0.502184
O2    O     O_R   0.295080 0.533620 0.397890 -0.487766
O3    O     O_R   0.485280 0.746620 0.388440 -0.503837
O4    O     O_R   0.720550 0.696220 0.420010 -0.501667
O5    O     O_3   0.500010 0.499990 0.499980 -0.319857
O6    O     O_R   0.163320 0.092900 0.874450 -0.519296
O7    O     O_R   0.934650 0.822080 0.882840 -0.490446
O8    O     O_R   0.915520 0.604140 0.893670 -0.505126
O9    O     O_R   0.191760 0.638110 0.923230 -0.512431
O10   O     O_R   0.406180 0.826930 0.920660 -0.517532
O11   O     O_R   0.358620 0.062870 0.901950 -0.486949
O12   O     O_R   0.481420 0.271390 0.600630 -0.492967
O13   O     O_R   0.163910 0.085460 0.050210 -0.519510
O14   O     O_R   0.935200 0.815170 0.045770 -0.514454
O15   O     O_R   0.916120 0.596690 0.069430 -0.521852
O16   O     O_R   0.192310 0.631200 0.086170 -0.504368
O17   O     O_R   0.406770 0.819480 0.096420 -0.519984
O18   O     O_R   0.359170 0.055960 0.064880 -0.502530
O19   O     O_3   0.161940 0.837600 0.984160 -0.285510
O20   O     O_R   0.263810 0.254550 0.589590 -0.490300
O21   O     O_R   0.300820 0.531200 0.560890 -0.469046
O22   O     O_R   0.491480 0.744020 0.564270 -0.505495
O23   O     O_R   0.726290 0.693800 0.583010 -0.509884
O24   O     O_R   0.747830 0.500190 0.434090 -0.508518
O25   O     O_R   0.475680 0.273800 0.437630 -0.517913
O26   O     O_R   0.257620 0.257160 0.413750 -0.532682
N1    N     N_3   0.757862 0.288427 0.171345 -0.651400
H3    H     H_    0.646770 0.248132 0.165638 0.250327
H4    H     H_    0.789301 0.314509 0.112922 0.256449
H5    H     H_    0.710641 0.283423 0.315748 0.145400
H6    H     H_    0.880825 0.447697 0.341251 0.149897
H7    H     H_    0.494630 0.098058 0.348672 0.137903
H8    H     H_    0.450998 0.021605 0.212122 0.153934
H9    H     H_    0.955144 0.065035 0.162023 0.156978
H10   H     H_    0.124870 0.231894 0.141033 0.135158
H11   H     H_    0.150105 0.293069 0.274315 0.146956
N2    N     N_3   0.954715 0.104220 0.306669 -0.620002
H12   H     H_    0.894237 0.157004 0.281822 0.251455
H13   H     H_    0.979197 0.121952 0.367679 0.256644
H14   H     H_    0.067766 0.568858 0.772853 0.132138
H15   H     H_    0.030385 0.379415 0.810004 0.148424
N3    N     N_3   0.052767 0.312332 0.673408 -0.585488
H16   H     H_    0.072073 0.247580 0.722240 0.249598
H17   H     H_    0.942453 0.277134 0.665362 0.231346
H18   H     H_    0.103808 0.536008 0.642053 0.170535
H19   H     H_    0.704846 0.802329 0.276209 0.167350
H20   H     H_    0.773500 0.843969 0.138582 0.131755
H21   H     H_    0.944984 0.480942 0.208725 0.171951

loop_
_geom_bond_atom_site_label_1
_geom_bond_atom_site_label_2
_ccdc_geom_bond_type
N2    H12   S    
C16   C21   A    
C28   H9    S    
C41   C42   A    
C14   C18   A    
C19   C20   S    
Cr6   O19   S    
C5    C42   S    
C1    O12   A    
C36   O17   A    
C7    C8    T    
N1    H3    S    
C15   C19   S    
C26   C27   A    
C31   O8    A    
C28   C29   S    
C6    C12   S    
C36   O16   A    
C39   O4    A    
C38   O2    A    
C4    C41   S    
C35   O15   A    
C15   C16   A    
C37   O18   A    
Cr2   O21   S    
Cr3   O23   S    
C39   O24   A    
C19   N1    S    
Cr5   O19   S    
Cr4   O19   S    
C5    H18   S    
C3    H2    S    
Cr2   O20   S    
C35   O14   A    
C18   H20   S    
C9    C10   T    
Cr5   O16   S    
C34   O25   A    
C4    H15   S    
Cr2   O2    S    
Cr1   O24   S    
C12   O22   A    
Cr3   O3    S    
C26   H7    S    
C20   H6    S    
Cr3   O22   S    
Cr1   O25   S    
C2    C6    A    
C23   O23   A    
C37   O13   A    
C19   H21   S    
Cr6   O10   S    
C4    H14   S    
N1    H4    S    
C25   C29   S    
C30   C34   S    
C1    C9    S    
C24   C25   A    
C13   C36   S    
C14   C35   S    
C20   H5    S    
C22   C37   S    
C17   C21   A    
Cr4   O14   S    
C11   C38   S    
C2    H1    S    
C23   O1    A    
C21   C39   S    
C16   C20   S    
N3    H17   S    
C17   C18   A    
C17   H19   S    
Cr6   O18   S    
C29   H11   S    
Cr1   O5    S    
C40   C41   A    
C12   O21   A    
C3    C40   A    
C26   C30   A    
C22   C27   A    
N2    H13   S    
Cr4   O7    S    
C22   C24   A    
C32   O10   A    
C25   C30   A    
C8    C31   S    
C24   C28   S    
C4    C5    S    
Cr3   O4    S    
C1    O20   A    
Cr4   O13   S    
C31   O7    A    
C27   H8    S    
C2    C3    A    
Cr5   O8    S    
C11   C13   T    
Cr2   O5    S    
Cr1   O1    S    
Cr6   O11   S    
C38   O3    A    
C33   O6    A    
C7    C23   S    
N3    H16   S    
C10   C33   S    
C32   C40   S    
Cr6   O17   S    
C29   N2    S    
C5    N3    S    
Cr5   O9    S    
Cr3   O5    S    
C33   O11   A    
C6    C42   A    
Cr4   O6    S    
C28   H10   S    
C14   C15   A    
C32   O9    A    
Cr2   O26   S    
Cr5   O15   S    
Cr1   O12   S    
C34   O26   A    
