data_mof_unit_37574.cif
_audit_creation_date              2012-12-10T17:31:58-0500
_audit_creation_method            fapswitch 2.2
_symmetry_space_group_name_H-M    P1
_symmetry_Int_Tables_number       1
_space_group_crystal_system       triclinic
_cell_length_a                    12.215803
_cell_length_b                    11.469391
_cell_length_c                    12.762256
_cell_angle_alpha                 90.364778
_cell_angle_beta                  94.354237
_cell_angle_gamma                 86.659208
_cell_volume                      1779.89759357

loop_
_atom_site_label
_atom_site_type_symbol
_atom_type_description
_atom_site_fract_x
_atom_site_fract_y
_atom_site_fract_z
_atom_type_partial_charge
C1    C     C_R   0.477057 0.499295 0.300295 0.897961
C2    C     C_R   0.975562 0.556128 0.488240 -0.070848
C3    C     C_R   0.499513 0.282581 0.499551 0.938198
C4    C     C_R   0.500368 0.717426 0.499818 0.963038
C5    C     C_1   0.498733 0.161989 0.499639 -0.037575
C6    C     C_1   0.501093 0.838060 0.499697 -0.024154
C7    C     C_1   0.499264 0.059481 0.499677 0.061708
C8    C     C_1   0.500554 0.940571 0.499669 0.065238
C9    C     C_R   0.539588 0.508318 0.811620 -0.144985
C10   C     C_R   0.460333 0.489712 0.188386 -0.180195
C11   C     C_R   0.417660 0.372396 0.034564 -0.070025
C12   C     C_R   0.522926 0.500260 0.699690 0.935418
C13   C     C_R   0.583405 0.624564 0.965629 -0.201052
C14   C     C_R   0.417336 0.388441 0.143390 -0.116997
C15   C     C_R   0.585623 0.607538 0.857309 -0.227435
C16   C     C_R   0.496892 0.577543 0.127075 -0.081072
C17   C     C_R   0.503124 0.419889 0.872687 -0.052849
C18   C     C_R   0.520234 0.550865 0.023403 0.089228
C19   C     C_R   0.480533 0.446313 0.976685 0.062849
C20   C     C_2   0.506373 0.296964 0.832920 0.898845
C21   C     C_2   0.494582 0.699681 0.167498 0.904840
C22   C     C_2   0.639769 0.690900 0.792132 0.960319
C23   C     C_R   0.046355 0.648764 0.481382 -0.169534
C24   C     C_2   0.369749 0.301699 0.209802 0.967928
C25   C     C_2   0.341418 0.290169 0.980593 0.942710
C26   C     C_2   0.653642 0.713339 0.017923 0.964688
C27   C     C_2   0.805320 0.691630 0.478730 0.978319
C28   C     C_2   0.195551 0.308564 0.525261 0.988693
C29   C     C_2   0.012884 0.755961 0.419514 0.950282
C30   C     C_2   0.986729 0.243196 0.579326 0.944254
C31   C     C_R   0.953603 0.351010 0.518284 -0.163866
C32   C     C_R   0.157110 0.631333 0.519152 0.467214
C33   C     C_R   0.842879 0.368635 0.480513 0.462045
C34   C     C_R   0.142699 0.426818 0.519040 0.033324
C35   C     C_R   0.857517 0.573079 0.481413 0.029500
C36   C     C_R   0.024576 0.443592 0.511538 -0.083942
H1    H     H_    0.551921 0.127802 0.863183 0.376724
H2    H     H_    0.132633 0.869865 0.706209 0.396334
H3    H     H_    0.949082 0.823201 0.280908 0.384239
H4    H     H_    0.005721 0.067397 0.583172 0.381344
H5    H     H_    0.548544 0.813887 0.277393 0.360094
H6    H     H_    0.792511 0.633427 0.846695 0.328243
H7    H     H_    0.384028 0.140602 0.273332 0.359619
H8    H     H_    0.226731 0.264877 0.861525 0.392391
H9    H     H_    0.572014 0.849568 0.941340 0.341847
H10   H     H_    0.774089 0.841533 0.557114 0.368403
H11   H     H_    0.278101 0.184672 0.616394 0.358867
H12   H     H_    0.866390 0.131212 0.292170 0.406267
N1    N     N_R   0.792200 0.479100 0.480660 -0.196998
N2    N     N_R   0.207800 0.520900 0.519340 -0.191889
O1    O     O_R   0.578300 0.494420 0.341180 -0.521898
O2    O     O_R   0.554582 0.207425 0.897961 -0.738537
O3    O     O_2   0.439683 0.776289 0.117930 -0.563833
O4    O     O_R   0.555458 0.727447 0.260357 -0.742530
O5    O     O_2   0.583537 0.757947 0.733680 -0.580469
O6    O     O_R   0.754185 0.694400 0.797388 -0.681059
O7    O     O_2   0.282820 0.325925 0.248623 -0.548890
O8    O     O_R   0.424534 0.192370 0.227143 -0.722987
O9    O     O_2   0.337418 0.190336 0.012534 -0.528358
O10   O     O_R   0.274290 0.328093 0.892260 -0.737196
O11   O     O_2   0.725540 0.682192 0.085278 -0.487551
O12   O     O_R   0.421700 0.505580 0.658820 -0.519454
O13   O     O_R   0.638738 0.831768 0.992003 -0.688447
O14   O     O_2   0.759699 0.730160 0.396539 -0.532888
O15   O     O_R   0.812018 0.761201 0.569008 -0.719706
O16   O     O_2   0.190293 0.244471 0.448339 -0.552035
O17   O     O_R   0.247672 0.268579 0.620686 -0.716894
O18   O     O_2   0.751790 0.160942 0.460860 -0.292866
O19   O     O_2   0.701514 0.302591 0.318803 -0.247615
O20   O     O_3   0.895578 0.200698 0.328570 -0.461635
O21   O     O_2   0.297475 0.697155 0.681688 -0.244373
O22   O     O_2   0.248959 0.838700 0.539182 -0.294447
O23   O     O_R   0.390690 0.507830 0.353590 -0.622720
O24   O     O_3   0.103650 0.800101 0.670118 -0.484626
O25   O     O_2   0.023699 0.852893 0.457862 -0.505955
O26   O     O_R   0.969245 0.744848 0.315696 -0.729641
O27   O     O_2   0.020116 0.251584 0.671696 -0.585503
O28   O     O_R   0.980307 0.133044 0.532627 -0.659407
O29   O     O_R   0.609310 0.492170 0.646410 -0.647534
O30   O     O_R   0.593810 0.327740 0.493800 -0.568988
O31   O     O_R   0.406190 0.672260 0.506200 -0.572168
O32   O     O_R   0.406190 0.341150 0.506220 -0.612943
O33   O     O_R   0.593810 0.658850 0.493780 -0.603902
O34   O     O_2   0.468049 0.273894 0.744509 -0.610784
S1    S     S_3+6 0.791917 0.256779 0.396438 0.106725
S2    S     S_3+6 0.207848 0.743233 0.603359 0.096349
Zn1   Zn    Zn3+2 0.625270 0.491050 0.491710 1.084361
Zn2   Zn    Zn3+2 0.374730 0.508950 0.508290 1.092853

loop_
_geom_bond_atom_site_label_1
_geom_bond_atom_site_label_2
_ccdc_geom_bond_type
C2    C35   A    
O33   Zn1   S    
C16   C21   S    
N1    Zn1   S    
O29   Zn1   S    
C7    C8    S    
C29   O26   S    
C11   C19   A    
C13   C18   A    
C6    C8    T    
C23   C29   S    
C26   O11   D    
O30   Zn1   S    
C30   C31   S    
C11   C14   A    
C11   C25   S    
C33   N1    A    
C12   O29   A    
C17   C20   S    
C18   C19   A    
C14   C24   S    
C33   S1    S    
H7    O8    S    
H6    O6    S    
C30   O27   D    
C15   C22   S    
C4    O31   A    
C24   O7    D    
C35   N1    A    
C31   C33   A    
C25   O10   S    
N2    Zn2   S    
C28   C34   S    
O18   S1    D    
C3    O30   A    
H11   O17   S    
C34   N2    A    
C24   O8    S    
C28   O17   S    
H10   O15   S    
C4    C6    S    
C10   C14   A    
O1    Zn1   S    
C5    C7    T    
H1    O2    S    
C22   O6    S    
C27   C35   S    
O12   Zn2   S    
H9    O13   S    
C28   O16   D    
C26   O13   S    
O23   Zn2   S    
C27   O15   S    
O21   S2    D    
C12   O12   A    
C32   S2    S    
C3    O32   A    
H3    O26   S    
O24   S2    S    
C1    O1    A    
C32   N2    A    
C9    C17   A    
C20   O34   D    
H4    O28   S    
C13   C26   S    
O19   S1    D    
H2    O24   S    
C2    C36   A    
C1    C10   S    
H12   O20   S    
C3    C5    S    
O22   S2    D    
C22   O5    D    
C29   O25   D    
C1    O23   A    
C23   C32   A    
C13   C15   A    
C9    C15   A    
C20   O2    S    
C10   C16   A    
C21   O3    D    
C21   O4    S    
C4    O33   A    
H8    O10   S    
O32   Zn2   S    
C17   C19   A    
C34   C36   A    
C9    C12   S    
H5    O4    S    
O31   Zn2   S    
C27   O14   D    
C30   O28   S    
C16   C18   A    
C2    C23   A    
C31   C36   A    
C25   O9    D    
O20   S1    S    
