data_mof_unit_39618.cif
_audit_creation_date              2012-12-11T17:43:17-0500
_audit_creation_method            fapswitch 2.2
_symmetry_space_group_name_H-M    P1
_symmetry_Int_Tables_number       1
_space_group_crystal_system       triclinic
_cell_length_a                    14.791325
_cell_length_b                    15.196097
_cell_length_c                    17.141503
_cell_angle_alpha                 109.478334
_cell_angle_beta                  105.976963
_cell_angle_gamma                 108.937899
_cell_volume                      3101.87332206

loop_
_atom_site_label
_atom_site_type_symbol
_atom_type_description
_atom_site_fract_x
_atom_site_fract_y
_atom_site_fract_z
_atom_type_partial_charge
C1    C     C_R   0.084037 0.285692 0.074836 -0.108013
C2    C     C_R   0.911987 0.718013 0.937237 -0.095249
C3    C     C_R   0.021218 0.590071 0.751511 -0.001975
C4    C     C_R   0.969091 0.494989 0.273950 -0.013111
C5    C     C_R   0.774551 0.201551 0.727923 0.074022
C6    C     C_R   0.324389 0.792584 0.263914 0.083428
C7    C     C_R   0.298361 0.466570 0.972351 0.087637
C8    C     C_R   0.631302 0.422232 0.928088 0.074269
C9    C     C_R   0.910953 0.913715 0.934412 0.270497
C10   C     C_R   0.077964 0.094313 0.092105 0.257051
C11   C     C_R   0.005810 0.913577 0.978442 -0.065206
C12   C     C_R   0.983826 0.095318 0.047561 -0.050528
C13   C     C_R   0.093853 0.008231 0.050862 -0.085128
C14   C     C_R   0.895442 0.000261 0.975137 -0.105991
C15   C     C_R   0.715994 0.962690 0.867679 -0.137106
C16   C     C_R   0.279697 0.048455 0.147992 -0.155692
C17   C     C_R   0.578743 0.958912 0.919503 -0.019022
C18   C     C_R   0.402394 0.041281 0.079739 -0.063948
C19   C     C_R   0.539433 0.502934 0.234296 -0.007520
C20   C     C_R   0.478180 0.361140 0.615934 -0.112602
C21   C     C_R   0.509711 0.487743 0.144227 -0.118387
C22   C     C_R   0.465471 0.346913 0.689388 -0.079136
C23   C     C_R   0.932196 0.526117 0.753161 -0.105283
C24   C     C_R   0.063848 0.527002 0.265738 -0.102763
C25   C     C_R   0.433385 0.388926 0.070602 0.107716
C26   C     C_R   0.479586 0.431356 0.766061 0.156667
C27   C     C_R   0.386933 0.305756 0.088463 -0.138904
C28   C     C_R   0.508591 0.530634 0.769066 -0.130494
C29   C     C_R   0.416137 0.321851 0.178791 -0.089218
C30   C     C_R   0.524170 0.545135 0.696530 -0.036413
C31   C     C_R   0.492279 0.420197 0.251603 -0.058312
C32   C     C_R   0.508566 0.460308 0.619818 -0.072325
C33   C     C_R   0.467161 0.330274 0.936384 0.294007
C34   C     C_R   0.372664 0.425721 0.856342 0.287146
C35   C     C_R   0.514185 0.377221 0.890863 -0.059420
C36   C     C_R   0.361789 0.422367 0.935211 -0.082048
C37   C     C_R   0.457635 0.414127 0.840282 -0.110861
C38   C     C_R   0.410877 0.372301 0.975751 -0.075597
C39   C     C_R   0.613378 0.950132 0.850487 -0.102621
C40   C     C_R   0.379029 0.056501 0.155289 -0.130321
C41   C     C_R   0.958034 0.516315 0.358933 0.116763
C42   C     C_R   0.015564 0.623780 0.680224 0.099417
C43   C     C_R   0.103920 0.710538 0.607384 -0.094852
C44   C     C_R   0.847996 0.470811 0.433521 -0.125820
C45   C     C_R   0.785509 0.205200 0.812612 -0.107326
C46   C     C_R   0.273546 0.790489 0.181804 -0.106268
C47   C     C_R   0.098355 0.708116 0.687161 -0.144398
C48   C     C_R   0.871190 0.444330 0.359249 -0.152615
C49   C     C_R   0.926752 0.557108 0.596913 -0.119490
C50   C     C_R   0.030628 0.610861 0.438375 -0.192001
C51   C     C_R   0.929008 0.556039 0.517075 0.099620
C52   C     C_R   0.021990 0.628005 0.520858 0.077196
C53   C     C_R   0.738910 0.108889 0.641090 0.047360
C54   C     C_R   0.427053 0.875516 0.337504 0.038962
C55   C     C_R   0.546449 0.062308 0.428761 -0.067256
C56   C     C_R   0.625510 0.920268 0.552925 -0.074095
C57   C     C_R   0.452273 0.979340 0.355910 -0.296713
C58   C     C_R   0.703009 0.008776 0.635462 -0.255483
C59   C     C_R   0.495662 0.853083 0.393575 0.307089
C60   C     C_R   0.708347 0.117487 0.560586 0.319235
C61   C     C_R   0.577896 0.935625 0.477482 -0.024488
C62   C     C_R   0.612323 0.039162 0.487541 -0.035495
C63   C     C_R   0.646806 0.980488 0.005826 -0.083369
C64   C     C_R   0.326419 0.017464 0.996318 -0.058680
C65   C     C_R   0.749543 0.993196 0.023273 -0.131945
C66   C     C_R   0.227743 0.010847 0.988761 -0.184632
C67   C     C_R   0.269325 0.540504 0.957549 -0.044100
C68   C     C_R   0.693333 0.397499 0.985202 -0.082622
C69   C     C_R   0.785044 0.984005 0.954210 0.145473
C70   C     C_R   0.203193 0.026195 0.064453 0.137326
C71   C     C_R   0.790067 0.300215 0.737171 -0.062360
C72   C     C_R   0.266410 0.697166 0.259082 -0.083627
C73   C     C_R   0.254335 0.440105 0.027961 -0.086223
C74   C     C_R   0.700993 0.494130 0.913642 -0.130417
C75   C     C_R   0.106619 0.609587 0.826523 0.001599
C76   C     C_R   0.887544 0.437614 0.185886 -0.042971
C77   C     C_R   0.909888 0.207133 0.001840 -0.145242
C78   C     C_R   0.087873 0.799350 0.010009 -0.131901
C79   C     C_R   0.992548 0.194699 0.047619 0.140759
C80   C     C_R   0.002076 0.813077 0.970722 0.118246
H1    H     H_    0.164578 0.307782 0.116922 0.151831
H2    H     H_    0.829717 0.697090 0.902665 0.149128
H3    H     H_    0.742552 0.958317 0.814467 0.161857
H4    H     H_    0.261481 0.055805 0.206113 0.177648
H5    H     H_    0.515131 0.432114 0.321363 0.151175
H6    H     H_    0.519047 0.471167 0.563052 0.144273
H7    H     H_    0.599873 0.578553 0.290649 0.171668
H8    H     H_    0.462987 0.294852 0.555461 0.153162
H9    H     H_    0.547869 0.552187 0.131631 0.135042
H10   H     H_    0.441501 0.269575 0.685341 0.142311
H11   H     H_    0.327970 0.229173 0.032614 0.166818
H12   H     H_    0.519324 0.596496 0.827612 0.140637
H13   H     H_    0.380500 0.258091 0.192581 0.185501
H14   H     H_    0.547086 0.621790 0.699308 0.165945
H15   H     H_    0.094893 0.667093 0.435405 0.162948
H16   H     H_    0.862142 0.492277 0.590870 0.142051
H17   H     H_    0.819126 0.367889 0.301297 0.164508
H18   H     H_    0.161625 0.768099 0.753412 0.148929
H19   H     H_    0.851635 0.510048 0.716624 0.120781
H20   H     H_    0.143036 0.568274 0.320096 0.133203
H21   H     H_    0.561012 0.934307 0.783829 0.138918
H22   H     H_    0.437607 0.072658 0.218890 0.186063
H23   H     H_    0.728646 0.000209 0.696626 0.143106
H24   H     H_    0.396176 0.995718 0.314937 0.153919
H25   H     H_    0.499358 0.949382 0.906230 0.131123
H26   H     H_    0.478910 0.046589 0.085530 0.130853
H27   H     H_    0.620051 0.987556 0.059335 0.121426
H28   H     H_    0.343553 0.003112 0.937160 0.171197
H29   H     H_    0.801538 0.010275 0.090615 0.142237
H30   H     H_    0.169486 0.991634 0.923273 0.153891
H31   H     H_    0.778502 0.142161 0.829970 0.099223
H32   H     H_    0.304172 0.846743 0.158585 0.125190
H33   H     H_    0.294779 0.582224 0.921811 0.152903
H34   H     H_    0.663900 0.331083 0.996105 0.184852
H35   H     H_    0.786961 0.326773 0.686253 0.178730
H36   H     H_    0.288208 0.668946 0.307777 0.161263
H37   H     H_    0.255545 0.382337 0.050204 0.111774
H38   H     H_    0.681361 0.522265 0.864648 0.113385
H39   H     H_    0.827462 0.165099 0.984599 0.146410
H40   H     H_    0.170629 0.848075 0.034631 0.158323
N1    N     N_R   0.055660 0.348550 0.045620 -0.053438
N2    N     N_R   0.944340 0.651450 0.954380 -0.057344
N3    N     N_R   0.960830 0.507850 0.823700 -0.053693
N4    N     N_R   0.039170 0.492150 0.176300 -0.051448
N5    N     N_R   0.811290 0.303410 0.871650 -0.045518
N6    N     N_R   0.188710 0.696590 0.128350 -0.040161
N7    N     N_R   0.205200 0.552990 0.997670 -0.044006
N8    N     N_R   0.794800 0.447010 0.002330 -0.062302
N9    N     N_R   0.814800 0.361830 0.823700 -0.058634
N10   N     N_R   0.185200 0.638170 0.176300 -0.055015
N11   N     N_R   0.201680 0.494570 0.045620 -0.050071
N12   N     N_R   0.798320 0.505430 0.954380 -0.048804
N13   N     N_R   0.068420 0.560530 0.871650 -0.060136
N14   N     N_R   0.931580 0.439470 0.128350 -0.070832
N15   N     N_R   0.948070 0.295860 0.997670 -0.049517
N16   N     N_R   0.051930 0.704140 0.002330 -0.045271
Ni1   Ni    Ni4+2 0.119340 0.493420 0.109960 0.251556
Ni2   Ni    Ni4+2 0.880660 0.506580 0.890040 0.222610
Ni3   Ni    Ni4+2 0.872590 0.372590 0.000000 0.253704
Ni4   Ni    Ni4+2 0.127410 0.627410 0.000000 0.264141
Br1   Br    Br    0.466017 0.202218 0.933816 -0.593783
Br2   Br    Br    0.267924 0.432605 0.764800 -0.491669
C81   C     C_2   0.200976 0.793404 0.618426 1.016427
O1    O     O_2   0.233760 0.884832 0.673759 -0.615172
O2    O     O_R   0.258469 0.767015 0.570188 -0.792998
H41   H     H_    0.324045 0.830577 0.585257 0.342006
C82   C     C_2   0.739681 0.408143 0.421606 1.039920
O3    O     O_2   0.687385 0.315858 0.363644 -0.598086
O4    O     O_R   0.695121 0.456901 0.472853 -0.812024
H42   H     H_    0.618749 0.408503 0.454472 0.325958
Br3   Br    Br    0.810085 0.214322 0.540446 -0.501885
Br4   Br    Br    0.498388 0.720090 0.343023 -0.592549
C83   C     C_2   0.562410 0.171373 0.450957 1.075481
O5    O     O_2   0.520866 0.190376 0.390670 -0.649914
O6    O     O_R   0.619833 0.251326 0.541424 -0.838330
H43   H     H_    0.628923 0.322562 0.547389 0.320130
C84   C     C_2   0.580885 0.820013 0.556778 1.071232
O7    O     O_2   0.640221 0.791700 0.594730 -0.589833
O8    O     O_R   0.471208 0.760716 0.521348 -0.790725
H44   H     H_    0.450704 0.695055 0.529550 0.344907
C85   C     C_2   0.217700 0.688116 0.864613 0.914859
O9    O     O_2   0.263253 0.689599 0.815063 -0.617441
O10   O     O_R   0.272621 0.756654 0.958603 -0.839085
H45   H     H_    0.348933 0.805496 0.977100 0.315476
C86   C     C_2   0.774797 0.372613 0.156621 0.929124
O11   O     O_2   0.734726 0.277743 0.108106 -0.637118
O12   O     O_R   0.714704 0.418646 0.186250 -0.801566
H46   H     H_    0.638586 0.365094 0.162466 0.348970
Br5   Br    Br    0.811489 0.804373 0.810935 -0.573484
Br6   Br    Br    0.177652 0.204076 0.214680 -0.592753

loop_
_geom_bond_atom_site_label_1
_geom_bond_atom_site_label_2
_ccdc_geom_bond_type
C23   H19   S    
C63   C65   A    
C3    C42   S    
C86   O11   D    
C31   H5    S    
C46   H32   S    
C27   C29   A    
C34   C37   A    
C7    C36   S    
C9    Br5   S    
C82   O3    D    
C16   H4    S    
N16   Ni4   S    
C19   C31   A    
C73   N11   A    
O2    H41   S    
C7    C73   A    
C21   H9    S    
C59   Br4   S    
N5    Ni3   S    
N15   Ni3   S    
C48   H17   S    
N3    Ni2   S    
N6    Ni4   S    
C84   O7    D    
C47   H18   S    
N3    N13   A    
C5    C53   S    
C82   O4    S    
N8    Ni3   S    
C74   N12   A    
C4    C24   A    
C78   C80   A    
C43   C52   A    
C13   C70   S    
N6    N10   A    
N12   Ni2   S    
C81   O1    D    
C12   C79   S    
C24   N4    A    
C44   C82   S    
C60   C62   A    
C17   C39   A    
N1    Ni1   S    
C18   C40   A    
C21   C25   A    
C43   C81   S    
N9    Ni2   S    
O10   H45   S    
C45   N5    A    
C49   C51   A    
C50   C52   A    
C27   H11   S    
C83   O6    S    
C3    C75   A    
C68   N8    A    
C77   C79   A    
C86   O12   S    
C5    C71   A    
C4    C41   S    
C6    C54   S    
C15   C69   A    
N8    N12   A    
C85   O10   S    
C53   C60   A    
C39   H21   S    
N7    N11   A    
C54   C59   A    
C2    N2    A    
C74   H38   S    
C59   C61   A    
C73   H37   S    
C51   C52   A    
C30   C32   A    
N4    Ni1   S    
C16   C70   A    
N2    Ni2   S    
O12   H46   S    
C76   N14   A    
C30   H14   S    
C15   H3    S    
C40   H22   S    
C33   Br1   S    
C3    C23   A    
C5    C45   A    
N1    N15   A    
C60   Br3   S    
C64   C66   A    
C6    C72   A    
C9    C14   A    
C18   H26   S    
C56   C84   S    
N11   Ni1   S    
C67   N7    A    
C25   C38   S    
C71   N9    A    
O8    H44   S    
C32   H6    S    
C8    C74   A    
C22   H10   S    
C71   H35   S    
C76   C86   S    
C28   H12   S    
C66   H30   S    
C9    C11   A    
C15   C39   A    
C10   C12   A    
C16   C40   A    
C44   C51   A    
C55   C62   A    
C12   C14   A    
C8    C68   A    
C55   C57   A    
C1    C79   A    
C14   C69   S    
C2    H2    S    
C10   Br6   S    
N7    Ni4   S    
N2    N16   A    
C63   H27   S    
C41   C50   A    
N14   Ni3   S    
C20   C32   A    
C81   O2    S    
C57   H24   S    
C78   H40   S    
C34   Br2   S    
C6    C46   A    
C35   C37   A    
C24   H20   S    
C46   N6    A    
C20   C22   A    
C43   C47   A    
C77   H39   S    
C10   C13   A    
C23   N3    A    
C53   C58   A    
C75   N13   A    
C26   C37   S    
C72   N10   A    
C17   H25   S    
C25   C27   A    
C72   H36   S    
C26   C28   A    
C33   C38   A    
N4    N14   A    
C75   C85   S    
C28   C30   A    
C67   H33   S    
C19   H7    S    
C29   C31   A    
C85   O9    D    
C45   H31   S    
C17   C63   A    
C29   H13   S    
C11   C13   A    
C18   C64   A    
C65   H29   S    
C78   N16   A    
C65   C69   A    
C20   H8    S    
C36   C38   A    
C33   C35   A    
C41   C48   A    
C56   C58   A    
C34   C36   A    
C42   C47   A    
C49   H16   S    
C61   C62   A    
C50   H15   S    
C1    N1    A    
C4    C76   A    
C2    C80   A    
C11   C80   S    
C42   C49   A    
C7    C67   A    
N5    N9    A    
C66   C70   A    
N13   Ni4   S    
C84   O8    S    
C22   C26   A    
O6    H43   S    
C56   C61   A    
C58   H23   S    
C77   N15   A    
C83   O5    D    
O4    H42   S    
N10   Ni1   S    
C1    H1    S    
C8    C35   S    
C55   C83   S    
C44   C48   A    
C64   H28   S    
C68   H34   S    
C19   C21   A    
C54   C57   A    
