data_mof_unit_32365.cif
_audit_creation_date              2012-12-10T20:37:27-0500
_audit_creation_method            fapswitch 2.2
_symmetry_space_group_name_H-M    P1
_symmetry_Int_Tables_number       1
_space_group_crystal_system       triclinic
_cell_length_a                    15.743519
_cell_length_b                    10.648005
_cell_length_c                    9.896747
_cell_angle_alpha                 90.464741
_cell_angle_beta                  90.410822
_cell_angle_gamma                 90.630288
_cell_volume                      1658.86298393

loop_
_atom_site_label
_atom_site_type_symbol
_atom_type_description
_atom_site_fract_x
_atom_site_fract_y
_atom_site_fract_z
_atom_type_partial_charge
C1    C     C_R   0.497742 0.259951 0.499690 0.942505
C2    C     C_3   0.083681 0.499785 0.501850 0.031270
C3    C     C_3   0.973633 0.581542 0.593139 0.239451
C4    C     C_3   0.916481 0.500715 0.500133 -0.023772
C5    C     C_3   0.028527 0.614117 0.471067 0.204299
C6    C     C_3   0.971391 0.533850 0.375445 -0.343109
C7    C     C_1   0.174304 0.499577 0.499970 0.008270
C8    C     C_1   0.825783 0.500596 0.501058 -0.022333
C9    C     C_R   0.495016 0.064482 0.621626 -0.074929
C10   C     C_R   0.483841 0.128294 0.501147 -0.167062
C11   C     C_R   0.450863 0.064860 0.387493 -0.211007
C12   C     C_R   0.338095 0.499823 0.499597 0.878959
C13   C     C_R   0.443536 0.934695 0.388966 0.450653
C14   C     C_R   0.475058 0.870242 0.503555 -0.226433
C15   C     C_R   0.490427 0.936650 0.623216 -0.061129
C16   C     C_3   0.560479 0.927407 0.726808 0.227544
C17   C     C_3   0.565534 0.070617 0.724617 0.225600
C18   C     C_R   0.442170 0.428843 0.069885 0.100340
C19   C     C_R   0.562044 0.559660 0.074398 -0.066287
C20   C     C_R   0.562041 0.561645 0.931379 0.509574
C21   C     C_R   0.441753 0.429567 0.927578 0.098925
C22   C     C_3   0.347232 0.441892 0.923191 0.233709
C23   C     C_R   0.493690 0.739516 0.500428 0.862810
C24   C     C_3   0.348007 0.439039 0.076735 -0.487977
C25   C     C_R   0.661919 0.500197 0.500443 0.912471
C26   C     C_3   0.971645 0.386442 0.530803 0.170344
C27   C     C_3   0.026685 0.418917 0.409012 0.459823
C28   C     C_1   0.249418 0.499648 0.499101 -0.165562
C29   C     C_1   0.750641 0.500420 0.501235 -0.145534
C30   C     C_3   0.028821 0.466369 0.626644 -0.342415
H1    H     H_    0.617910 0.878751 0.689084 0.139076
H2    H     H_    0.546720 0.117984 0.820200 0.151588
H3    H     H_    0.610610 0.610971 0.130484 0.173221
H4    H     H_    0.314557 0.360371 0.873422 0.092235
H5    H     H_    0.327302 0.528133 0.125157 0.241324
H6    H     H_    0.318092 0.352653 0.118140 0.173525
H7    H     H_    0.947341 0.560545 0.274080 0.170678
H8    H     H_    0.053038 0.439022 0.727702 0.165890
H9    H     H_    0.432803 0.115274 0.297207 0.184413
N1    N     N_R   0.499430 0.499140 0.142800 -0.132625
N2    N     N_R   0.499430 0.499180 0.857150 -0.141876
O1    O     O_R   0.500010 0.316790 0.614690 -0.609356
O2    O     O_R   0.500000 0.316760 0.385350 -0.626666
O3    O     O_R   0.376780 0.500010 0.614650 -0.571356
O4    O     O_R   0.376770 0.499970 0.385310 -0.629302
O5    O     O_R   0.500000 0.683240 0.614650 -0.606326
O6    O     O_R   0.499990 0.683210 0.385310 -0.600318
O7    O     O_R   0.623230 0.500030 0.614690 -0.615026
O8    O     O_R   0.623220 0.499990 0.385350 -0.621830
Zn1   Zn    Zn3+2 0.500010 0.500020 0.653130 1.011882
Zn2   Zn    Zn3+2 0.499990 0.499980 0.346870 0.963998
O9    O     O_3   0.057420 0.332917 0.314290 -0.767675
H10   H     H_    0.006217 0.295671 0.270266 0.337506
O10   O     O_3   0.642744 0.117744 0.673296 -0.747495
H11   H     H_    0.654638 0.074707 0.586103 0.327548
O11   O     O_3   0.625163 0.630973 0.871355 -0.746616
H12   H     H_    0.605437 0.653190 0.780458 0.388162
O12   O     O_3   0.322522 0.559145 0.873972 -0.698063
H13   H     H_    0.259516 0.557021 0.871603 0.330934
N3    N     N_2   0.937190 0.263238 0.560555 -0.296408
H14   H     H_    0.889320 0.266006 0.631007 0.246703
C31   C     C_3   0.999717 0.168657 0.589720 -0.743560
H15   H     H_    0.967336 0.076608 0.603986 0.239834
H16   H     H_    0.035302 0.193459 0.683729 0.232286
H17   H     H_    0.044794 0.159205 0.504630 0.273228
N4    N     N_2   0.063028 0.736973 0.439817 -0.304581
H18   H     H_    0.111756 0.733362 0.370924 0.231835
C32   C     C_3   0.000606 0.830631 0.406838 -0.751157
H19   H     H_    0.032832 0.922897 0.393521 0.241166
H20   H     H_    0.953755 0.840113 0.489444 0.267391
H21   H     H_    0.967028 0.804853 0.311301 0.236675
N5    N     N_2   0.941333 0.669877 0.691565 -0.299879
H22   H     H_    0.892208 0.633108 0.747659 0.241669
C33   C     C_3   0.005417 0.732147 0.774078 -0.759908
H23   H     H_    0.974960 0.803851 0.839176 0.242349
H24   H     H_    0.052979 0.780339 0.709844 0.269714
H25   H     H_    0.037877 0.663090 0.839673 0.231574
O13   O     O_3   0.409537 0.875219 0.276429 -0.737779
H26   H     H_    0.380816 0.797122 0.306355 0.340853
O14   O     O_3   0.532188 0.879775 0.851210 -0.706165
H27   H     H_    0.477547 0.920124 0.874586 0.347711

loop_
_geom_bond_atom_site_label_1
_geom_bond_atom_site_label_2
_ccdc_geom_bond_type
N4    C32   S    
C18   C21   A    
C2    C7    S    
C4    C8    S    
C20   N2    A    
O9    H10   S    
C16   H1    S    
C26   C27   S    
C24   H6    S    
C33   H24   S    
C12   C28   S    
C18   C24   S    
C8    C29   T    
C5    C6    S    
O4    Zn2   S    
C15   C16   S    
O11   H12   S    
C30   H8    S    
N3    C31   S    
C18   N1    A    
C31   H16   S    
C13   O13   S    
C1    O2    A    
C19   C20   A    
C16   C17   S    
O8    Zn2   S    
C33   H25   S    
C2    C27   S    
C9    C10   A    
C20   O11   S    
N5    H22   S    
O7    Zn1   S    
N4    H18   S    
C23   O5    A    
C13   C14   A    
C19   N1    A    
C25   C29   S    
C22   H4    S    
C24   H5    S    
C23   O6    A    
C33   H23   S    
N5    C33   S    
C19   H3    S    
O13   H26   S    
O14   H27   S    
O6    Zn2   S    
O12   H13   S    
C7    C28   T    
N3    H14   S    
C16   O14   S    
C14   C23   S    
C3    C30   S    
C31   H15   S    
C6    C27   S    
C6    H7    S    
C9    C17   S    
C11   H9    S    
C25   O7    A    
O1    Zn1   S    
C21   N2    A    
C4    C6    S    
C26   C30   S    
C22   C24   S    
C2    C5    S    
C3    C4    S    
N2    Zn1   S    
C27   O9    S    
O3    Zn1   S    
O10   H11   S    
C31   H17   S    
C32   H19   S    
C1    C10   S    
C12   O4    A    
C3    C5    S    
C22   O12   S    
C4    C26   S    
N1    Zn2   S    
O5    Zn1   S    
C2    C30   S    
C3    N5    S    
C9    C15   A    
C12   O3    A    
C5    N4    S    
C11   C13   A    
O2    Zn2   S    
C32   H21   S    
C25   O8    A    
C10   C11   A    
C1    O1    A    
C32   H20   S    
C17   H2    S    
C14   C15   A    
C21   C22   S    
C26   N3    S    
C17   O10   S    
