data_mof_unit_13008.cif
_audit_creation_date              2012-10-26T19:20:38-0400
_audit_creation_method            fapswitch 2.2
_symmetry_space_group_name_H-M    P1
_symmetry_Int_Tables_number       1
_space_group_crystal_system       triclinic
_cell_length_a                    10.865489
_cell_length_b                    11.038568
_cell_length_c                    9.859292
_cell_angle_alpha                 111.023261
_cell_angle_beta                  101.112247
_cell_angle_gamma                 90.563406
_cell_volume                      1079.0751175

loop_
_atom_site_label
_atom_site_type_symbol
_atom_type_description
_atom_site_fract_x
_atom_site_fract_y
_atom_site_fract_z
_atom_type_partial_charge
Br1   Br    Br    0.002506 0.293971 0.894214 -0.451563
Br2   Br    Br    0.997532 0.706360 0.105813 -0.451495
Br3   Br    Br    0.656702 0.707312 0.990541 -0.399343
Br4   Br    Br    0.343533 0.292562 0.009449 -0.399377
C1    C     C_R   0.490870 0.253946 0.440516 0.559108
C2    C     C_R   0.738208 0.490948 0.501404 0.537022
C3    C     C_R   0.167476 0.675373 0.752710 -0.101975
C4    C     C_R   0.832558 0.324713 0.247285 -0.101935
C5    C     C_R   0.138274 0.716099 0.892467 -0.071945
C6    C     C_R   0.861760 0.284047 0.107522 -0.071900
C7    C     C_R   0.027977 0.665202 0.910305 0.198961
C8    C     C_R   0.972044 0.335007 0.089711 0.198951
C9    C     C_R   0.941187 0.583351 0.785868 -0.019131
C10   C     C_R   0.058817 0.416843 0.214168 -0.019130
C11   C     C_R   0.964949 0.548227 0.640155 -0.008632
C12   C     C_R   0.509129 0.746054 0.559484 0.559069
C13   C     C_R   0.035064 0.451877 0.359872 -0.008658
C14   C     C_R   0.086649 0.581640 0.627914 0.010130
C15   C     C_R   0.913373 0.418435 0.372105 0.010112
C16   C     C_R   0.874236 0.478707 0.507501 -0.010392
C17   C     C_R   0.125777 0.521362 0.492518 -0.010421
C18   C     C_2   0.485952 0.114687 0.406790 -0.102043
C19   C     C_2   0.514045 0.885313 0.593210 -0.102050
C20   C     C_2   0.502350 0.069548 0.516749 -0.134276
C21   C     C_2   0.497645 0.930452 0.483251 -0.134281
C22   C     C_2   0.506588 0.513269 0.082800 0.073715
C23   C     C_2   0.493346 0.486790 0.917209 0.073714
C24   C     C_R   0.261796 0.509082 0.498604 0.537021
Cu1   Cu    Cu3+1 0.521920 0.521810 0.644910 1.044566
Cu2   Cu    Cu3+1 0.478080 0.478190 0.355090 1.044584
H1    H     H_    0.254240 0.717607 0.743259 0.150703
H2    H     H_    0.468878 0.048596 0.291297 0.131571
H3    H     H_    0.428603 0.406376 0.837997 0.167821
H4    H     H_    0.571250 0.593745 0.162016 0.167778
H5    H     H_    0.745800 0.282450 0.256717 0.150736
H6    H     H_    0.203691 0.783715 0.987576 0.152095
H7    H     H_    0.796344 0.216442 0.012387 0.152102
H8    H     H_    0.861165 0.541920 0.808633 0.208231
H9    H     H_    0.138814 0.458347 0.191434 0.208118
H10   H     H_    0.480611 0.864600 0.367580 0.169414
H11   H     H_    0.519382 0.135400 0.632420 0.169452
H12   H     H_    0.531120 0.951404 0.708703 0.131584
N1    N     N_2   0.445130 0.445420 0.137360 -0.123554
N2    N     N_2   0.554870 0.554580 0.862640 -0.123578
O1    O     O_R   0.511700 0.332340 0.577400 -0.515396
O2    O     O_R   0.488300 0.667660 0.422600 -0.515451
O3    O     O_R   0.474680 0.295500 0.332650 -0.459689
O4    O     O_R   0.525320 0.704500 0.667350 -0.459747
O5    O     O_R   0.338170 0.518410 0.622370 -0.510628
O6    O     O_R   0.661830 0.481590 0.377630 -0.510593
O7    O     O_R   0.301150 0.481570 0.377630 -0.494689
O8    O     O_R   0.698850 0.518430 0.622370 -0.494686

loop_
_geom_bond_atom_site_label_1
_geom_bond_atom_site_label_2
_ccdc_geom_bond_type
C5    H6    S    
Cu2   O7    S    
Cu1   Cu2   S    
Br4   N1    S    
C11   C14   A    
C14   C17   A    
C2    C16   S    
C24   O5    A    
C19   H12   S    
C15   C16   A    
C22   H4    S    
C3    C14   A    
C2    O8    A    
C12   O4    A    
C9    C11   A    
C9    H8    S    
C21   H10   S    
Cu1   O5    S    
C23   H3    S    
C20   H11   S    
C5    C7    A    
C10   C13   A    
C22   C23   S    
Br1   C8    S    
C18   H2    S    
C6    H7    S    
Br2   C7    S    
C6    C8    A    
C1    O3    A    
C17   C24   S    
C8    C10   A    
C22   N1    D    
C12   C19   S    
C19   C21   D    
Cu1   N2    S    
Cu2   O6    S    
C11   C16   A    
Cu2   N1    S    
C24   O7    A    
C18   C20   D    
Br3   N2    S    
C4    C15   A    
C3    H1    S    
Cu1   O4    S    
Cu2   O3    S    
C7    C9    A    
C20   C21   S    
C4    C6    A    
C12   O2    A    
C3    C5    A    
Cu1   O8    S    
C13   C15   A    
C10   H9    S    
C1    O1    A    
C23   N2    D    
Cu2   O2    S    
C2    O6    A    
C1    C18   S    
Cu1   O1    S    
C4    H5    S    
C13   C17   A    
