data_mof_unit_49460.cif
_audit_creation_date              2012-10-26T19:02:35-0400
_audit_creation_method            fapswitch 2.2
_symmetry_space_group_name_H-M    P1
_symmetry_Int_Tables_number       1
_space_group_crystal_system       triclinic
_cell_length_a                    17.234866
_cell_length_b                    8.690399
_cell_length_c                    7.43669
_cell_angle_alpha                 103.029804
_cell_angle_beta                  89.443607
_cell_angle_gamma                 92.9265
_cell_volume                      1083.75602171

loop_
_atom_site_label
_atom_site_type_symbol
_atom_type_description
_atom_site_fract_x
_atom_site_fract_y
_atom_site_fract_z
_atom_type_partial_charge
C1    C     C_R   0.497665 0.199745 0.453599 0.543866
C2    C     C_R   0.778352 0.591073 0.589599 -0.154554
C3    C     C_R   0.141602 0.403705 0.422871 -0.139908
C4    C     C_R   0.858398 0.596292 0.577130 -0.139907
C5    C     C_R   0.104659 0.496702 0.574622 -0.016249
C6    C     C_R   0.895341 0.503293 0.425379 -0.016249
C7    C     C_R   0.149429 0.593965 0.719783 0.320429
C8    C     C_R   0.850571 0.406030 0.280218 0.320428
C9    C     C_R   0.230599 0.601446 0.705113 0.294831
C10   C     C_R   0.769401 0.398551 0.294887 0.294831
C11   C     C_2   0.019570 0.492954 0.574905 -0.140649
C12   C     C_R   0.502335 0.800254 0.546401 0.543867
C13   C     C_2   0.980430 0.507040 0.425096 -0.140649
C14   C     C_2   0.496563 0.031845 0.427492 -0.145549
C15   C     C_2   0.503437 0.968155 0.572507 -0.145549
C16   C     C_R   0.351200 0.505222 0.528084 0.531818
C17   C     C_R   0.648800 0.494778 0.471916 0.531819
C18   C     C_R   0.266870 0.506932 0.549472 -0.037584
C19   C     C_R   0.733130 0.493066 0.450528 -0.037585
C20   C     C_R   0.221648 0.408926 0.410401 -0.154554
Cu1   Cu    Cu3+1 0.508700 0.517250 0.683000 0.990465
Cu2   Cu    Cu3+1 0.491300 0.482750 0.317000 0.990465
H1    H     H_    0.248424 0.334703 0.291622 0.158437
H2    H     H_    0.560816 0.620321 0.041318 0.245063
H3    H     H_    0.679877 0.256078 0.211279 0.326811
H4    H     H_    0.320122 0.743921 0.788722 0.326811
H5    H     H_    0.060012 0.687806 0.860789 0.313229
H6    H     H_    0.939987 0.312181 0.139217 0.313229
H7    H     H_    0.751576 0.665298 0.708378 0.158437
H8    H     H_    0.011336 0.519677 0.300735 0.141774
H9    H     H_    0.988663 0.480317 0.699265 0.141773
H10   H     H_    0.891831 0.673800 0.687004 0.144061
H11   H     H_    0.108169 0.326197 0.312997 0.144061
H12   H     H_    0.490084 0.960286 0.287733 0.140897
H13   H     H_    0.509916 0.039714 0.712267 0.140897
H14   H     H_    0.439184 0.379679 0.958681 0.245063
N1    N     N_2   0.478180 0.456750 0.041980 -0.247350
N2    N     N_2   0.521820 0.543250 0.958020 -0.247350
O1    O     O_R   0.505650 0.286040 0.618880 -0.503684
O2    O     O_3   0.271711 0.707137 0.842026 -0.630311
O3    O     O_3   0.117080 0.690255 0.873066 -0.642348
O4    O     O_3   0.882920 0.309739 0.126935 -0.642347
O5    O     O_R   0.494350 0.713960 0.381120 -0.503683
O6    O     O_R   0.490960 0.256910 0.309800 -0.502948
O7    O     O_R   0.509040 0.743090 0.690200 -0.502948
O8    O     O_R   0.394600 0.516230 0.672450 -0.500007
O9    O     O_R   0.605400 0.483770 0.327550 -0.500008
O10   O     O_R   0.379910 0.487100 0.363380 -0.490542
O11   O     O_R   0.620090 0.512900 0.636620 -0.490542
O12   O     O_3   0.728288 0.292860 0.157974 -0.630310

loop_
_geom_bond_atom_site_label_1
_geom_bond_atom_site_label_2
_ccdc_geom_bond_type
C14   H12   S    
Cu2   O10   S    
C20   H1    S    
N1    N2    D    
H5    O3    S    
C1    O6    A    
C2    C4    A    
Cu2   O5    S    
Cu1   O1    S    
C12   C15   S    
C10   C19   A    
C16   O10   A    
Cu1   O11   S    
Cu2   O9    S    
C11   H9    S    
C3    C20   A    
Cu1   Cu2   S    
C6    C13   S    
C11   C13   D    
H4    O2    S    
C4    H10   S    
C2    H7    S    
C8    C10   A    
H14   N1    S    
C17   C19   S    
C8    O4    S    
C5    C11   S    
C12   O5    A    
Cu1   O7    S    
C7    O3    S    
C16   O8    A    
C4    C6    A    
C3    H11   S    
C17   O11   A    
H2    N2    S    
C10   O12   S    
C7    C9    A    
C9    C18   A    
C13   H8    S    
C18   C20   A    
C16   C18   S    
Cu1   O8    S    
C15   H13   S    
C5    C7    A    
C1    O1    A    
C14   C15   D    
C6    C8    A    
C1    C14   S    
H6    O4    S    
C2    C19   A    
H3    O12   S    
Cu2   N1    S    
C9    O2    S    
Cu2   O6    S    
Cu1   N2    S    
C17   O9    A    
C12   O7    A    
C3    C5    A    
