data_mof_unit_55853.cif
_audit_creation_date              2012-12-10T16:45:24-0500
_audit_creation_method            fapswitch 2.2
_symmetry_space_group_name_H-M    P1
_symmetry_Int_Tables_number       1
_space_group_crystal_system       triclinic
_cell_length_a                    7.484996
_cell_length_b                    8.686674
_cell_length_c                    15.675432
_cell_angle_alpha                 94.330629
_cell_angle_beta                  75.053135
_cell_angle_gamma                 103.270965
_cell_volume                      958.286708865

loop_
_atom_site_label
_atom_site_type_symbol
_atom_type_description
_atom_site_fract_x
_atom_site_fract_y
_atom_site_fract_z
_atom_type_partial_charge
C1    C     C_R   0.544951 0.799999 0.502782 0.938415
C2    C     C_R   0.454897 0.199986 0.497417 0.856208
C3    C     C_R   0.297909 0.425976 0.083535 -0.169070
C4    C     C_R   0.730946 0.590910 0.914060 -0.074933
C5    C     C_R   0.177954 0.356624 0.029923 -0.217669
C6    C     C_R   0.864910 0.619038 0.963922 -0.196082
C7    C     C_2   0.569893 0.968105 0.504242 -0.293221
C8    C     C_2   0.429769 0.031844 0.496196 -0.288790
C9    C     C_R   0.384742 0.490198 0.666426 0.867409
C10   C     C_R   0.616121 0.522500 0.333900 0.833637
C11   C     C_R   0.315429 0.474534 0.762494 -0.131018
C12   C     C_R   0.684999 0.557498 0.238517 -0.170191
C13   C     C_R   0.102204 0.326912 0.887476 -0.162278
C14   C     C_R   0.938983 0.614996 0.105541 -0.141246
C15   C     C_R   0.151259 0.361453 0.798005 -0.237390
C16   C     C_R   0.876609 0.575529 0.194748 -0.182360
C17   C     C_R   0.427758 0.558041 0.817810 0.281063
C18   C     C_R   0.558790 0.582451 0.190483 0.314946
C19   C     C_R   0.398348 0.501620 0.903927 -0.051423
C20   C     C_R   0.612046 0.569456 0.097878 -0.031438
C21   C     C_R   0.225468 0.394588 0.940602 0.094899
C22   C     C_R   0.806705 0.604143 0.055488 0.067372
C23   C     C_R   0.535525 0.543844 0.954371 0.076423
C24   C     C_R   0.478436 0.519352 0.046664 0.087750
Cu1   Cu    Cu3+1 0.322120 0.483240 0.490330 1.033963
Cu2   Cu    Cu3+1 0.677880 0.516760 0.509670 1.037592
H1    H     H_    0.044586 0.277564 0.059134 0.163507
H2    H     H_    0.014186 0.647437 0.930522 0.163346
H3    H     H_    0.977300 0.563105 0.229840 0.241258
H4    H     H_    0.062293 0.298526 0.756283 0.190892
H5    H     H_    0.971664 0.242583 0.914375 0.177591
H6    H     H_    0.088840 0.642558 0.074217 0.200444
H7    H     H_    0.254111 0.396477 0.152803 0.172040
H8    H     H_    0.783168 0.592117 0.843240 0.195634
H9    H     H_    0.704724 0.039728 0.511881 0.176166
H10   H     H_    0.294959 0.960186 0.488533 0.195505
H11   H     H_    0.003612 0.616565 0.568865 0.247936
H12   H     H_    0.996309 0.383299 0.431204 0.235798
N1    N     N_2   0.945180 0.542040 0.524240 -0.195711
N2    N     N_2   0.054820 0.457960 0.475760 -0.190797
O1    O     O_R   0.384450 0.714270 0.493720 -0.565072
O2    O     O_R   0.615550 0.285730 0.506280 -0.596813
O3    O     O_R   0.684880 0.742590 0.510050 -0.561126
O4    O     O_R   0.315120 0.257410 0.489950 -0.585692
O5    O     O_R   0.265540 0.477900 0.617090 -0.602040
O6    O     O_R   0.734460 0.522100 0.382910 -0.584405
O7    O     O_R   0.565970 0.506210 0.633420 -0.542492
O8    O     O_R   0.434030 0.493790 0.366580 -0.524854
S1    S     S_3+6 0.400270 0.708419 0.237373 -0.007051
O9    O     O_2   0.224845 0.618126 0.298357 -0.289149
O10   O     O_2   0.495921 0.838634 0.289854 -0.300989
O11   O     O_3   0.338893 0.790094 0.158290 -0.546965
H13   H     H_    0.456862 0.861724 0.126646 0.355684
S2    S     S_3+6 0.556887 0.754682 0.788218 -0.010409
O12   O     O_2   0.748702 0.751797 0.728464 -0.277589
O13   O     O_2   0.450731 0.830116 0.739830 -0.307964
O14   O     O_3   0.584547 0.865819 0.878508 -0.513695
H14   H     H_    0.454057 0.866190 0.913707 0.344445

loop_
_geom_bond_atom_site_label_1
_geom_bond_atom_site_label_2
_ccdc_geom_bond_type
C10   O6    A    
C19   C23   A    
C23   C24   A    
S2    O13   D    
C9    O5    A    
C6    H2    S    
C1    O3    A    
C18   C20   A    
C3    C5    A    
S1    O11   S    
C14   C22   A    
Cu1   Cu2   S    
C13   C21   A    
C7    C8    D    
H11   N1    S    
Cu1   O1    S    
H12   N2    S    
C9    C11   S    
Cu1   O8    S    
O14   H14   S    
C10   C12   S    
Cu2   O7    S    
C2    O2    A    
Cu1   O4    S    
C1    O1    A    
C19   C21   A    
C3    C24   A    
C20   C22   A    
Cu2   O3    S    
C9    O7    A    
C14   C16   A    
C13   C15   A    
Cu1   N2    S    
C10   O8    A    
C20   C24   A    
C4    H8    S    
Cu2   N1    S    
C3    H7    S    
C12   C18   A    
C6    C22   A    
Cu1   O5    S    
C7    H9    S    
C5    C21   A    
O11   H13   S    
Cu2   O2    S    
C15   H4    S    
C4    C6    A    
S1    O9    D    
C8    H10   S    
C2    O4    A    
N1    N2    D    
C4    C23   A    
Cu2   O6    S    
S2    O12   D    
C11   C17   A    
C1    C7    S    
C17   C19   A    
C16   H3    S    
C5    H1    S    
C11   C15   A    
C17   S2    S    
C13   H5    S    
C2    C8    S    
C12   C16   A    
C18   S1    S    
C14   H6    S    
S1    O10   D    
S2    O14   S    
