data_mof_unit_66808.cif
_audit_creation_date              2013-03-05T15:41:24-0500
_audit_creation_method            fapswitch 2.2
_symmetry_space_group_name_H-M    P1
_symmetry_Int_Tables_number       1
_space_group_crystal_system       triclinic
_cell_length_a                    8.446338
_cell_length_b                    15.244656
_cell_length_c                    15.313886
_cell_angle_alpha                 97.80035
_cell_angle_beta                  99.348336
_cell_angle_gamma                 97.448492
_cell_volume                      1904.30364687

loop_
_atom_site_label
_atom_site_type_symbol
_atom_site_description
_atom_site_fract_x
_atom_site_fract_y
_atom_site_fract_z
_atom_type_partial_charge
P1    P     P_3+3 0.004160 0.709210 0.580280 0.584888
O1    O     O_2   0.174040 0.723040 0.553850 -0.312894
O2    O     O_3   0.901550 0.609570 0.550800 -0.355590
O3    O     O_3   0.370320 0.665070 0.388210 -0.377903
O4    O     O_2   0.287809 0.824915 0.442874 -0.353150
O5    O     O_3   0.045018 0.734069 0.697866 -0.513860
O6    O     O_3   0.393306 0.816924 0.291686 -0.542920
H1    H     H_    0.196864 0.718123 0.245862 0.146424
C1    C     C_3   0.272314 0.778860 0.135880 0.025712
P2    P     P_3+3 0.305010 0.425580 0.290930 0.624654
P3    P     P_3+3 0.878813 0.603279 0.223547 0.539428
O7    O     O_2   0.134800 0.452800 0.278160 -0.251133
O8    O     O_3   0.937630 0.618610 0.340820 -0.349915
O9    O     O_2   0.017509 0.564380 0.184327 -0.348545
O10   O     O_3   0.236373 0.308510 0.265413 -0.546360
O11   O     O_3   0.891634 0.711814 0.195842 -0.453010
C2    C     C_3   0.821035 0.766451 0.256014 0.327398
H2    H     H_    0.843518 0.751161 0.324885 0.103941
H3    H     H_    0.687802 0.758193 0.233319 0.086515
C3    C     C_3   0.897730 0.864352 0.266186 -0.683946
H4    H     H_    0.031835 0.869673 0.275329 0.253629
C4    C     C_3   0.726318 0.305293 0.246658 0.963201
H5    H     H_    0.642130 0.346808 0.271150 -0.803187
C5    C     C_3   0.642792 0.255734 0.153334 0.037990
H6    H     H_    0.517687 0.227113 0.155726 0.086677
H7    H     H_    0.633420 0.303606 0.104817 0.114320
Ba1   Ba    Ba6+2 0.154720 0.543770 0.458160 1.282579
C6    C     C_3   0.075701 0.657606 0.735612 0.918583
H8    H     H_    0.961636 0.611082 0.730266 0.073792
C7    C     C_3   0.154851 0.685541 0.834673 -0.044965
H9    H     H_    0.217512 0.631529 0.859112 0.108634
H10   H     H_    0.061010 0.696714 0.875558 0.139832
C8    C     C_3   0.321412 0.262010 0.325709 0.838861
H11   H     H_    0.449776 0.277089 0.322373 0.055606
C9    C     C_3   0.273293 0.159004 0.300355 -0.795318
H12   H     H_    0.344690 0.129928 0.353606 0.149561
P4    P     P_3+3 0.806120 0.290780 0.419650 0.607765
O12   O     O_2   0.636250 0.276900 0.446120 -0.355833
O13   O     O_3   0.908740 0.390420 0.449120 -0.272738
O14   O     O_3   0.439970 0.334920 0.611710 -0.327414
O15   O     O_3   0.759358 0.244015 0.304390 -0.517243
P5    P     P_3+3 0.922502 0.385526 0.775262 0.461012
O16   O     O_3   0.402050 0.547860 0.609740 -0.292944
O17   O     O_3   0.872650 0.381380 0.659100 -0.307169
O18   O     O_2   0.813288 0.446731 0.817254 -0.385214
O19   O     O_3   0.854766 0.278623 0.798571 -0.541004
Ba2   Ba    Ba6+2 0.655440 0.456220 0.541760 1.349333
P6    P     P_3+3 0.419292 0.784505 0.398058 0.472851
C10   C     C_3   0.312013 0.744968 0.226324 0.358104
H13   H     H_    0.387990 0.690716 0.220194 0.034916
O20   O     O_3   0.408230 0.452130 0.390190 -0.297726
C11   C     C_3   0.651578 0.743182 0.787867 0.731659
C12   C     C_3   0.655353 0.813532 0.871151 -0.112017
H14   H     H_    0.641107 0.779526 0.929963 0.172719
H15   H     H_    0.552542 0.851615 0.859150 0.196934
P7    P     P_3+3 0.500106 0.569340 0.725152 0.540460
O21   O     O_2   0.675480 0.547140 0.721810 -0.331768
O22   O     O_3   0.504577 0.682737 0.773585 -0.618912
H16   H     H_    0.870104 0.900898 0.328106 0.171784
C13   C     C_3   0.971072 0.223280 0.780970 0.211586
H17   H     H_    0.988539 0.221251 0.710277 0.097152
H18   H     H_    0.088870 0.250152 0.826384 0.083153
C14   C     C_3   0.921188 0.126076 0.796514 -0.042245
P8    P     P_3+3 0.390398 0.220376 0.604779 0.577722
C15   C     C_3   0.436098 0.262343 0.775733 0.472092
H19   H     H_    0.309439 0.276155 0.761552 -0.057737
O23   O     O_2   0.496243 0.177345 0.542823 -0.316826
O24   O     O_3   0.464409 0.194971 0.710369 -0.470494
H20   H     H_    0.521384 0.324995 0.778280 0.067841
C16   C     C_3   0.465714 0.233413 0.867453 0.045565
H21   H     H_    0.445797 0.287877 0.918581 0.116783
H22   H     H_    0.593277 0.221916 0.883601 0.199349
C17   C     C_R   0.634354 0.834697 0.457617 0.096083
H23   H     H_    0.499334 0.967100 0.387531 0.208882
C18   C     C_R   0.890738 0.797472 0.532461 0.210504
C19   C     C_R   0.063023 0.236406 0.535747 0.208161
C20   C     C_R   0.168652 0.177085 0.563135 0.017325
C21   C     C_R   0.110280 0.085513 0.556069 -0.257548
C22   C     C_R   0.944039 0.049753 0.516978 0.061717
C23   C     C_R   0.847774 0.110814 0.475468 -0.016633
C24   C     C_R   0.871940 0.955738 0.511469 0.074298
C25   C     C_R   0.707139 0.926333 0.465305 -0.018651
C26   C     C_R   0.622121 0.987363 0.424076 -0.089261
C27   C     C_R   0.691832 0.075914 0.427143 0.067949
C28   C     C_R   0.955221 0.888634 0.548929 -0.178689
C29   C     C_R   0.731959 0.773936 0.488562 -0.456371
C30   C     C_R   0.910218 0.205297 0.482626 0.179238
H24   H     H_    0.067791 0.901529 0.593966 0.169962
H25   H     H_    0.619666 0.117358 0.391282 0.164245
C31   C     C_R   0.239047 0.458879 0.763657 -0.451232
C32   C     C_R   0.140292 0.428934 0.820852 0.164646
C33   C     C_R   0.205207 0.435056 0.911918 -0.292902
C34   C     C_R   0.371931 0.469352 0.948246 0.143936
C35   C     C_R   0.461041 0.508484 0.888047 -0.287960
C36   C     C_R   0.397651 0.500544 0.796243 0.314655
C37   C     C_R   0.614890 0.510909 0.082444 -0.201476
C38   C     C_R   0.674607 0.534497 0.175737 -0.001453
C39   C     C_R   0.416189 0.467691 0.205718 0.111701
C40   C     C_R   0.354069 0.445111 0.112547 -0.281527
C41   C     C_R   0.446927 0.475070 0.048616 0.034462
C42   C     C_R   0.579199 0.504452 0.235306 0.276057
H26   H     H_    0.117564 0.418092 0.952092 0.151754
H27   H     H_    0.574256 0.552513 0.911634 0.164201
H28   H     H_    0.185739 0.460394 0.695472 0.226951
O25   O     O_3   0.728623 0.188358 0.123613 -0.552095
H29   H     H_    0.661502 0.155273 0.066536 0.354204
O26   O     O_3   0.176874 0.611865 0.690565 -0.779079
H30   H     H_    0.259478 0.658535 0.678940 0.399352
O27   O     O_3   0.265673 0.764618 0.846290 -0.662118
H31   H     H_    0.306178 0.780971 0.911720 0.329123
O28   O     O_3   0.297599 0.288499 0.413239 -0.678405
H32   H     H_    0.184366 0.300712 0.407898 0.334739
C43   C     C_2   0.156255 0.707093 0.069848 0.946112
O29   O     O_2   0.021766 0.721300 0.037211 -0.541153
O30   O     O_R   0.204692 0.624496 0.045333 -0.797399
H33   H     H_    0.121058 0.583810 0.997168 0.349195
C44   C     C_2   0.096207 0.127059 0.297380 1.121465
O31   O     O_2   0.993389 0.158137 0.250823 -0.432027
O32   O     O_R   0.047377 0.057821 0.342485 -0.823060
H34   H     H_    0.140954 0.031105 0.373060 0.308133
C45   C     C_2   0.317502 0.121885 0.213228 1.030315
O33   O     O_2   0.245133 0.137015 0.142322 -0.601288
O34   O     O_R   0.440154 0.068541 0.213606 -0.727823
H35   H     H_    0.461228 0.048917 0.151202 0.384771
C46   C     C_2   0.424145 0.800279 0.096931 0.901610
O35   O     O_2   0.507889 0.742384 0.081075 -0.648353
O36   O     O_R   0.462711 0.885091 0.073957 -0.757118
H36   H     H_    0.555686 0.888998 0.039909 0.334280
O37   O     O_3   0.788022 0.700999 0.802932 -0.796683
H37   H     H_    0.780473 0.671026 0.856216 0.327952
C47   C     C_2   0.653386 0.792137 0.709213 1.027701
O38   O     O_2   0.776264 0.841065 0.703021 -0.627141
O39   O     O_R   0.509043 0.788988 0.648863 -0.760271
H38   H     H_    0.517969 0.835351 0.607905 0.310048
O40   O     O_3   0.800256 0.874942 0.890324 -0.672929
H39   H     H_    0.886723 0.843829 0.918297 0.390147
O41   O     O_3   0.200579 0.856792 0.150910 -0.667269
H40   H     H_    0.174994 0.879214 0.093037 0.372744
C48   C     C_2   0.752551 0.086674 0.744858 1.061536
O42   O     O_2   0.719548 0.088175 0.664392 -0.606750
O43   O     O_R   0.638534 0.043198 0.787777 -0.752074
H41   H     H_    0.537946 0.011183 0.744449 0.372592
O44   O     O_3   0.032926 0.074683 0.764682 -0.674162
H42   H     H_    0.996970 0.010800 0.768557 0.387729
C49   C     C_2   0.929883 0.123485 0.895962 1.075743
O45   O     O_2   0.853857 0.170368 0.939379 -0.633066
O46   O     O_R   0.023213 0.066399 0.937928 -0.707121
H43   H     H_    0.013017 0.067690 0.003098 0.365308
O47   O     O_3   0.359932 0.154835 0.867802 -0.602043
H44   H     H_    0.383962 0.140328 0.929364 0.367440
C50   C     C_2   0.668742 0.681934 0.467258 1.162877
O48   O     O_2   0.667309 0.644726 0.392298 -0.623577
O49   O     O_R   0.589371 0.641035 0.526454 -0.719015
H45   H     H_    0.518608 0.584597 0.493177 0.396011
O50   O     O_3   0.110280 0.326744 0.559377 -0.667965
H46   H     H_    0.165616 0.334560 0.622114 0.295540
C51   C     C_2   0.233937 0.031890 0.587620 1.089467
O51   O     O_2   0.264470 0.025815 0.667152 -0.556209
O52   O     O_R   0.325548 0.995194 0.528318 -0.789439
H47   H     H_    0.416188 0.967007 0.559936 0.330266
C52   C     C_2   0.736786 0.490385 0.027285 1.051988
O53   O     O_2   0.833581 0.550392 0.011965 -0.588210
O54   O     O_R   0.741438 0.400984 0.994101 -0.810608
H48   H     H_    0.839169 0.393069 0.965256 0.367618
C53   C     C_2   0.221975 0.368034 0.084731 1.081861
O55   O     O_2   0.086818 0.373301 0.101835 -0.537985
O56   O     O_R   0.252624 0.289325 0.036944 -0.823876
H49   H     H_    0.153935 0.241136 0.021497 0.371686
O57   O     O_3   0.649211 0.494865 0.320522 -0.660280
H50   H     H_    0.763050 0.485825 0.322336 0.363841
C54   C     C_2   0.835746 0.908668 0.188879 1.252597
O58   O     O_2   0.759585 0.970854 0.200860 -0.563215
O59   O     O_R   0.870130 0.881234 0.104339 -0.736125
H51   H     H_    0.837852 0.923025 0.060863 0.327773
O60   O     O_3   0.871245 0.355753 0.239597 -0.629423
H52   H     H_    0.843882 0.399092 0.198982 0.297541

loop_
_geom_bond_atom_site_label_1
_geom_bond_atom_site_label_2
_geom_bond_distance
_ccdc_geom_bond_type
P2    Ba1   3.436971 S    
O14   Ba2   2.859647 S    
C20   C21   1.402411 A    
C54   O58   1.222879 D    
C34   C35   1.424953 A    
P7    C36   1.847890 S    
C48   O43   1.398949 S    
O57   H50   0.985396 S    
O25   H29   0.992477 S    
O54   H48   1.010395 S    
C12   O40   1.404330 S    
H23   C26   1.079654 S    
C23   C27   1.400127 A    
C49   O45   1.222278 D    
O47   H44   0.992449 S    
O34   H35   1.012864 S    
O59   H51   1.012269 S    
P7    O21   1.568825 D    
C54   O59   1.393549 S    
C53   O55   1.222079 D    
C13   C14   1.548052 S    
C11   O37   1.393176 S    
P8    O24   1.749229 S    
C6    H8    1.104257 S    
C24   C25   1.439026 A    
C5    H7    1.110830 S    
P5    C32   1.857669 S    
C23   C30   1.451283 A    
P2    O10   1.772779 S    
C44   O32   1.392442 S    
O52   H47   1.013183 S    
C7    H9    1.109248 S    
C8    C9    1.549049 S    
P3    O9    1.548144 D    
C4    O15   1.394208 S    
C6    O26   1.381232 S    
O30   H33   1.010295 S    
C2    C3    1.524720 S    
C37   C52   1.471647 S    
C13   H18   1.110686 S    
P1    O1    1.549357 D    
P5    O19   1.758740 S    
O2    Ba2   2.892084 S    
P2    C39   1.861720 S    
C18   C29   1.376987 A    
C52   O54   1.396290 S    
C1    O41   1.410410 S    
C18   C28   1.398422 A    
C51   O51   1.221976 D    
O5    C6    1.404484 S    
O46   H43   1.013332 S    
Ba1   O13   2.891420 S    
O11   C2    1.413286 S    
C50   O48   1.206900 D    
C42   O57   1.377512 S    
C16   H21   1.110527 S    
C8    O28   1.400713 S    
P4    Ba2   3.435497 S    
C14   C49   1.518883 S    
O17   Ba2   2.815082 S    
C33   H26   1.065302 S    
P1    Ba1   3.435011 S    
C50   O49   1.379281 S    
C29   C50   1.408437 S    
C51   O52   1.392479 S    
C16   O47   1.399667 S    
P5    O17   1.750705 S    
P2    O20   1.595448 S    
P2    O7    1.537088 D    
C49   O46   1.398887 S    
Ba1   O20   2.953795 S    
C4    O60   1.386832 S    
C12   H15   1.110287 S    
C8    H11   1.089727 S    
O4    P6    1.547282 D    
O7    Ba1   2.881147 S    
P1    O5    1.756192 S    
P1    C18   1.907411 S    
P8    O23   1.545449 D    
O40   H39   0.992560 S    
C1    C10   1.544682 S    
C5    H6    1.098027 S    
O6    C10   1.400025 S    
O32   H34   1.012322 S    
O56   H49   1.010177 S    
C22   C24   1.468431 A    
C21   C22   1.437711 A    
Ba2   O20   2.846715 S    
C7    O27   1.398646 S    
C12   H14   1.113626 S    
C1    C46   1.516497 S    
C13   H17   1.112974 S    
P1    O2    1.614827 S    
C9    H12   1.110312 S    
C15   C16   1.520710 S    
P4    O12   1.549579 D    
Ba2   O21   2.881397 S    
P3    O11   1.757386 S    
C21   C51   1.468754 S    
C26   C27   1.392464 A    
C19   C30   1.395680 A    
C9    C45   1.500514 S    
O26   H30   0.985245 S    
C15   O24   1.405825 S    
C37   C38   1.415709 A    
C2    H2    1.102672 S    
O12   Ba2   2.892326 S    
C19   C20   1.407220 A    
C3    H16   1.107331 S    
C34   C41   1.550608 S    
C31   H28   1.072424 S    
C45   O33   1.222619 D    
O1    Ba1   2.891781 S    
C11   O22   1.413860 S    
C35   H27   1.072837 S    
C25   C26   1.401885 A    
C46   O35   1.223809 D    
C10   H13   1.113874 S    
C4    C5    1.533672 S    
C9    C44   1.503139 S    
C27   H25   1.075899 S    
C47   O38   1.221866 D    
C17   C25   1.432646 A    
C32   C33   1.398989 A    
O3    Ba1   2.860321 S    
C11   C12   1.544166 S    
O13   Ba2   2.958433 S    
C43   O29   1.223026 D    
O3    P6    1.794132 S    
C28   H24   1.058316 S    
Ba1   Ba2   4.686435 S    
O28   H32   0.990426 S    
O19   C13   1.410205 S    
C11   C47   1.501685 S    
C14   C48   1.516088 S    
P6    C17   1.904979 S    
P4    C30   1.940139 S    
C47   O39   1.396259 S    
C31   C36   1.386804 A    
C48   O42   1.222457 D    
C39   C42   1.394054 A    
O41   H40   0.994058 S    
C19   O50   1.364616 S    
O14   P8    1.726688 S    
C40   C41   1.435345 A    
P3    C38   1.876945 S    
C1    C43   1.509987 S    
O6    P6    1.753973 S    
O2    Ba1   2.957502 S    
O44   H42   0.994511 S    
O37   H37   0.994616 S    
P4    O13   1.614847 S    
O60   H52   0.990547 S    
C52   O53   1.219404 D    
O43   H41   1.010804 S    
C7    H10   1.102976 S    
P3    O8    1.758636 S    
C31   C32   1.385082 A    
O39   H38   1.010209 S    
C15   H20   1.111334 S    
C37   C41   1.436301 A    
C6    C7    1.533280 S    
C33   C34   1.428824 A    
C2    H3    1.107856 S    
P7    O22   1.779298 S    
C15   H19   1.109644 S    
P4    O15   1.771635 S    
C35   C36   1.403661 A    
C38   C42   1.395664 A    
C17   C29   1.397298 A    
C45   O34   1.397250 S    
P5    O18   1.545337 D    
C22   C23   1.456234 A    
Ba1   O16   2.847427 S    
O16   P7    1.792743 S    
C3    C54   1.496499 S    
C3    H4    1.109389 S    
C53   O56   1.395006 S    
C39   C40   1.416409 A    
O27   H31   0.990897 S    
O50   H46   0.981992 S    
C46   O36   1.397526 S    
P8    C20   1.878137 S    
C14   O44   1.407015 S    
C4    H5    1.088906 S    
O8    Ba1   2.814472 S    
C16   H22   1.107661 S    
C5    O25   1.400381 S    
C43   O30   1.396038 S    
O49   H45   1.002940 S    
C44   O31   1.218267 D    
O16   Ba2   2.952999 S    
H1    C10   1.107935 S    
O10   C8    1.401862 S    
C24   C28   1.444002 A    
O36   H36   1.010661 S    
C40   C53   1.475373 S    
