data_mof_unit_18942.cif
_audit_creation_date              2012-12-11T15:18:38-0500
_audit_creation_method            fapswitch 2.2
_symmetry_space_group_name_H-M    P1
_symmetry_Int_Tables_number       1
_space_group_crystal_system       triclinic
_cell_length_a                    6.92279
_cell_length_b                    19.885637
_cell_length_c                    23.807488
_cell_angle_alpha                 93.125018
_cell_angle_beta                  91.526761
_cell_angle_gamma                 87.895651
_cell_volume                      3269.3580985

loop_
_atom_site_label
_atom_site_type_symbol
_atom_type_description
_atom_site_fract_x
_atom_site_fract_y
_atom_site_fract_z
_atom_type_partial_charge
O1    O     O_R   0.620100 0.812200 0.810870 -0.543701
O2    O     O_R   0.379900 0.187800 0.189130 -0.539405
O3    O     O_R   0.296960 0.671650 0.794750 -0.528481
O4    O     O_R   0.703040 0.328350 0.205250 -0.531756
O5    O     O_R   0.120160 0.687800 0.689130 -0.529370
O6    O     O_R   0.879840 0.312200 0.310870 -0.532358
C1    C     C_R   0.469844 0.646730 0.804502 0.742288
C2    C     C_R   0.530160 0.353260 0.195482 0.728512
O7    O     O_R   0.290810 0.810670 0.817290 -0.506828
O8    O     O_R   0.709190 0.189330 0.182710 -0.508343
O9    O     O_R   0.113980 0.827820 0.711840 -0.530339
O10   O     O_R   0.886020 0.172180 0.288160 -0.508891
C3    C     C_R   0.458056 0.833198 0.833315 0.750596
C4    C     C_R   0.541690 0.167230 0.166268 0.801069
O11   O     O_R   0.626290 0.672180 0.788160 -0.546684
O12   O     O_R   0.373710 0.327820 0.211840 -0.550807
O13   O     O_3   0.451520 0.755460 0.715370 -0.382392
O14   O     O_3   0.548480 0.244540 0.284630 -0.364770
V1    V     V_3+5 0.179200 0.748980 0.756420 1.594492
V2    V     V_3+5 0.820800 0.251020 0.243580 1.622346
O15   O     O_R   0.783880 0.828350 0.705250 -0.548884
O16   O     O_R   0.216120 0.171650 0.294750 -0.521691
C5    C     C_R   0.948079 0.853484 0.695230 0.900315
C6    C     C_R   0.052839 0.146092 0.304786 0.858445
O17   O     O_R   0.790030 0.689320 0.682700 -0.540508
O18   O     O_R   0.209970 0.310680 0.317300 -0.541670
C7    C     C_R   0.958877 0.667234 0.666457 0.849644
C8    C     C_R   0.041159 0.333028 0.333377 0.806452
V3    V     V_3+5 0.678400 0.751010 0.743570 1.526632
V4    V     V_3+5 0.321600 0.248990 0.256430 1.589039
O19   O     O_3   0.955950 0.744540 0.784620 -0.367190
O20   O     O_3   0.044050 0.255460 0.215380 -0.373514
C9    C     C_R   0.902568 0.441144 0.379316 0.278780
C10   C     C_R   0.098810 0.559990 0.619857 0.269263
C11   C     C_R   0.032796 0.384649 0.381154 -0.247961
C12   C     C_R   0.967860 0.616256 0.618280 -0.267145
C13   C     C_R   0.160959 0.378435 0.427727 0.354669
C14   C     C_R   0.842315 0.623489 0.571219 0.394360
C15   C     C_R   0.141658 0.422990 0.475560 -0.022198
C16   C     C_R   0.862904 0.579300 0.523130 -0.042909
C17   C     C_R   0.009423 0.478673 0.474983 -0.067650
C18   C     C_R   0.996563 0.523956 0.523481 -0.087239
C19   C     C_R   0.890777 0.489126 0.426134 -0.051260
C20   C     C_R   0.116215 0.513655 0.572166 -0.062547
C21   C     C_R   0.254114 0.412137 0.524104 -0.258385
C22   C     C_R   0.752222 0.590563 0.474302 -0.232604
C23   C     C_R   0.250167 0.457661 0.570892 0.508675
C24   C     C_R   0.765957 0.547540 0.426078 0.470652
H1    H     H_    0.348868 0.367749 0.526227 0.176361
H2    H     H_    0.652508 0.633676 0.472796 0.186020
C25   C     C_R   0.941942 0.916147 0.663693 -0.333248
C26   C     C_R   0.072817 0.083518 0.337258 -0.287467
C27   C     C_R   0.859011 0.036241 0.661084 0.332135
C28   C     C_R   0.295952 0.989697 0.358767 0.372659
C29   C     C_R   0.868109 0.976387 0.690050 0.348635
C30   C     C_R   0.221827 0.036500 0.321200 0.362995
C31   C     C_R   0.991550 0.914932 0.606431 0.323501
C32   C     C_R   0.984608 0.078023 0.389769 0.366433
C33   C     C_R   0.994216 0.976195 0.577514 -0.046069
C34   C     C_R   0.070027 0.034401 0.430670 -0.027406
C35   C     C_R   0.914249 0.035822 0.604338 -0.166864
C36   C     C_R   0.219790 0.987749 0.412928 -0.138781
C37   C     C_R   0.072769 0.980563 0.522687 -0.041952
C38   C     C_R   0.018272 0.036162 0.489066 -0.052361
C39   C     C_R   0.946758 0.095704 0.518117 0.498472
C40   C     C_R   0.230108 0.938258 0.504547 0.523679
C41   C     C_R   0.894650 0.094638 0.574338 -0.173409
C42   C     C_R   0.298258 0.941435 0.450427 -0.146967
H3    H     H_    0.840627 0.141533 0.594243 0.207853
H4    H     H_    0.417863 0.907403 0.438930 0.210345
C43   C     C_R   0.494510 0.585034 0.835862 -0.068437
C44   C     C_R   0.505563 0.414958 0.164120 -0.060858
C45   C     C_R   0.611433 0.469313 0.838979 -0.080216
C46   C     C_R   0.389089 0.530731 0.161024 -0.103918
C47   C     C_R   0.579307 0.527342 0.809470 -0.110727
C48   C     C_R   0.420950 0.472680 0.190515 -0.120889
C49   C     C_R   0.453134 0.585384 0.893267 -0.114753
C50   C     C_R   0.547033 0.414611 0.106722 -0.117772
C51   C     C_R   0.508709 0.529826 0.925980 0.071678
C52   C     C_R   0.491634 0.470190 0.074014 0.071576
C53   C     C_R   0.572242 0.469327 0.896728 -0.038082
C54   C     C_R   0.428248 0.530705 0.103272 -0.029953
C55   C     C_R   0.494651 0.531186 0.986064 -0.136356
C56   C     C_R   0.505734 0.468833 0.013930 -0.138053
C57   C     C_R   0.527218 0.407730 0.980350 0.305637
C58   C     C_R   0.473223 0.592292 0.019642 0.306228
C59   C     C_R   0.584797 0.408786 0.924429 0.374729
C60   C     C_R   0.415772 0.591246 0.075573 0.375393
H5    H     H_    0.624957 0.371034 0.088769 0.163861
H6    H     H_    0.375146 0.628944 0.911225 0.165388
H7    H     H_    0.385037 0.473412 0.234580 0.157227
H8    H     H_    0.615164 0.526616 0.765397 0.151051
H9    H     H_    0.666499 0.424298 0.816234 0.176105
H10   H     H_    0.334219 0.575765 0.183783 0.163881
C61   C     C_R   0.687161 0.069727 0.105510 0.401729
C62   C     C_R   0.314992 0.932829 0.892046 0.377128
C63   C     C_R   0.534164 0.117427 0.117019 -0.167289
C64   C     C_R   0.465254 0.883573 0.881995 -0.178260
C65   C     C_R   0.370033 0.117765 0.081103 -0.145478
C66   C     C_R   0.627632 0.882567 0.918462 -0.120449
C67   C     C_R   0.355338 0.072447 0.033770 0.041834
C68   C     C_R   0.643263 0.928517 0.965228 0.046619
C69   C     C_R   0.506520 0.023996 0.022943 -0.023014
C70   C     C_R   0.492521 0.977238 0.975769 -0.016808
C71   C     C_R   0.672276 0.022394 0.059016 0.024048
C72   C     C_R   0.328099 0.979451 0.939155 0.023779
C73   C     C_R   0.193110 0.074581 0.996738 0.383012
C74   C     C_R   0.806279 0.926756 0.001927 0.376253
C75   C     C_R   0.180552 0.028602 0.950432 -0.135034
C76   C     C_R   0.820022 0.973317 0.047711 -0.154344
H11   H     H_    0.254661 0.154682 0.090027 0.212556
H12   H     H_    0.741506 0.844867 0.910186 0.209099
H13   H     H_    0.052614 0.031995 0.923536 0.218355
H14   H     H_    0.948685 0.970169 0.074327 0.202297
Cl1   Cl    Cl    0.767496 0.452134 0.315764 -0.676613
Cl2   Cl    Cl    0.224371 0.546211 0.684517 -0.649378
O21   O     O_3   0.624575 0.348683 0.894167 -0.527304
C77   C     C_3   0.818481 0.328658 0.905731 -0.033576
H15   H     H_    0.842397 0.318244 0.950903 0.176684
H16   H     H_    0.919838 0.367128 0.893278 0.102648
H17   H     H_    0.852550 0.281273 0.880630 0.202074
O22   O     O_3   0.376089 0.651356 0.105835 -0.533690
C78   C     C_3   0.182071 0.671328 0.094376 -0.075822
H18   H     H_    0.080894 0.632853 0.106927 0.106531
H19   H     H_    0.157801 0.681685 0.049204 0.185916
H20   H     H_    0.148093 0.718732 0.119460 0.184213
Cl3   Cl    Cl    0.444228 0.329683 0.001004 -0.599979
Cl4   Cl    Cl    0.556083 0.670341 0.998953 -0.606631
Cl5   Cl    Cl    0.896312 0.068072 0.149800 -0.701947
Cl6   Cl    Cl    0.115427 0.938654 0.844084 -0.613349
Cl7   Cl    Cl    0.001959 0.135123 0.005592 -0.601337
Cl8   Cl    Cl    0.998229 0.866533 0.992899 -0.623225
O23   O     O_3   0.298374 0.325892 0.427575 -0.569434
C79   C     C_3   0.478516 0.350646 0.413195 -0.128756
H21   H     H_    0.537312 0.385591 0.446885 0.109208
H22   H     H_    0.469070 0.376428 0.372846 0.173741
H23   H     H_    0.583584 0.307444 0.407781 0.176969
O24   O     O_3   0.709406 0.677417 0.570782 -0.530474
C80   C     C_3   0.526148 0.654993 0.584910 -0.113695
H24   H     H_    0.463389 0.621631 0.550764 0.101662
H25   H     H_    0.426116 0.699531 0.590896 0.190981
H26   H     H_    0.531651 0.628369 0.624874 0.142680
O25   O     O_3   0.372289 0.444450 0.616219 -0.508094
C81   C     C_3   0.564383 0.456816 0.602233 -0.117285
H27   H     H_    0.576356 0.506992 0.584422 0.094361
H28   H     H_    0.623128 0.416628 0.572488 0.114943
H29   H     H_    0.656017 0.456627 0.641171 0.181096
O26   O     O_3   0.644819 0.561194 0.380704 -0.527925
C82   C     C_3   0.717104 0.615548 0.352849 -0.088231
H30   H     H_    0.870824 0.605890 0.341159 0.144761
H31   H     H_    0.701258 0.663616 0.378684 0.125078
H32   H     H_    0.631327 0.621511 0.313292 0.173910
Cl9   Cl    Cl    0.749948 0.115202 0.397569 -0.576997
Cl10  Cl    Cl    0.999397 0.835193 0.569112 -0.586945
O27   O     O_3   0.307298 0.040525 0.269587 -0.526800
C83   C     C_3   0.228809 0.991406 0.231398 -0.070924
H33   H     H_    0.291162 0.940456 0.239153 0.174933
H34   H     H_    0.267614 0.003128 0.188170 0.179049
H35   H     H_    0.068266 0.990661 0.233014 0.163387
O28   O     O_3   0.811990 0.977105 0.745484 -0.501206
C84   C     C_3   0.608639 0.973411 0.746670 -0.026764
H36   H     H_    0.555668 0.928015 0.722561 0.078246
H37   H     H_    0.534280 0.019104 0.730469 0.165670
H38   H     H_    0.566285 0.970184 0.790985 0.159725
Cl11  Cl    Cl    0.787406 0.112168 0.698401 -0.570193
Cl12  Cl    Cl    0.501536 0.939128 0.338582 -0.596714
O29   O     O_3   0.949005 0.157819 0.494789 -0.531882
C85   C     C_3   0.133071 0.184851 0.504842 -0.182035
H39   H     H_    0.247494 0.153400 0.483024 0.150857
H40   H     H_    0.168409 0.190996 0.550691 0.143440
H41   H     H_    0.131750 0.235589 0.487743 0.202835
O30   O     O_3   0.334405 0.898352 0.541258 -0.514763
C86   C     C_3   0.476731 0.937462 0.569446 -0.173178
H42   H     H_    0.411277 0.981231 0.594183 0.110843
H43   H     H_    0.582273 0.954929 0.539430 0.149438
H44   H     H_    0.557320 0.905573 0.599557 0.177171

loop_
_geom_bond_atom_site_label_1
_geom_bond_atom_site_label_2
_ccdc_geom_bond_type
C67   C73   A    
C40   C42   A    
C71   C76   A    
C6    C26   S    
O13   V3    S    
C17   C18   A    
C46   H10   S    
C45   H9    S    
C52   C56   A    
V1    O19   S    
C79   H23   S    
C70   C72   A    
C84   H36   S    
C78   H18   S    
C15   C17   A    
C86   H42   S    
C16   C22   A    
O9    V1    S    
C46   C48   A    
C40   O30   S    
C83   H33   S    
C14   C16   A    
C46   C54   A    
C59   O21   S    
O3    C1    A    
C82   H31   S    
C1    C43   S    
C80   H26   S    
C58   C60   A    
C31   C33   A    
C32   C34   A    
O25   C81   S    
C23   O25   S    
C34   C36   A    
O10   C6    A    
C21   C23   A    
O9    C5    A    
C3    C64   S    
O7    C3    A    
C77   H15   S    
C44   C50   A    
C61   C71   A    
C63   C65   A    
O5    C7    A    
C27   C35   A    
O7    V1    S    
C85   H41   S    
O6    C8    A    
C8    C11   S    
O8    V2    S    
C39   C41   A    
C62   C64   A    
O3    V1    S    
C25   C31   A    
C19   C24   A    
C76   H14   S    
C10   C12   A    
C20   C23   A    
C75   H13   S    
C15   C21   A    
C27   C29   A    
C37   C40   A    
C67   C69   A    
C43   C47   A    
C17   C19   A    
C81   H29   S    
C18   C20   A    
C28   Cl12  S    
C30   O27   S    
C45   C53   A    
C84   H37   S    
C22   H2    S    
O11   V3    S    
O27   C83   S    
C28   C30   A    
C86   H43   S    
C50   H5    S    
O17   V3    S    
C13   C15   A    
C22   C24   A    
C49   H6    S    
C33   C35   A    
C2    C44   S    
C57   C59   A    
C58   Cl4   S    
C9    C19   A    
C10   C20   A    
O26   C82   S    
C73   Cl7   S    
O8    C4    A    
C82   H32   S    
O29   C85   S    
C51   C53   A    
C81   H27   S    
C78   H20   S    
C79   H22   S    
C1    O11   A    
C28   C36   A    
C25   C29   A    
O15   V3    S    
C34   C38   A    
C41   H3    S    
C77   H17   S    
O4    V2    S    
C68   C70   A    
C32   Cl9   S    
C35   C41   A    
C5    C25   S    
C55   C56   A    
C21   H1    S    
C65   H11   S    
O10   V2    S    
O1    V3    S    
C14   O24   S    
C49   C51   A    
C44   C48   A    
C69   C71   A    
C56   C57   A    
C68   C74   A    
C50   C52   A    
C53   C59   A    
C26   C32   A    
C47   H8    S    
O14   V4    S    
C81   H28   S    
C85   H39   S    
C65   C67   A    
C66   H12   S    
C64   C66   A    
O15   C5    A    
O23   C79   S    
O16   C6    A    
C57   Cl3   S    
O1    C3    A    
C45   C47   A    
O13   V1    S    
C12   C14   A    
C43   C49   A    
C84   H38   S    
O30   C86   S    
C4    C63   S    
C62   Cl6   S    
C66   C68   A    
V2    O20   S    
C86   H44   S    
C27   Cl11  S    
C62   C72   A    
C29   O28   S    
C10   Cl2   S    
O16   V4    S    
C60   O22   S    
C11   C13   A    
O18   C8    A    
C83   H35   S    
C16   C18   A    
C80   H24   S    
C61   C63   A    
O18   V4    S    
C79   H21   S    
O5    V1    S    
C7    C12   S    
O17   C7    A    
O6    V2    S    
C31   Cl10  S    
C39   O29   S    
C33   C37   A    
C36   C42   A    
O2    V4    S    
O28   C84   S    
C83   H34   S    
V3    O19   S    
C82   H30   S    
C38   C39   A    
V4    O20   S    
C80   H25   S    
C73   C75   A    
C9    Cl1   S    
C54   C60   A    
C24   O26   S    
C85   H40   S    
C9    C11   A    
C52   C54   A    
C74   C76   A    
O14   V2    S    
O2    C4    A    
C13   O23   S    
C77   H16   S    
C74   Cl8   S    
C78   H19   S    
O24   C80   S    
C48   H7    S    
C37   C38   A    
C51   C55   A    
C55   C58   A    
C2    O12   A    
C69   C70   A    
C61   Cl5   S    
C42   H4    S    
O4    C2    A    
O22   C78   S    
O21   C77   S    
O12   V4    S    
C26   C30   A    
C72   C75   A    
