data_mof_unit_59098.cif
_audit_creation_date              2012-12-10T20:36:38-0500
_audit_creation_method            fapswitch 2.2
_symmetry_space_group_name_H-M    P1
_symmetry_Int_Tables_number       1
_space_group_crystal_system       triclinic
_cell_length_a                    10.50818
_cell_length_b                    10.677008
_cell_length_c                    9.870419
_cell_angle_alpha                 89.937594
_cell_angle_beta                  90.614443
_cell_angle_gamma                 90.034556
_cell_volume                      1107.35622992

loop_
_atom_site_label
_atom_site_type_symbol
_atom_type_description
_atom_site_fract_x
_atom_site_fract_y
_atom_site_fract_z
_atom_type_partial_charge
C1    C     C_R   0.496199 0.259993 0.500110 0.872334
C2    C     C_3   0.958090 0.602189 0.441591 0.131925
C3    C     C_3   0.038801 0.503934 0.369807 -0.187290
C4    C     C_3   0.122593 0.500857 0.498011 0.007555
C5    C     C_R   0.482286 0.063749 0.623379 0.124163
C6    C     C_R   0.476601 0.128570 0.501030 -0.129259
C7    C     C_R   0.447101 0.064926 0.380447 -0.227561
C8    C     C_R   0.447179 0.935359 0.380303 -0.236015
C9    C     C_R   0.476867 0.871398 0.500695 -0.091678
C10   C     C_R   0.483050 0.935856 0.623026 0.095543
C11   C     C_3   0.579255 0.927480 0.735525 -0.545693
C12   C     C_R   0.257391 0.500328 0.499266 0.866104
C13   C     C_3   0.579086 0.069996 0.735848 -0.083930
C14   C     C_R   0.440125 0.406615 0.070579 0.216666
C15   C     C_R   0.569138 0.585213 0.072669 -0.140394
C16   C     C_R   0.569283 0.585108 0.928694 -0.149664
C17   C     C_R   0.439853 0.406888 0.928149 0.270672
C18   C     C_3   0.301853 0.375085 0.920740 -0.517455
C19   C     C_3   0.302106 0.374697 0.074624 -0.530369
C20   C     C_R   0.496348 0.740000 0.499917 0.887276
C21   C     C_R   0.742580 0.499978 0.500816 0.879528
C22   C     C_3   0.043858 0.395411 0.560666 -0.174500
C23   C     C_3   0.957064 0.398701 0.433037 -0.201870
C24   C     C_3   0.877412 0.499532 0.502559 0.017234
C25   C     C_3   0.961865 0.496475 0.630197 -0.172602
C26   C     C_3   0.043647 0.602152 0.567930 -0.187568
H1    H     H_    0.917460 0.315864 0.379290 0.139454
H2    H     H_    0.671108 0.886809 0.702044 0.192334
H3    H     H_    0.670712 0.113602 0.705546 0.161431
H4    H     H_    0.622980 0.655532 0.127481 0.145172
H5    H     H_    0.623442 0.655157 0.874951 0.146764
H6    H     H_    0.243245 0.451606 0.875911 0.218993
H7    H     H_    0.284990 0.280989 0.875952 0.202011
H8    H     H_    0.243949 0.451164 0.118304 0.215009
H9    H     H_    0.285323 0.280386 0.118805 0.197094
H10   H     H_    0.084417 0.310392 0.609499 0.133219
H11   H     H_    0.926880 0.492741 0.735872 0.147102
H12   H     H_    0.082897 0.685759 0.620566 0.131923
H13   H     H_    0.072047 0.509659 0.263741 0.134464
H14   H     H_    0.432524 0.114190 0.285518 0.166610
H15   H     H_    0.432605 0.886368 0.285330 0.167643
H16   H     H_    0.539091 0.883815 0.828044 0.200715
N1    N     N_R   0.499140 0.499140 0.142800 -0.107757
N2    N     N_R   0.499140 0.499180 0.857150 -0.109396
O1    O     O_R   0.500020 0.316790 0.614690 -0.603216
O2    O     O_R   0.500000 0.316760 0.385350 -0.622629
O3    O     O_R   0.313960 0.499990 0.614650 -0.625625
O4    O     O_R   0.313940 0.499950 0.385310 -0.627744
O5    O     O_R   0.500000 0.683240 0.614650 -0.618131
O6    O     O_R   0.499980 0.683210 0.385310 -0.628116
O7    O     O_R   0.686060 0.500050 0.614690 -0.627688
O8    O     O_R   0.686040 0.500010 0.385350 -0.621850
Zn1   Zn    Zn3+2 0.500010 0.500020 0.653130 0.945926
Zn2   Zn    Zn3+2 0.499990 0.499980 0.346870 0.935871
N3    N     N_3   0.526633 0.124295 0.859412 -0.439146
H17   H     H_    0.591220 0.107213 0.938575 0.184627
H18   H     H_    0.441216 0.079833 0.884449 0.187014
N4    N     N_3   0.906506 0.714786 0.378282 -0.475836
H19   H     H_    0.983671 0.768489 0.346071 0.175905
H20   H     H_    0.856735 0.687167 0.291079 0.184700

loop_
_geom_bond_atom_site_label_1
_geom_bond_atom_site_label_2
_ccdc_geom_bond_type
C8    C9    A    
C4    C26   S    
C23   C24   S    
C2    N4    S    
C6    C7    A    
C23   H1    S    
C4    C12   S    
C4    C22   S    
C9    C10   A    
C16   N2    A    
N1    Zn2   S    
C5    C13   S    
O3    Zn1   S    
C12   O4    A    
C25   H11   S    
O2    Zn2   S    
N3    H17   S    
C17   C18   S    
C25   C26   S    
C17   N2    A    
C15   N1    A    
C7    C8    A    
C2    C26   S    
C19   H9    S    
C24   C25   S    
C16   H5    S    
O4    Zn2   S    
C11   C13   S    
C14   C17   A    
C1    O1    A    
C20   O5    A    
C11   H2    S    
C11   H16   S    
C12   O3    A    
O5    Zn1   S    
N2    Zn1   S    
C13   H3    S    
O8    Zn2   S    
C2    C3    S    
C19   H8    S    
N3    H18   S    
C2    C24   S    
C5    C6    A    
C18   H7    S    
C1    O2    A    
C21   O7    A    
C18   H6    S    
C10   C11   S    
O7    Zn1   S    
N4    H20   S    
C15   C16   A    
O6    Zn2   S    
C22   H10   S    
C8    H15   S    
C15   H4    S    
C18   C19   S    
C21   C24   S    
C3    H13   S    
C22   C23   S    
C26   H12   S    
C20   O6    A    
C9    C20   S    
C5    C10   A    
N4    H19   S    
C7    H14   S    
C3    C23   S    
C14   C19   S    
O1    Zn1   S    
C21   O8    A    
C3    C4    S    
C1    C6    S    
C14   N1    A    
C13   N3    S    
C22   C25   S    
