data_mof_unit_65349.cif
_audit_creation_date              2013-03-05T16:50:51-0500
_audit_creation_method            fapswitch 2.2
_symmetry_space_group_name_H-M    P1
_symmetry_Int_Tables_number       1
_space_group_crystal_system       triclinic
_cell_length_a                    15.849805
_cell_length_b                    15.100353
_cell_length_c                    11.569292
_cell_angle_alpha                 90.008141
_cell_angle_beta                  89.95803
_cell_angle_gamma                 89.989742
_cell_volume                      2768.96634975

loop_
_atom_site_label
_atom_site_type_symbol
_atom_site_description
_atom_site_fract_x
_atom_site_fract_y
_atom_site_fract_z
_atom_type_partial_charge
O1    O     O_R   0.378020 0.573650 0.500040 -0.606247
O2    O     O_R   0.621980 0.426350 0.499960 -0.606249
O3    O     O_R   0.621980 0.573650 0.499960 -0.595663
O4    O     O_R   0.378020 0.426350 0.500040 -0.595662
C1    C     C_R   0.338894 0.500006 0.500042 0.899571
C2    C     C_R   0.661106 0.499994 0.499958 0.899571
O5    O     O_R   0.500010 0.573670 0.334460 -0.594821
O6    O     O_R   0.499990 0.426330 0.665540 -0.594820
O7    O     O_R   0.499990 0.573670 0.665540 -0.604758
O8    O     O_R   0.500010 0.426330 0.334460 -0.604758
C3    C     C_R   0.500008 0.499995 0.281361 0.898192
C4    C     C_R   0.499992 0.500005 0.718639 0.898193
Zn1   Zn    Zn3+2 0.500000 0.598370 0.500000 1.055916
Zn2   Zn    Zn3+2 0.500000 0.401630 0.500000 1.055916
C5    C     C_R   0.444253 0.952810 0.427402 0.208883
C6    C     C_R   0.555744 0.047190 0.572603 0.208884
C7    C     C_R   0.557488 0.952806 0.570012 0.209419
C8    C     C_R   0.442508 0.047194 0.429994 0.209421
C9    C     C_1   0.500676 0.806992 0.498996 0.330251
C10   C     C_1   0.499323 0.193008 0.501006 0.330248
N1    N     N_1   0.500000 0.270550 0.500000 -0.069967
N2    N     N_1   0.500000 0.729450 0.500000 -0.069968
C11   C     C_1   0.500003 0.499989 0.161151 -0.133294
C12   C     C_1   0.499997 0.500011 0.838849 -0.133293
C13   C     C_1   0.500001 0.499994 0.059199 0.045290
C14   C     C_1   0.499999 0.500006 0.940801 0.045291
H1    H     H_    0.077616 0.642929 0.503433 0.168956
H2    H     H_    0.922384 0.357071 0.496567 0.168956
H3    H     H_    0.922302 0.642911 0.503443 0.171746
H4    H     H_    0.077698 0.357089 0.496557 0.171747
C15   C     C_R   0.956231 0.580596 0.501942 -0.146013
C16   C     C_R   0.043769 0.419404 0.498058 -0.146012
C17   C     C_R   0.043723 0.580606 0.501935 -0.150738
C18   C     C_R   0.956277 0.419394 0.498064 -0.150739
C19   C     C_R   0.913143 0.499990 0.500005 0.142475
C20   C     C_R   0.086857 0.500010 0.499995 0.142474
C21   C     C_1   0.824353 0.499982 0.499992 -0.033168
C22   C     C_1   0.175647 0.500018 0.500008 -0.033167
C23   C     C_1   0.250489 0.500018 0.500025 -0.125967
C24   C     C_1   0.749511 0.499982 0.499975 -0.125967
C25   C     C_R   0.501860 0.905062 0.497234 -0.268425
C26   C     C_R   0.498137 0.094938 0.502770 -0.268426
N3    N     N_R   0.385992 0.094463 0.354896 0.244105
O9    O     O_R   0.382065 0.074712 0.245547 -0.286443
O10   O     O_R   0.338938 0.158042 0.395091 -0.356564
N4    N     N_R   0.614004 0.905536 0.645110 0.244106
O11   O     O_R   0.617928 0.925286 0.754460 -0.286444
O12   O     O_R   0.661059 0.841959 0.604915 -0.356565
N5    N     N_R   0.615101 0.094461 0.643457 0.243654
O13   O     O_R   0.694981 0.074757 0.639592 -0.298085
O14   O     O_R   0.589792 0.158012 0.711090 -0.348305
N6    N     N_R   0.384893 0.905540 0.356552 0.243655
O15   O     O_R   0.305012 0.925242 0.360423 -0.298086
O16   O     O_R   0.410200 0.841989 0.288918 -0.348305

loop_
_geom_bond_atom_site_label_1
_geom_bond_atom_site_label_2
_geom_bond_distance
_ccdc_geom_bond_type
C5    C8    1.425801 A    
C10   C26   1.481159 S    
N3    O9    1.301262 A    
C15   C17   1.386722 A    
C4    C12   1.390741 S    
O3    Zn1   1.968999 S    
O5    Zn1   1.951109 S    
O6    C4    1.270783 A    
O3    C2    1.273339 A    
C10   N1    1.171022 T    
C20   C22   1.407304 S    
H2    C18   1.083850 S    
H3    C15   1.083853 S    
C8    N3    1.438001 S    
H1    C17   1.083851 S    
H4    C16   1.083853 S    
N3    O10   1.301266 A    
C2    C24   1.401201 S    
O2    C2    1.273368 A    
O1    C1    1.273369 A    
C16   C20   1.395981 A    
Zn2   N1    1.979356 S    
C3    C11   1.390741 S    
C19   C21   1.407304 S    
C12   C14   1.179516 T    
Zn1   N2    1.979356 S    
O5    C3    1.270783 A    
C21   C24   1.186228 T    
N4    O12   1.301263 A    
C11   C13   1.179516 T    
O4    Zn2   1.968999 S    
C22   C23   1.186228 T    
O2    Zn2   1.969130 S    
O7    C4    1.270810 A    
C15   C19   1.395981 A    
C7    C25   1.416779 A    
O1    Zn1   1.969130 S    
O8    C3    1.270810 A    
C17   C20   1.395978 A    
C6    C26   1.416778 A    
C6    N5    1.437970 S    
C9    N2    1.171014 T    
C7    N4    1.438003 S    
C5    C25   1.416783 A    
C18   C19   1.395978 A    
O8    Zn2   1.951213 S    
N5    O13   1.301263 A    
C1    C23   1.401201 S    
O7    Zn1   1.951213 S    
N4    O11   1.301266 A    
O4    C1    1.273340 A    
O6    Zn2   1.951109 S    
C8    C26   1.416778 A    
C16   C18   1.386723 A    
C13   C14   1.369771 S    
C5    N6    1.437972 S    
C9    C25   1.481158 S    
N6    O15   1.301266 A    
C6    C7    1.425805 A    
N5    O14   1.301256 A    
N6    O16   1.301255 A    
