data_mof_unit_13988.cif
_audit_creation_date              2012-12-10T16:34:44-0500
_audit_creation_method            fapswitch 2.2
_symmetry_space_group_name_H-M    P1
_symmetry_Int_Tables_number       1
_space_group_crystal_system       triclinic
_cell_length_a                    28.183994
_cell_length_b                    18.457536
_cell_length_c                    17.102057
_cell_angle_alpha                 90.304507
_cell_angle_beta                  60.665472
_cell_angle_gamma                 90.459174
_cell_volume                      7755.57720325

loop_
_atom_site_label
_atom_site_type_symbol
_atom_type_description
_atom_site_fract_x
_atom_site_fract_y
_atom_site_fract_z
_atom_type_partial_charge
C1    C     C_R   0.700777 0.266094 0.676447 0.898597
C2    C     C_R   0.299253 0.733965 0.323544 0.890973
C3    C     C_R   0.299406 0.265642 0.323369 0.903638
C4    C     C_R   0.700762 0.734021 0.676582 0.900015
C5    C     C_R   0.200741 0.766025 0.676459 0.895636
C6    C     C_R   0.799211 0.233883 0.323558 0.893875
C7    C     C_R   0.799316 0.765820 0.323403 0.905564
C8    C     C_R   0.200619 0.234309 0.676625 0.898666
C9    C     C_R   0.901494 0.499501 0.499550 0.067235
C10   C     C_R   0.079370 0.498785 0.564243 0.067656
C11   C     C_R   0.420608 0.001232 0.435826 0.067687
C12   C     C_R   0.598466 0.000513 0.500564 0.067234
C13   C     C_R   0.077183 0.367594 0.562778 -0.229299
C14   C     C_R   0.881466 0.622947 0.555818 -0.231722
C15   C     C_R   0.920333 0.373560 0.453066 -0.224430
C16   C     C_R   0.069824 0.628410 0.590923 -0.232444
C17   C     C_R   0.618478 0.877064 0.444316 -0.232348
C18   C     C_R   0.422805 0.132422 0.437270 -0.230358
C19   C     C_R   0.430151 0.871607 0.409157 -0.231506
C20   C     C_R   0.579648 0.126464 0.547005 -0.225481
C21   C     C_R   0.719330 0.264862 0.956330 0.129641
C22   C     C_R   0.280547 0.735106 0.043892 0.136890
C23   C     C_R   0.280218 0.263973 0.044613 0.132398
C24   C     C_R   0.720133 0.735108 0.955203 0.138985
C25   C     C_R   0.219346 0.764788 0.956276 0.129294
C26   C     C_R   0.780497 0.234943 0.043903 0.136828
C27   C     C_R   0.780337 0.763998 0.044422 0.132925
C28   C     C_R   0.220014 0.235677 0.955128 0.139688
C29   C     C_R   0.747800 0.320450 0.972716 -0.140597
C30   C     C_R   0.252215 0.679419 0.027356 -0.127651
C31   C     C_R   0.252618 0.320059 0.028559 -0.142952
C32   C     C_R   0.747699 0.679145 0.971526 -0.132797
C33   C     C_R   0.247653 0.820481 0.972858 -0.140178
C34   C     C_R   0.752000 0.179360 0.027568 -0.127590
C35   C     C_R   0.752802 0.819961 0.028030 -0.146651
C36   C     C_R   0.247642 0.179594 0.971127 -0.130398
C37   C     C_R   0.778273 0.305622 0.015568 -0.136074
C38   C     C_R   0.221708 0.694131 0.984523 -0.126944
C39   C     C_R   0.222560 0.306008 0.984694 -0.136468
C40   C     C_R   0.777769 0.693499 0.015287 -0.129208
C41   C     C_R   0.278153 0.805771 0.015699 -0.133798
C42   C     C_R   0.721517 0.194191 0.984728 -0.128813
C43   C     C_R   0.722766 0.805617 0.984226 -0.137957
C44   C     C_R   0.277716 0.193651 0.014972 -0.128852
C45   C     C_R   0.646418 0.330628 0.943088 -0.212826
C46   C     C_R   0.353528 0.669336 0.057016 -0.212646
C47   C     C_R   0.353614 0.329404 0.057124 -0.215943
C48   C     C_R   0.646446 0.670206 0.942984 -0.218228
C49   C     C_R   0.146424 0.830580 0.943046 -0.211193
C50   C     C_R   0.853500 0.169229 0.056997 -0.214127
C51   C     C_R   0.853765 0.829318 0.056890 -0.217111
C52   C     C_R   0.146499 0.170373 0.942776 -0.217373
C53   C     C_R   0.618347 0.349141 0.896701 -0.062373
C54   C     C_R   0.381661 0.650881 0.103322 -0.062186
C55   C     C_R   0.381882 0.348359 0.103107 -0.062298
C56   C     C_R   0.618151 0.651518 0.896965 -0.064118
C57   C     C_R   0.118329 0.849095 0.896697 -0.061991
C58   C     C_R   0.881628 0.150813 0.103324 -0.062629
C59   C     C_R   0.881925 0.848336 0.103022 -0.064039
C60   C     C_R   0.118156 0.151569 0.896868 -0.062422
C61   C     C_R   0.633464 0.320958 0.813495 -0.269282
C62   C     C_R   0.366610 0.679142 0.186478 -0.267785
C63   C     C_R   0.366943 0.320335 0.186184 -0.268240
C64   C     C_R   0.633200 0.679524 0.813840 -0.264307
C65   C     C_R   0.133402 0.820869 0.813523 -0.269615
C66   C     C_R   0.866539 0.179047 0.186502 -0.267323
C67   C     C_R   0.866850 0.820451 0.186209 -0.266441
C68   C     C_R   0.133065 0.179663 0.813829 -0.266230
C69   C     C_R   0.677547 0.275782 0.773131 -0.116611
C70   C     C_R   0.322554 0.724367 0.226829 -0.121536
C71   C     C_R   0.322663 0.274881 0.226736 -0.117087
C72   C     C_R   0.677812 0.724399 0.773052 -0.123175
C73   C     C_R   0.177445 0.775628 0.773178 -0.115426
C74   C     C_R   0.822430 0.224177 0.226886 -0.122611
C75   C     C_R   0.822415 0.775262 0.226866 -0.117212
C76   C     C_R   0.177403 0.225018 0.773236 -0.123190
C77   C     C_R   0.703715 0.250391 0.821909 -0.025898
C78   C     C_R   0.296464 0.749862 0.177945 -0.024093
C79   C     C_R   0.296189 0.248993 0.178237 -0.025593
C80   C     C_R   0.704658 0.749547 0.821321 -0.027453
C81   C     C_R   0.203563 0.750136 0.821988 -0.025740
C82   C     C_R   0.796262 0.249524 0.178061 -0.024333
C83   C     C_R   0.795776 0.749682 0.178495 -0.027655
C84   C     C_R   0.203921 0.250778 0.821752 -0.024183
C85   C     C_R   0.691504 0.129085 0.532923 0.902135
C86   C     C_R   0.309177 0.870386 0.463492 0.895554
C87   C     C_R   0.308512 0.129286 0.465586 0.909480
C88   C     C_R   0.696534 0.872025 0.517473 0.911295
C89   C     C_R   0.190819 0.629620 0.536525 0.898611
C90   C     C_R   0.808491 0.370920 0.467097 0.898778
C91   C     C_R   0.803456 0.627978 0.482557 0.914069
C92   C     C_R   0.191489 0.370719 0.534407 0.906291
C93   C     C_R   0.689068 0.280874 0.906830 -0.021464
C94   C     C_R   0.310929 0.719179 0.093240 -0.019607
C95   C     C_R   0.310763 0.279526 0.093647 -0.020403
C96   C     C_R   0.689673 0.719438 0.906141 -0.018018
C97   C     C_R   0.189020 0.780727 0.906833 -0.021438
C98   C     C_R   0.810830 0.218946 0.093285 -0.019607
C99   C     C_R   0.810724 0.779768 0.093593 -0.020073
C100  C     C_R   0.189403 0.220158 0.906205 -0.018558
C101  C     C_R   0.075274 0.098256 0.932814 0.913434
C102  C     C_R   0.924785 0.901671 0.067124 0.913630
C103  C     C_R   0.924615 0.097987 0.067429 0.911118
C104  C     C_R   0.075384 0.902003 0.932568 0.911580
C105  C     C_R   0.575203 0.598333 0.932895 0.913718
C106  C     C_R   0.424728 0.401735 0.067184 0.913363
C107  C     C_R   0.424612 0.597989 0.067437 0.911605
C108  C     C_R   0.575379 0.402002 0.932577 0.911138
C109  C     C_R   0.540889 0.129017 0.518795 0.105747
C110  C     C_R   0.478879 0.872682 0.413037 0.107247
C111  C     C_R   0.462679 0.132228 0.462696 0.102220
C112  C     C_R   0.572817 0.875306 0.432314 0.096966
C113  C     C_R   0.021075 0.627331 0.587095 0.108758
C114  C     C_R   0.959087 0.371007 0.481285 0.102973
C115  C     C_R   0.927118 0.624701 0.567856 0.100757
C116  C     C_R   0.037298 0.367791 0.537377 0.099348
C117  C     C_R   0.516110 0.194598 0.518644 -0.187459
C118  C     C_R   0.510988 0.810436 0.394663 -0.197017
C119  C     C_R   0.478872 0.196678 0.487089 -0.185644
C120  C     C_R   0.558285 0.812208 0.402311 -0.177774
C121  C     C_R   0.988947 0.689567 0.605520 -0.201238
C122  C     C_R   0.983872 0.305428 0.481418 -0.181794
C123  C     C_R   0.941638 0.687791 0.597896 -0.178199
C124  C     C_R   0.021108 0.303344 0.512975 -0.180210
C125  C     C_R   0.485794 0.066327 0.465765 0.031906
C126  C     C_R   0.541097 0.937611 0.450533 0.032918
C127  C     C_R   0.527406 0.065398 0.488451 0.030511
C128  C     C_R   0.495567 0.937078 0.437028 0.032561
C129  C     C_R   0.958848 0.562401 0.549615 0.031548
C130  C     C_R   0.014174 0.433692 0.534331 0.031829
C131  C     C_R   0.004386 0.562936 0.563103 0.032550
C132  C     C_R   0.972559 0.434622 0.511653 0.030441
C133  C     C_R   0.944602 0.499043 0.519410 -0.046752
C134  C     C_R   0.032304 0.498484 0.554883 -0.047746
C135  C     C_R   0.467662 0.001533 0.445218 -0.048164
C136  C     C_R   0.555354 0.000973 0.480716 -0.046844
C137  C     C_R   0.887842 0.435786 0.468409 0.060702
C138  C     C_R   0.101974 0.565163 0.572157 0.055723
C139  C     C_R   0.104569 0.432661 0.562514 0.052882
C140  C     C_R   0.870860 0.562900 0.513736 0.046227
C141  C     C_R   0.398007 0.934854 0.427902 0.055927
C142  C     C_R   0.612133 0.064231 0.531676 0.060452
C143  C     C_R   0.629098 0.937112 0.486374 0.047487
C144  C     C_R   0.395419 0.067354 0.437525 0.052778
C145  C     C_R   0.840514 0.436031 0.457965 -0.114332
C146  C     C_R   0.155705 0.564995 0.560882 -0.114518
C147  C     C_R   0.156749 0.434472 0.557143 -0.114397
C148  C     C_R   0.830749 0.563132 0.485398 -0.110279
C149  C     C_R   0.344286 0.935016 0.439148 -0.115917
C150  C     C_R   0.659470 0.063980 0.542094 -0.113493
C151  C     C_R   0.669226 0.936875 0.514674 -0.110439
C152  C     C_R   0.343248 0.065537 0.442863 -0.113196
C153  C     C_R   0.816499 0.500346 0.458096 -0.280920
C154  C     C_R   0.180327 0.499963 0.559046 -0.265856
C155  C     C_R   0.319670 0.000047 0.440958 -0.265575
C156  C     C_R   0.683484 0.999662 0.541963 -0.281974
H1    H     H_    0.039041 0.252001 0.514417 0.144402
H2    H     H_    0.917390 0.736409 0.612725 0.156346
H3    H     H_    0.973277 0.255574 0.459716 0.143065
H4    H     H_    0.000404 0.739534 0.625627 0.142152
H5    H     H_    0.582520 0.763582 0.387519 0.165282
H6    H     H_    0.460944 0.248022 0.485634 0.141216
H7    H     H_    0.499524 0.760465 0.374571 0.144845
H8    H     H_    0.526712 0.244455 0.540329 0.140335
H9    H     H_    0.783612 0.500634 0.442297 0.205305
H10   H     H_    0.220798 0.500373 0.551613 0.204046
H11   H     H_    0.279204 0.999636 0.448370 0.204140
H12   H     H_    0.716381 0.999375 0.557737 0.205093
H13   H     H_    0.085759 0.315770 0.581504 0.180188
H14   H     H_    0.854518 0.668653 0.581855 0.189057
H15   H     H_    0.916542 0.326442 0.418763 0.172703
H16   H     H_    0.081272 0.678303 0.610838 0.169666
H17   H     H_    0.645427 0.831364 0.418251 0.188201
H18   H     H_    0.414239 0.184244 0.418522 0.179720
H19   H     H_    0.418715 0.821717 0.389217 0.169769
H20   H     H_    0.583452 0.173590 0.581284 0.172391
H21   H     H_    0.699764 0.150439 0.973370 0.135428
H22   H     H_    0.299795 0.849614 0.027151 0.137134
H23   H     H_    0.298957 0.149673 0.025996 0.135347
H24   H     H_    0.701606 0.849503 0.972840 0.138541
H25   H     H_    0.200068 0.650293 0.973057 0.135534
H26   H     H_    0.800030 0.349376 0.026906 0.137213
H27   H     H_    0.798947 0.649624 0.026650 0.136383
H28   H     H_    0.201324 0.349992 0.973671 0.137006
H29   H     H_    0.747040 0.375277 0.951099 0.135056
H30   H     H_    0.253125 0.624589 0.048810 0.133398
H31   H     H_    0.253844 0.374661 0.051043 0.136109
H32   H     H_    0.746437 0.624439 0.949333 0.133289
H33   H     H_    0.246743 0.875312 0.951407 0.135514
H34   H     H_    0.752765 0.124533 0.049184 0.132948
H35   H     H_    0.754053 0.874672 0.050219 0.135489
H36   H     H_    0.246412 0.124995 0.948641 0.134055
H37   H     H_    0.635177 0.354861 0.007683 0.164890
H38   H     H_    0.364680 0.644992 0.992513 0.167541
H39   H     H_    0.364743 0.353573 0.992709 0.165359
H40   H     H_    0.635108 0.646256 0.007592 0.166864
H41   H     H_    0.135237 0.854881 0.007585 0.165438
H42   H     H_    0.864706 0.144947 0.992441 0.167048
H43   H     H_    0.865085 0.853232 0.992270 0.165019
H44   H     H_    0.135397 0.146152 0.007153 0.167387
H45   H     H_    0.612872 0.338284 0.777377 0.182120
H46   H     H_    0.387205 0.661812 0.222589 0.181652
H47   H     H_    0.387728 0.338080 0.222162 0.181848
H48   H     H_    0.612228 0.662164 0.778018 0.184762
H49   H     H_    0.112820 0.838223 0.777400 0.181263
H50   H     H_    0.887164 0.161778 0.222590 0.182533
H51   H     H_    0.887669 0.838109 0.222167 0.184422
H52   H     H_    0.112221 0.162028 0.777904 0.182242
O1    O     O_R   0.746490 0.236330 0.638080 -0.602306
O2    O     O_R   0.253510 0.763670 0.361920 -0.600884
O3    O     O_R   0.253510 0.236330 0.361920 -0.603428
O4    O     O_R   0.746490 0.763670 0.638080 -0.619630
O5    O     O_R   0.246490 0.736330 0.638080 -0.601254
O6    O     O_R   0.753510 0.263670 0.361920 -0.601958
O7    O     O_R   0.753510 0.736330 0.361920 -0.620234
O8    O     O_R   0.246490 0.263670 0.638080 -0.602987
O9    O     O_R   0.674170 0.186160 0.516270 -0.643525
O10   O     O_R   0.325830 0.813840 0.483730 -0.635638
O11   O     O_R   0.325830 0.186160 0.483730 -0.647751
O12   O     O_R   0.674170 0.813840 0.516270 -0.646880
O13   O     O_R   0.174170 0.686160 0.516270 -0.636685
O14   O     O_R   0.825830 0.313840 0.483730 -0.642737
O15   O     O_R   0.825830 0.686160 0.483730 -0.647842
O16   O     O_R   0.174170 0.313840 0.516270 -0.647090
O17   O     O_R   0.739960 0.127620 0.525000 -0.611554
O18   O     O_R   0.260040 0.872380 0.475000 -0.613472
O19   O     O_R   0.260040 0.127620 0.475000 -0.616060
O20   O     O_R   0.739960 0.872380 0.525000 -0.615141
O21   O     O_R   0.239960 0.627620 0.525000 -0.614787
O22   O     O_R   0.760040 0.372380 0.475000 -0.610282
O23   O     O_R   0.760040 0.627620 0.475000 -0.615975
O24   O     O_R   0.239960 0.372380 0.525000 -0.614843
O25   O     O_R   0.680700 0.294870 0.629350 -0.638040
O26   O     O_R   0.319300 0.705130 0.370650 -0.639001
O27   O     O_R   0.319300 0.294870 0.370650 -0.639862
O28   O     O_R   0.680700 0.705130 0.629350 -0.630718
O29   O     O_R   0.180700 0.794870 0.629350 -0.640276
O30   O     O_R   0.819300 0.205130 0.370650 -0.636698
O31   O     O_R   0.819300 0.794870 0.370650 -0.632224
O32   O     O_R   0.180700 0.205130 0.629350 -0.638504
O33   O     O_R   0.062020 0.072840 0.007170 -0.626541
O34   O     O_R   0.937980 0.927160 0.992830 -0.628106
O35   O     O_R   0.937980 0.072840 0.992830 -0.626740
O36   O     O_R   0.062020 0.927160 0.007170 -0.626588
O37   O     O_R   0.562020 0.572840 0.007170 -0.627460
O38   O     O_R   0.437980 0.427160 0.992830 -0.627355
O39   O     O_R   0.437980 0.572840 0.992830 -0.625751
O40   O     O_R   0.562020 0.427160 0.007170 -0.627593
O41   O     O_R   0.947860 0.073950 0.109290 -0.622623
O42   O     O_R   0.052140 0.926050 0.890710 -0.623507
O43   O     O_R   0.052140 0.073950 0.890710 -0.623057
O44   O     O_R   0.947860 0.926050 0.109290 -0.622199
O45   O     O_R   0.447860 0.573950 0.109290 -0.623363
O46   O     O_R   0.552140 0.426050 0.890710 -0.622806
O47   O     O_R   0.552140 0.573950 0.890710 -0.621910
O48   O     O_R   0.447860 0.426050 0.109290 -0.623270
Zn1   Zn    Zn3+2 0.792340 0.208750 0.507670 0.988730
Zn2   Zn    Zn3+2 0.207660 0.791250 0.492330 0.994125
Zn3   Zn    Zn3+2 0.207660 0.208750 0.492330 0.984111
Zn4   Zn    Zn3+2 0.792340 0.791250 0.507670 0.985918
Zn5   Zn    Zn3+2 0.292340 0.708750 0.507670 0.991429
Zn6   Zn    Zn3+2 0.707660 0.291250 0.492330 0.991751
Zn7   Zn    Zn3+2 0.707660 0.708750 0.492330 0.982153
Zn8   Zn    Zn3+2 0.292340 0.291250 0.507670 0.987606
Zn9   Zn    Zn3+2 0.505960 0.500000 0.080520 0.946073
Zn10  Zn    Zn3+2 0.494040 0.500000 0.919480 0.951049
Zn11  Zn    Zn3+2 0.005960 0.000000 0.080520 0.951045
Zn12  Zn    Zn3+2 0.994040 0.000000 0.919480 0.946397
C157  C     C_2   0.745926 0.193140 0.785089 0.920793
O49   O     O_2   0.790482 0.203566 0.779152 -0.626477
O50   O     O_R   0.734484 0.127364 0.756693 -0.791332
H53   H     H_    0.766304 0.092696 0.732547 0.346511
C158  C     C_2   0.254212 0.807020 0.214378 0.921517
O51   O     O_2   0.264184 0.865179 0.237955 -0.624668
O52   O     O_R   0.203272 0.794384 0.221487 -0.798581
H54   H     H_    0.178206 0.837573 0.246762 0.338307
C159  C     C_2   0.253808 0.191265 0.215011 0.918933
O53   O     O_2   0.209399 0.200748 0.220408 -0.628316
O54   O     O_R   0.264921 0.126117 0.244037 -0.790285
H55   H     H_    0.233018 0.091046 0.268110 0.346107
C160  C     C_2   0.748540 0.805212 0.784064 0.917822
O55   O     O_2   0.739962 0.864102 0.761106 -0.617895
O56   O     O_R   0.799427 0.790265 0.775552 -0.816990
H56   H     H_    0.825809 0.832455 0.749511 0.332321
C161  C     C_2   0.245575 0.692633 0.785261 0.920502
O57   O     O_2   0.290164 0.702732 0.779352 -0.624314
O58   O     O_R   0.233915 0.626997 0.756851 -0.791251
H57   H     H_    0.265616 0.592132 0.732742 0.346956
C162  C     C_2   0.753752 0.306347 0.214622 0.921745
O59   O     O_2   0.763550 0.364741 0.237971 -0.624507
O60   O     O_R   0.702775 0.293113 0.222078 -0.799852
H58   H     H_    0.677508 0.336099 0.247457 0.337089
C163  C     C_2   0.752662 0.692925 0.215729 0.914203
O61   O     O_2   0.708186 0.703849 0.221962 -0.646134
O62   O     O_R   0.763168 0.627055 0.244143 -0.782344
H59   H     H_    0.730794 0.592765 0.268560 0.344683
C164  C     C_2   0.246691 0.307964 0.785195 0.920575
O63   O     O_2   0.237264 0.365904 0.761352 -0.624555
O64   O     O_R   0.297502 0.295583 0.778231 -0.800928
H60   H     H_    0.322981 0.338728 0.752740 0.336610

loop_
_geom_bond_atom_site_label_1
_geom_bond_atom_site_label_2
_ccdc_geom_bond_type
O3    Zn3   S    
O27   Zn8   S    
C22   C94   S    
O60   H58   S    
C34   C42   A    
C14   H14   S    
C16   C113  A    
C110  C118  A    
C50   H42   S    
C6    O30   A    
C27   C99   S    
C38   H25   S    
C54   C107  S    
C13   C139  A    
C47   H39   S    
C117  C119  A    
C92   O24   A    
O50   H53   S    
C30   C38   A    
C33   H33   S    
C164  O64   S    
C3    O27   A    
O39   Zn10  S    
C109  C127  A    
O26   Zn5   S    
C1    O25   A    
C111  C125  A    
C125  C135  A    
C143  C151  A    
C64   H48   S    
C126  C136  A    
C80   C160  S    
C19   C141  A    
C92   C147  S    
C82   C98   A    
O18   Zn2   S    
C130  C134  A    
C44   H23   S    
C73   C81   A    
C17   H17   S    
O37   Zn9   S    
C43   H24   S    
C115  C123  A    
C84   C100  A    
C92   O16   A    
C18   C111  A    
C128  C135  A    
C112  C120  A    
C27   C35   A    
C21   C29   A    
C23   C31   A    
C24   C32   A    
O44   Zn11  S    
O1    Zn1   S    
C146  C154  A    
C5    O5    A    
C129  C133  A    
C63   C71   A    
C157  O50   S    
C36   C44   A    
C148  C153  A    
C105  O47   A    
C57   C104  S    
O46   Zn10  S    
C48   C96   A    
C59   C102  S    
C16   C138  A    
O11   Zn8   S    
C8    O8    A    
O47   Zn10  S    
C108  O40   A    
C24   C96   S    
C149  C155  A    
C161  O58   S    
C53   C108  S    
C21   C93   S    
C78   C94   A    
C23   C95   S    
O32   Zn3   S    
C118  C120  A    
C121  C123  A    
C49   C97   A    
C21   C42   A    
C116  C130  A    
O28   Zn7   S    
C81   C161  S    
C31   H31   S    
O29   Zn2   S    
C125  C127  A    
C24   C43   A    
C10   C138  A    
C110  C128  A    
C15   C137  A    
C9    C133  A    
C69   C77   A    
C45   C93   A    
C71   C79   A    
C49   H41   S    
C62   C70   A    
C63   H47   S    
C89   O13   A    
C9    C140  A    
C65   H49   S    
C156  H12   S    
C66   C74   A    
C8    C76   S    
C49   C57   A    
C111  C119  A    
C86   O10   A    
C52   C60   A    
C59   C67   A    
C53   C61   A    
C55   C63   A    
C56   C64   A    
C52   H44   S    
O34   Zn12  S    
C35   C43   A    
C39   H28   S    
C40   H27   S    
C13   H13   S    
C45   C53   A    
C159  O53   D    
C4    O28   A    
C46   H38   S    
C8    O32   A    
C3    O3    A    
C50   C98   A    
C1    O1    A    
C103  O41   A    
C106  O48   A    
C34   H34   S    
C28   C36   A    
C155  H11   S    
O40   Zn9   S    
C52   C100  A    
C91   O23   A    
C163  O61   D    
C82   C162  S    
C25   C38   A    
C46   C94   A    
C27   C40   A    
C122  H3    S    
C162  O59   D    
C11   C141  A    
C105  O37   A    
O16   Zn3   S    
C18   H18   S    
C25   C97   S    
C14   C140  A    
C87   C152  S    
C88   C151  S    
C77   C157  S    
O12   Zn7   S    
C67   C75   A    
C122  C124  A    
O13   Zn2   S    
C84   C164  S    
O23   Zn7   S    
C126  C128  A    
O24   Zn8   S    
C108  O46   A    
C36   H36   S    
O20   Zn4   S    
O21   Zn5   S    
C160  O56   S    
C12   C143  A    
O36   Zn11  S    
O41   Zn11  S    
O42   Zn12  S    
C144  C152  A    
C20   H20   S    
C138  C146  A    
C158  O52   S    
C29   H29   S    
C5    C73   S    
C19   H19   S    
O14   Zn1   S    
C85   O17   A    
C12   C136  A    
O56   H56   S    
O10   Zn5   S    
C90   O22   A    
O38   Zn10  S    
C25   C33   A    
O48   Zn9   S    
O22   Zn6   S    
O52   H54   S    
C131  C134  A    
C76   C84   A    
C109  C117  A    
C5    O29   A    
C137  C145  A    
C90   C145  S    
C22   C41   A    
C14   C115  A    
C107  O45   A    
O30   Zn1   S    
C85   C150  S    
C62   H46   S    
C9    C137  A    
C2    O26   A    
C121  H4    S    
C68   H52   S    
C35   H35   S    
O54   H55   S    
C22   C30   A    
C112  C126  A    
C153  H9    S    
C83   C99   A    
C157  O49   D    
C101  O43   A    
C74   C82   A    
C119  H6    S    
C6    C74   S    
C117  H8    S    
C45   H37   S    
C118  H7    S    
C55   C106  S    
C50   C58   A    
O7    Zn7   S    
O31   Zn4   S    
C104  O42   A    
O35   Zn12  S    
O8    Zn8   S    
O62   H59   S    
C54   C62   A    
C28   C39   A    
O4    Zn4   S    
C1    C69   S    
C23   C44   A    
C88   O12   A    
C130  C132  A    
O64   H60   S    
C79   C95   A    
C161  O57   D    
C11   C135  A    
O58   H57   S    
C6    O6    A    
C152  C155  A    
C124  H1    S    
C46   C54   A    
C15   H15   S    
C151  C156  A    
C127  C136  A    
C87   O19   A    
C68   C76   A    
C10   C139  A    
C91   O15   A    
C4    C72   S    
C116  C124  A    
O6    Zn6   S    
C57   C65   A    
C26   C37   A    
O2    Zn2   S    
C17   C143  A    
C33   C41   A    
C142  C150  A    
C18   C144  A    
C75   C83   A    
C37   H26   S    
C77   C93   A    
C12   C142  A    
C56   C105  S    
C13   C116  A    
C60   C68   A    
C72   C80   A    
C29   C37   A    
C154  H10   S    
O5    Zn5   S    
C2    C70   S    
O43   Zn12  S    
C7    O7    A    
O25   Zn6   S    
C70   C78   A    
C164  O63   D    
C3    C71   S    
C140  C148  A    
C141  C149  A    
C88   O20   A    
C139  C147  A    
C102  O44   A    
C30   H30   S    
C107  O39   A    
C90   O14   A    
O15   Zn4   S    
C66   H50   S    
C42   H21   S    
C65   C73   A    
C147  C154  A    
C85   O9    A    
C61   H45   S    
C26   C34   A    
C132  C133  A    
C103  O35   A    
C87   O11   A    
C80   C96   A    
C101  O33   A    
C11   C144  A    
O19   Zn3   S    
C145  C153  A    
C28   C100  S    
C32   C40   A    
C150  C156  A    
C48   H40   S    
C91   C148  S    
C58   C66   A    
C51   C99   A    
C89   C146  S    
C2    O2    A    
C32   H32   S    
C20   C142  A    
C41   H22   S    
C86   C149  S    
C7    C75   S    
O45   Zn9   S    
C160  O55   D    
C104  O36   A    
C16   H16   S    
C79   C159  S    
O33   Zn11  S    
C158  O51   D    
C15   C114  A    
C113  C121  A    
C106  O38   A    
C51   H43   S    
C120  H5    S    
C26   C98   S    
C102  O34   A    
C7    O31   A    
C159  O54   S    
C86   O18   A    
C51   C59   A    
C60   C101  S    
C17   C112  A    
C67   H51   S    
C47   C55   A    
C115  C129  A    
C19   C110  A    
C61   C69   A    
C48   C56   A    
O9    Zn6   S    
C113  C131  A    
C114  C132  A    
C10   C134  A    
C123  H2    S    
C4    O4    A    
O17   Zn1   S    
C163  O62   S    
C83   C163  S    
C81   C97   A    
C162  O60   S    
C31   C39   A    
C64   C72   A    
C20   C109  A    
C114  C122  A    
C47   C95   A    
C58   C103  S    
C78   C158  S    
C89   O21   A    
C129  C131  A    
