data_mof_unit_26953.cif
_audit_creation_date              2012-12-10T18:33:41-0500
_audit_creation_method            fapswitch 2.2
_symmetry_space_group_name_H-M    P1
_symmetry_Int_Tables_number       1
_space_group_crystal_system       triclinic
_cell_length_a                    10.506155
_cell_length_b                    14.999653
_cell_length_c                    15.572743
_cell_angle_alpha                 82.444573
_cell_angle_beta                  89.557098
_cell_angle_gamma                 104.064705
_cell_volume                      2357.8414328

loop_
_atom_site_label
_atom_site_type_symbol
_atom_type_description
_atom_site_fract_x
_atom_site_fract_y
_atom_site_fract_z
_atom_type_partial_charge
C1    C     C_R   0.480409 0.441989 0.661859 0.886376
C2    C     C_R   0.517555 0.558004 0.338150 0.889915
C3    C     C_R   0.482237 0.470649 0.813865 0.446073
C4    C     C_R   0.500374 0.529480 0.186193 0.461958
C5    C     C_R   0.518126 0.447745 0.898677 -0.033789
C6    C     C_R   0.551910 0.553377 0.100866 -0.034028
C7    C     C_R   0.511573 0.353540 0.929420 0.113640
C8    C     C_R   0.607389 0.648122 0.069884 0.113941
C9    C     C_R   0.553718 0.515385 0.954817 0.067656
C10   C     C_R   0.543699 0.486039 0.044589 0.065219
C11   C     C_R   0.533869 0.391406 0.075116 -0.149798
C12   C     C_R   0.606389 0.610473 0.924094 -0.151461
C13   C     C_R   0.522448 0.326532 0.017660 -0.246537
C14   C     C_R   0.636884 0.675568 0.981458 -0.244537
C15   C     C_R   0.690816 0.841205 0.638929 -0.323981
C16   C     C_R   0.306757 0.158158 0.362574 -0.325739
C17   C     C_R   0.659952 0.752535 0.615930 0.056368
C18   C     C_R   0.338189 0.246968 0.385220 0.050551
C19   C     C_R   0.515505 0.794115 0.510116 -0.072459
C20   C     C_R   0.485202 0.206071 0.489475 -0.074641
C21   C     C_R   0.542090 0.885483 0.530469 -0.004035
C22   C     C_R   0.457351 0.114373 0.469910 -0.002478
C23   C     C_R   0.742377 0.500344 0.500185 0.846020
C24   C     C_R   0.257620 0.499610 0.499931 0.844251
C25   C     C_R   0.632276 0.908104 0.596312 0.181161
C26   C     C_R   0.366062 0.091462 0.404737 0.178611
C27   C     C_R   0.482896 0.954301 0.488211 0.081763
C28   C     C_R   0.516251 0.045482 0.512356 0.082485
C29   C     C_R   0.606952 0.064665 0.578180 -0.243986
C30   C     C_R   0.391345 0.934899 0.422907 -0.242884
C31   C     C_R   0.663412 0.997074 0.619226 -0.211446
C32   C     C_R   0.334334 0.002343 0.382190 -0.211899
C33   C     C_3   0.929956 0.417158 0.482858 -0.129139
C34   C     C_3   0.070059 0.582726 0.517448 -0.134963
C35   C     C_3   0.017674 0.432301 0.561260 -0.186346
C36   C     C_3   0.982359 0.567588 0.439038 -0.182779
C37   C     C_3   0.122272 0.499621 0.499991 0.037230
C38   C     C_3   0.877734 0.500270 0.500292 0.040145
C39   C     C_3   0.037254 0.484682 0.421636 -0.183972
C40   C     C_3   0.962746 0.515197 0.578667 -0.188484
C41   C     C_R   0.477765 0.407678 0.754198 -0.174490
C42   C     C_R   0.537129 0.592684 0.245709 -0.173098
C43   C     C_R   0.493817 0.288106 0.871303 -0.207768
C44   C     C_R   0.631972 0.713623 0.127979 -0.207790
C45   C     C_R   0.482361 0.315972 0.783302 -0.282696
C46   C     C_R   0.601787 0.685231 0.216218 -0.285591
H1    H     H_    0.036749 0.377267 0.610830 0.130768
H2    H     H_    0.963356 0.622660 0.389480 0.133385
H3    H     H_    0.552956 0.230834 0.537429 0.127086
H4    H     H_    0.449310 0.769757 0.461216 0.127785
H5    H     H_    0.292882 0.299301 0.353553 0.158864
H6    H     H_    0.704092 0.699876 0.648348 0.132436
H7    H     H_    0.759597 0.857328 0.689499 0.139065
H8    H     H_    0.236720 0.141714 0.312768 0.144157
H9    H     H_    0.636815 0.131404 0.600175 0.135319
H10   H     H_    0.360622 0.867943 0.401440 0.136795
H11   H     H_    0.869146 0.349437 0.468790 0.143670
H12   H     H_    0.130895 0.650429 0.531542 0.144874
H13   H     H_    0.072029 0.472011 0.357907 0.122798
H14   H     H_    0.927824 0.527744 0.642421 0.128391
H15   H     H_    0.518646 0.254932 0.042541 0.146427
H16   H     H_    0.680341 0.747596 0.956395 0.143580
H17   H     H_    0.628876 0.735383 0.261109 0.183441
H18   H     H_    0.476994 0.266045 0.738307 0.180497
H19   H     H_    0.492443 0.216300 0.893510 0.147676
H20   H     H_    0.677752 0.785943 0.105548 0.147451
H21   H     H_    0.542945 0.367533 0.142849 0.195176
H22   H     H_    0.631992 0.634706 0.856213 0.187340
H23   H     H_    0.732294 0.014736 0.669464 0.141315
H24   H     H_    0.264525 0.984440 0.332519 0.142039
N1    N     N_R   0.574200 0.731700 0.552740 -0.100192
N2    N     N_R   0.425800 0.268300 0.447260 -0.104359
O1    O     O_R   0.462600 0.383110 0.605620 -0.631180
O2    O     O_R   0.537400 0.616890 0.394380 -0.633008
O3    O     O_R   0.510210 0.531900 0.639510 -0.560128
O4    O     O_R   0.489790 0.468100 0.360490 -0.559635
O5    O     O_R   0.662240 0.425610 0.483080 -0.630338
O6    O     O_R   0.337760 0.574390 0.516920 -0.626236
O7    O     O_R   0.709860 0.574400 0.516970 -0.627620
O8    O     O_R   0.290140 0.425600 0.483030 -0.624030
Zn1   Zn    Zn3+2 0.468210 0.400660 0.477370 0.949145
Zn2   Zn    Zn3+2 0.531790 0.599340 0.522630 0.949940
O9    O     O_3   0.409889 0.445577 0.210817 -0.613751
C47   C     C_3   0.282905 0.458813 0.196957 -0.334641
H25   H     H_    0.270018 0.480986 0.127152 0.168127
H26   H     H_    0.261102 0.509857 0.237150 0.148073
H27   H     H_    0.210238 0.391784 0.216692 0.180563
O10   O     O_3   0.447035 0.553446 0.789970 -0.608172
C48   C     C_3   0.309821 0.537238 0.802408 -0.284846
H28   H     H_    0.278326 0.512307 0.871639 0.153394
H29   H     H_    0.256768 0.487199 0.760132 0.145907
H30   H     H_    0.281761 0.603682 0.784204 0.190104

loop_
_geom_bond_atom_site_label_1
_geom_bond_atom_site_label_2
_ccdc_geom_bond_type
C25   C31   A    
C38   C40   S    
C26   C32   A    
C40   H14   S    
C34   C37   S    
C19   N1    A    
C47   H27   S    
C35   H1    S    
C12   H22   S    
C33   C39   S    
C34   C40   S    
C15   H7    S    
C28   C29   A    
C35   C37   S    
C47   H26   S    
C15   C25   A    
C14   H16   S    
C42   C46   A    
C44   H20   S    
C24   O8    A    
C44   C46   A    
C8    C14   A    
C7    C43   A    
C48   H29   S    
C9    C10   A    
N2    Zn1   S    
C2    O2    A    
N1    Zn2   S    
C21   C27   A    
C22   C28   A    
C27   C30   A    
C18   N2    A    
O2    Zn2   S    
C17   H6    S    
O1    Zn1   S    
C11   H21   S    
C18   H5    S    
C16   C26   A    
C37   C39   S    
C1    O3    A    
C47   H25   S    
C4    C6    A    
C5    C7    A    
C32   H24   S    
C29   H9    S    
C30   H10   S    
C5    C9    A    
C20   H3    S    
O6    Zn2   S    
C31   H23   S    
O9    C47   S    
O5    Zn1   S    
C43   H19   S    
C39   H13   S    
C24   C37   S    
C23   O5    A    
C48   H30   S    
C43   C45   A    
C24   O6    A    
C20   C22   A    
C17   N1    A    
C2    O4    A    
C1    C41   S    
C15   C17   A    
C21   C25   A    
C3    C41   A    
C33   H11   S    
C19   C21   A    
C3    O10   S    
C36   C39   S    
C8    C44   A    
C12   C14   A    
O8    Zn1   S    
C3    C5    A    
O4    Zn1   S    
C6    C10   A    
O7    Zn2   S    
C6    C8    A    
O3    Zn2   S    
C23   C38   S    
C45   H18   S    
C33   C38   S    
C46   H17   S    
C1    O1    A    
C36   C38   S    
C35   C40   S    
C29   C31   A    
C30   C32   A    
C11   C13   A    
C19   H4    S    
C4    O9    S    
C4    C42   A    
C2    C42   S    
C33   C35   S    
C36   H2    S    
C34   C36   S    
C9    C12   A    
C16   H8    S    
C10   C11   A    
C7    C13   A    
C13   H15   S    
O10   C48   S    
C16   C18   A    
C22   C26   A    
C27   C28   A    
C34   H12   S    
C41   C45   A    
C20   N2    A    
C23   O7    A    
C48   H28   S    
