data_mof_unit_38468.cif
_audit_creation_date              2012-12-11T17:43:13-0500
_audit_creation_method            fapswitch 2.2
_symmetry_space_group_name_H-M    P1
_symmetry_Int_Tables_number       1
_space_group_crystal_system       triclinic
_cell_length_a                    14.862972
_cell_length_b                    15.14188
_cell_length_c                    16.965653
_cell_angle_alpha                 109.056329
_cell_angle_beta                  106.49913
_cell_angle_gamma                 108.390356
_cell_volume                      3089.42545019

loop_
_atom_site_label
_atom_site_type_symbol
_atom_type_description
_atom_site_fract_x
_atom_site_fract_y
_atom_site_fract_z
_atom_type_partial_charge
C1    C     C_R   0.095253 0.280033 0.038325 -0.193578
C2    C     C_R   0.042746 0.034782 0.909442 -0.279369
C3    C     C_R   0.994389 0.889927 0.943839 0.140402
C4    C     C_R   0.014453 0.086376 0.975854 0.097596
C5    C     C_R   0.034114 0.935388 0.893241 0.071149
C6    C     C_R   0.978280 0.041015 0.027698 0.051923
C7    C     C_R   0.857468 0.068839 0.097934 -0.181035
C8    C     C_R   0.171801 0.933045 0.837340 -0.120694
C9    C     C_R   0.923481 0.172986 0.262357 -0.097660
C10   C     C_R   0.143202 0.781638 0.707256 -0.113229
C11   C     C_R   0.469026 0.599723 0.354974 -0.120947
C12   C     C_R   0.910654 0.708937 0.920488 -0.273670
C13   C     C_R   0.541860 0.609974 0.789252 -0.126747
C14   C     C_R   0.495011 0.623033 0.288757 -0.145698
C15   C     C_R   0.538629 0.588247 0.862640 -0.127051
C16   C     C_R   0.936097 0.446190 0.736604 -0.162591
C17   C     C_R   0.064431 0.495573 0.259714 -0.156176
C18   C     C_R   0.514298 0.553410 0.225161 0.109376
C19   C     C_R   0.609050 0.663624 0.954177 0.093826
C20   C     C_R   0.508707 0.460975 0.230160 -0.154576
C21   C     C_R   0.681462 0.761597 0.971432 -0.183014
C22   C     C_R   0.482831 0.438141 0.296626 -0.105662
C23   C     C_R   0.028981 0.457947 0.727769 0.100143
C24   C     C_R   0.685383 0.782076 0.897420 -0.110544
C25   C     C_R   0.462801 0.507309 0.358823 -0.103989
C26   C     C_R   0.615518 0.706561 0.806605 -0.091627
C27   C     C_R   0.621011 0.564092 0.135677 -0.230292
C28   C     C_R   0.525679 0.663274 0.056183 -0.216288
C29   C     C_R   0.644115 0.584580 0.066738 0.064060
C30   C     C_R   0.480527 0.612669 0.100530 0.040393
C31   C     C_R   0.599991 0.642004 0.031120 0.026621
C32   C     C_R   0.538115 0.576793 0.152887 0.030527
C33   C     C_R   0.839107 0.107067 0.175435 -0.118358
C34   C     C_R   0.971702 0.446833 0.265498 0.116732
C35   C     C_R   0.208738 0.883234 0.778361 -0.115480
C36   C     C_R   0.961910 0.422032 0.339946 0.037180
C37   C     C_R   0.035720 0.412099 0.640059 0.044118
C38   C     C_R   0.136361 0.433461 0.551832 -0.397695
C39   C     C_R   0.857574 0.360098 0.414595 -0.404077
C40   C     C_R   0.716088 0.220250 0.824719 -0.055699
C41   C     C_R   0.218240 0.795328 0.188652 -0.181992
C42   C     C_R   0.132815 0.435852 0.634353 0.531021
C43   C     C_R   0.864483 0.388377 0.345324 0.527421
C44   C     C_R   0.943060 0.364839 0.559207 -0.332382
C45   C     C_R   0.658353 0.224136 0.746537 0.028647
C46   C     C_R   0.051283 0.432275 0.406683 -0.355452
C47   C     C_R   0.947770 0.374733 0.482487 0.148291
C48   C     C_R   0.045414 0.411944 0.479408 0.157783
C49   C     C_R   0.546112 0.152331 0.680785 0.066765
C50   C     C_R   0.270654 0.894456 0.362696 0.065372
C51   C     C_R   0.361884 0.083542 0.444748 -0.226641
C52   C     C_R   0.402617 0.978853 0.614281 -0.224622
C53   C     C_R   0.298713 0.991964 0.362731 -0.207720
C54   C     C_R   0.495126 0.061268 0.687151 -0.207912
C55   C     C_R   0.288810 0.890912 0.447944 0.099690
C56   C     C_R   0.235743 0.800357 0.275784 0.079767
C57   C     C_R   0.492348 0.166291 0.605683 0.118402
C58   C     C_R   0.363158 0.982509 0.530468 0.090069
C59   C     C_R   0.404677 0.078895 0.527637 0.087179
C60   C     C_R   0.026542 0.204707 0.271648 -0.197925
C61   C     C_R   0.040010 0.729965 0.694047 -0.184902
C62   C     C_R   0.046107 0.167329 0.194178 0.203233
C63   C     C_R   0.000957 0.779712 0.751672 0.192386
C64   C     C_R   0.303951 0.599861 0.010527 -0.116618
C65   C     C_R   0.737126 0.466018 0.048000 -0.130867
C66   C     C_R   0.960638 0.097144 0.106709 0.075871
C67   C     C_R   0.365722 0.573139 0.067357 0.065515
C68   C     C_R   0.068388 0.881889 0.825656 0.089919
C69   C     C_R   0.724639 0.313112 0.747770 -0.135028
C70   C     C_R   0.219558 0.700967 0.265541 -0.102633
C71   C     C_R   0.297773 0.502941 0.084205 -0.129392
C72   C     C_R   0.747907 0.561693 0.971796 -0.124453
C73   C     C_R   0.110834 0.532861 0.813659 -0.086094
C74   C     C_R   0.890455 0.409112 0.180412 -0.076240
C75   C     C_R   0.919861 0.193866 0.960343 0.529139
C76   C     C_R   0.083784 0.792731 0.994764 0.467646
C77   C     C_R   0.011001 0.181892 0.983654 -0.113251
C78   C     C_R   0.707675 0.539964 0.030938 0.052186
C79   C     C_R   0.997029 0.796929 0.943937 0.011052
C80   C     C_3   0.480922 0.329127 0.640445 -0.946207
C81   C     C_3   0.142433 0.781857 0.462789 -0.890608
C82   C     C_3   0.197727 0.134705 0.228086 -0.925066
C83   C     C_3   0.825119 0.762328 0.690415 -0.944619
C84   C     C_R   0.965631 0.941443 0.009021 -0.309217
H1    H     H_    0.176809 0.299125 0.074296 0.139874
H2    H     H_    0.480764 0.513281 0.848410 0.131306
H3    H     H_    0.522133 0.405530 0.181510 0.117807
H4    H     H_    0.735081 0.821120 0.041647 0.124561
H5    H     H_    0.477674 0.366443 0.299547 0.106896
H6    H     H_    0.742082 0.856418 0.909931 0.117991
H7    H     H_    0.663460 0.533041 0.172776 0.141810
H8    H     H_    0.490782 0.703657 0.025582 0.129389
H9    H     H_    0.126473 0.458227 0.404080 0.141734
H10   H     H_    0.866745 0.335659 0.559094 0.143360
H11   H     H_    0.210844 0.456917 0.547310 0.130814
H12   H     H_    0.830978 0.683803 0.873075 0.156797
H13   H     H_    0.783398 0.334278 0.419498 0.136514
H14   H     H_    0.856659 0.395072 0.684962 0.099573
H15   H     H_    0.143465 0.519737 0.307333 0.089782
H16   H     H_    0.759372 0.083557 0.168422 0.123389
H17   H     H_    0.288663 0.923204 0.788297 0.116990
H18   H     H_    0.529198 0.049738 0.745993 0.132661
H19   H     H_    0.278093 0.998624 0.299283 0.142259
H20   H     H_    0.384244 0.156273 0.440250 0.139123
H21   H     H_    0.369070 0.909462 0.622068 0.134973
H22   H     H_    0.908841 0.199157 0.322613 0.133175
H23   H     H_    0.791155 0.015251 0.031504 0.137360
H24   H     H_    0.172231 0.743001 0.661992 0.123074
H25   H     H_    0.091457 0.256159 0.339475 0.129860
H26   H     H_    0.989782 0.651469 0.637964 0.125381
H27   H     H_    0.684319 0.172163 0.854354 0.144214
H28   H     H_    0.222276 0.857816 0.170587 0.129415
H29   H     H_    0.330131 0.662403 0.992584 0.087229
H30   H     H_    0.718338 0.429995 0.090283 0.113506
H31   H     H_    0.705936 0.350640 0.706055 0.125809
H32   H     H_    0.231804 0.675111 0.317614 0.107477
H33   H     H_    0.317579 0.471632 0.131516 0.114004
H34   H     H_    0.224610 0.011092 0.893358 0.127708
H35   H     H_    0.746408 0.616419 0.945656 0.129745
H36   H     H_    0.194114 0.563698 0.833333 0.164074
H37   H     H_    0.810562 0.350542 0.152954 0.150710
H38   H     H_    0.939448 0.906238 0.049928 0.145858
H39   H     H_    0.069778 0.071238 0.869754 0.144121
H40   H     H_    0.718083 0.363929 0.300228 0.312073
H41   H     H_    0.282609 0.477895 0.693190 0.311159
H42   H     H_    0.540473 0.267006 0.549836 0.152083
H43   H     H_    0.519491 0.406930 0.643833 0.241706
H44   H     H_    0.490689 0.340645 0.711057 0.266568
H45   H     H_    0.442357 0.489234 0.409945 0.098448
H46   H     H_    0.395957 0.291497 0.593203 0.255912
H47   H     H_    0.284490 0.772921 0.487280 0.146633
H48   H     H_    0.103510 0.702334 0.456261 0.248537
H49   H     H_    0.086763 0.789957 0.409235 0.264463
H50   H     H_    0.161996 0.840775 0.532638 0.249458
H51   H     H_    0.199524 0.277464 0.248807 0.158190
H52   H     H_    0.277733 0.161670 0.230814 0.248408
H53   H     H_    0.149960 0.051531 0.175151 0.270864
H54   H     H_    0.203993 0.141112 0.296799 0.243040
H55   H     H_    0.863728 0.646101 0.702804 0.167936
H56   H     H_    0.617846 0.723257 0.749695 0.103487
H57   H     H_    0.744478 0.717980 0.681352 0.244171
H58   H     H_    0.822785 0.749019 0.621284 0.260331
H59   H     H_    0.851484 0.846744 0.733401 0.259948
H60   H     H_    0.818139 0.048571 0.892446 0.304202
H61   H     H_    0.227398 0.817920 0.029047 0.304424
H62   H     H_    0.453375 0.653192 0.403124 0.104770
H63   H     H_    0.486685 0.552328 0.718956 0.105894
H64   H     H_    0.499050 0.694762 0.286411 0.116065
N1    N     N_R   0.055660 0.348550 0.045620 -0.068691
N2    N     N_R   0.185200 0.638170 0.176300 -0.042042
N3    N     N_R   0.201680 0.494570 0.045620 -0.038194
N4    N     N_R   0.798320 0.505430 0.954380 -0.038697
N5    N     N_R   0.068420 0.560530 0.871650 -0.059312
N6    N     N_R   0.931580 0.439470 0.128350 -0.058691
N7    N     N_R   0.948070 0.295860 0.997670 -0.073712
N8    N     N_R   0.051930 0.704140 0.002330 -0.099164
N9    N     N_2   0.529573 0.265668 0.606842 -0.124194
N10   N     N_2   0.236795 0.795272 0.449565 -0.126110
N11   N     N_2   0.151426 0.198866 0.204774 -0.112964
N12   N     N_R   0.944340 0.651450 0.954380 -0.057277
N13   N     N_2   0.894315 0.726597 0.734642 -0.119722
N14   N     N_R   0.960830 0.507850 0.823700 -0.041529
N15   N     N_R   0.039170 0.492150 0.176300 -0.041468
N16   N     N_R   0.811290 0.303410 0.871650 -0.042926
N17   N     N_R   0.188710 0.696590 0.128350 -0.049718
N18   N     N_R   0.205200 0.552990 0.997670 -0.045005
N19   N     N_R   0.794800 0.447010 0.002330 -0.045205
N20   N     N_R   0.814800 0.361830 0.823700 -0.046848
Ni1   Ni    Ni4+2 0.119340 0.493420 0.109960 0.204907
Ni2   Ni    Ni4+2 0.880660 0.506580 0.890040 0.207660
Ni3   Ni    Ni4+2 0.872590 0.372590 0.000000 0.238032
Ni4   Ni    Ni4+2 0.127410 0.627410 0.000000 0.207978
O1    O     O_3   0.778899 0.388711 0.286065 -0.800991
O2    O     O_3   0.222365 0.463878 0.709550 -0.789583
O3    O     O_3   0.817545 0.117379 0.915950 -0.804953
O4    O     O_3   0.184704 0.852934 0.011326 -0.776486

loop_
_geom_bond_atom_site_label_1
_geom_bond_atom_site_label_2
_ccdc_geom_bond_type
C83   H59   S    
C12   C79   A    
N18   Ni4   S    
C27   C29   A    
C1    C77   A    
C65   H30   S    
C14   C18   A    
C10   H24   S    
C70   N2    A    
C76   C79   A    
C25   H45   S    
C8    H34   S    
C81   H50   S    
C2    H39   S    
C15   C19   A    
C6    C66   S    
N1    Ni1   S    
C19   C21   A    
C24   C26   A    
C38   C42   A    
C82   H53   S    
C26   H56   S    
C11   C14   A    
C17   H15   S    
C57   C59   A    
N2    Ni1   S    
C61   H26   S    
C84   H38   S    
C49   C54   A    
C20   H3    S    
C14   H64   S    
H55   N13   S    
C49   C57   A    
C74   N6    A    
C60   C62   A    
C37   C42   A    
C61   C63   A    
C64   H29   S    
C72   C78   A    
C60   H25   S    
C17   N15   A    
C55   N10   S    
C71   N3    A    
C29   C78   S    
C72   N4    A    
C41   H28   S    
C41   N17   A    
C38   H11   S    
C64   N18   A    
C27   H7    S    
C10   C35   A    
C81   N10   S    
C18   C20   A    
C30   C67   S    
C44   C47   A    
N17   Ni4   S    
N20   Ni2   S    
C83   N13   S    
C21   H4    S    
C19   C31   S    
C73   H36   S    
C9    C33   A    
C7    C33   A    
C23   C73   A    
C5    C68   S    
H41   O2    S    
N5    Ni4   S    
C52   C54   A    
C40   H27   S    
C1    H1    S    
C40   C45   A    
C46   C48   A    
C50   C53   A    
H51   N11   S    
C71   H33   S    
C45   C69   A    
C64   C67   A    
N6    N15   A    
N8    N12   A    
C76   O4    S    
C6    C84   A    
C4    C6    A    
C42   O2    S    
C83   H57   S    
C62   C66   A    
C81   H48   S    
N19   Ni3   S    
H40   O1    S    
C80   H44   S    
C39   H13   S    
C16   N14   A    
C51   H20   S    
C23   C37   S    
N2    N17   A    
C75   O3    S    
C22   C25   A    
C50   C56   S    
C51   C53   A    
C8    C35   A    
H47   N10   S    
C2    C4    A    
C41   C56   A    
C75   N7    A    
N4    Ni2   S    
C47   C48   A    
N14   Ni2   S    
H61   O4    S    
C45   C49   S    
C21   C24   A    
C28   H8    S    
C12   N12   A    
C1    N1    A    
C75   C77   A    
C3    C79   S    
N1    N7    A    
C52   C58   A    
C34   C74   A    
C15   H2    S    
N16   N20   A    
C80   H46   S    
C20   C22   A    
C52   H21   S    
C8    C68   A    
C16   C23   A    
C56   C70   A    
C13   C15   A    
C7    H23   S    
C13   C26   A    
C58   C59   A    
C10   C61   A    
C18   C32   S    
C17   C34   A    
C13   H63   S    
C3    C5    A    
N4    N19   A    
C39   C47   A    
H42   N9    S    
C63   N13   S    
C57   N9    S    
C63   C68   A    
C69   H31   S    
N12   Ni2   S    
C65   C78   A    
C76   N8    A    
C27   C32   A    
C38   C48   A    
C81   H49   S    
C54   H18   S    
C28   C31   A    
C72   H35   S    
C35   H17   S    
C24   H6    S    
C83   H58   S    
C39   C43   A    
C11   H62   S    
C40   N16   A    
C80   H43   S    
N3    N18   A    
C65   N19   A    
C50   C55   A    
N3    Ni1   S    
N5    N14   A    
C33   H16   S    
C70   H32   S    
C9    C60   A    
C37   C44   A    
C28   C30   A    
C9    H22   S    
C69   N20   A    
C4    C77   S    
C82   H54   S    
C7    C66   A    
C30   C32   A    
C82   N11   S    
C43   O1    S    
C16   H14   S    
C80   N9    S    
C46   H9    S    
C53   H19   S    
H60   O3    S    
C22   H5    S    
N8    Ni4   S    
N6    Ni3   S    
C67   C71   A    
C82   H52   S    
N15   Ni1   S    
C44   H10   S    
C2    C5    A    
N7    Ni3   S    
C36   C46   A    
C74   H37   S    
C51   C59   A    
C34   C36   S    
C29   C31   A    
C55   C58   A    
C73   N5    A    
C3    C84   A    
C11   C25   A    
C62   N11   S    
C12   H12   S    
C36   C43   A    
N16   Ni3   S    
