data_mof_unit_43901.cif
_audit_creation_date              2012-12-11T15:44:57-0500
_audit_creation_method            fapswitch 2.2
_symmetry_space_group_name_H-M    P1
_symmetry_Int_Tables_number       1
_space_group_crystal_system       triclinic
_cell_length_a                    6.929846
_cell_length_b                    16.850855
_cell_length_c                    17.097175
_cell_angle_alpha                 100.532813
_cell_angle_beta                  88.408276
_cell_angle_gamma                 91.335941
_cell_volume                      1961.76705689

loop_
_atom_site_label
_atom_site_type_symbol
_atom_type_description
_atom_site_fract_x
_atom_site_fract_y
_atom_site_fract_z
_atom_type_partial_charge
O1    O     O_R   0.494370 0.415690 0.413450 -0.541017
O2    O     O_R   0.819420 0.429360 0.578420 -0.544880
O3    O     O_R   0.994280 0.584310 0.586550 -0.544277
C1    C     C_R   0.647087 0.413887 0.605002 0.690791
O4    O     O_R   0.823790 0.406230 0.413570 -0.544986
O5    O     O_R   0.998670 0.561000 0.420530 -0.513382
C2    C     C_R   0.655514 0.383518 0.384752 0.700710
O6    O     O_R   0.489970 0.439000 0.579470 -0.544098
O7    O     O_3   0.662300 0.550810 0.502470 -0.343438
V1    V     V_3+5 0.935380 0.490570 0.499540 1.451891
O8    O     O_R   0.328650 0.570640 0.421580 -0.525599
C3    C     C_R   0.162783 0.587964 0.396064 0.704832
O9    O     O_R   0.324290 0.593770 0.586430 -0.545687
C4    C     C_R   0.154900 0.616901 0.615045 0.707443
V2    V     V_3+5 0.435930 0.509430 0.500460 1.469613
O10   O     O_3   0.159140 0.449190 0.497530 -0.377466
C5    C     C_R   0.309577 0.729995 0.711425 -0.137227
H1    H     H_    0.448920 0.716197 0.682501 0.149748
C6    C     C_R   0.297765 0.793854 0.776440 -0.191724
H2    H     H_    0.428216 0.827700 0.795254 0.204706
C7    C     C_R   0.120126 0.814261 0.816164 -0.173514
C8    C     C_R   0.953841 0.768759 0.788721 0.619006
C9    C     C_R   0.965918 0.705413 0.723326 -0.227280
H3    H     H_    0.835320 0.671743 0.704118 0.146598
C10   C     C_R   0.143581 0.685090 0.683852 -0.141738
C11   C     C_R   0.166271 0.642443 0.335858 -0.103385
C12   C     C_R   0.094418 0.863019 0.168279 -0.309550
C13   C     C_R   0.913149 0.816853 0.276469 -0.252296
C14   C     C_R   0.934855 0.868699 0.221775 0.579735
C15   C     C_R   0.235270 0.804995 0.172376 0.519629
C16   C     C_R   0.212536 0.751567 0.227283 0.015421
C17   C     C_R   0.049565 0.757017 0.279997 -0.077874
C18   C     C_R   0.025614 0.702280 0.334286 -0.001042
C19   C     C_R   0.325680 0.638440 0.282587 -0.167630
C20   C     C_R   0.348774 0.691909 0.229428 -0.081991
H4    H     H_    0.434979 0.593443 0.282270 0.157921
H5    H     H_    0.786285 0.823628 0.315298 0.164426
H6    H     H_    0.474585 0.686315 0.189893 0.179767
C21   C     C_R   0.622496 0.363448 0.667374 -0.059780
C22   C     C_R   0.640240 0.144445 0.838473 -0.134995
C23   C     C_R   0.835131 0.185769 0.731171 -0.138469
C24   C     C_R   0.800817 0.134616 0.785698 -0.096211
C25   C     C_R   0.510300 0.208004 0.835651 -0.081304
C26   C     C_R   0.546287 0.260679 0.779928 0.120430
C27   C     C_R   0.710322 0.248915 0.727669 0.125682
C28   C     C_R   0.748111 0.300546 0.672418 -0.219027
C29   C     C_R   0.462824 0.375920 0.720164 -0.175258
C30   C     C_R   0.426501 0.326350 0.776103 -0.151383
H7    H     H_    0.871978 0.290377 0.631936 0.120369
H8    H     H_    0.364953 0.424748 0.718373 0.130735
H9    H     H_    0.960991 0.176063 0.691779 0.123638
H10   H     H_    0.303555 0.340666 0.815953 0.168442
H11   H     H_    0.901564 0.086572 0.786491 0.130700
C31   C     C_R   0.787654 0.257588 0.299640 -0.155800
H12   H     H_    0.909289 0.260081 0.338508 0.126807
C32   C     C_R   0.772760 0.193712 0.234791 -0.079971
H13   H     H_    0.883535 0.148439 0.225841 0.167683
C33   C     C_R   0.616447 0.187282 0.182811 -0.094845
C34   C     C_R   0.473680 0.248081 0.197668 0.005152
C35   C     C_R   0.490068 0.311359 0.263252 -0.200677
H14   H     H_    0.380982 0.357498 0.273535 0.114774
C36   C     C_R   0.644983 0.316457 0.315153 -0.063872
O11   O     O_R   0.774880 0.061150 0.920630 -0.543064
O12   O     O_R   0.440980 0.093710 0.086500 -0.523863
O13   O     O_R   0.266190 0.938890 0.079390 -0.509505
C37   C     C_R   0.608916 0.117939 0.114314 0.708695
O14   O     O_R   0.445420 0.070740 0.921670 -0.554106
O15   O     O_R   0.270660 0.915760 0.913380 -0.549095
C38   C     C_R   0.617753 0.088722 0.897015 0.646680
O16   O     O_R   0.770400 0.084270 0.086640 -0.530359
O17   O     O_3   0.602590 0.949210 0.997500 -0.337008
V3    V     V_3+5 0.329470 0.009420 0.000470 1.580462
O18   O     O_R   0.940650 0.906250 0.913470 -0.510728
C39   C     C_R   0.109861 0.882904 0.884929 0.713360
O19   O     O_R   0.936210 0.929220 0.078300 -0.510526
C40   C     C_R   0.101251 0.913825 0.105314 0.827716
V4    V     V_3+5 0.828930 0.990510 0.999490 1.640411
O20   O     O_3   0.105680 0.050790 0.002500 -0.370328
F1    F     F_    0.389447 0.798114 0.120821 -0.658011
C41   C     C_2   0.345107 0.221015 0.893505 0.364498
H15   H     H_    0.368455 0.221938 0.956172 0.046354
O21   O     O_2   0.181102 0.227060 0.871307 -0.537600
C42   C     C_2   0.310487 0.251738 0.144784 0.332909
H16   H     H_    0.298701 0.303295 0.115475 0.035503
O22   O     O_2   0.181213 0.200758 0.138174 -0.520010
F2    F     F_    0.779087 0.784413 0.825341 -0.699725
C43   C     C_2   0.859687 0.711054 0.391394 0.354447
H17   H     H_    0.848462 0.764898 0.436929 0.027686
O23   O     O_2   0.729918 0.660292 0.385037 -0.514892
F3    F     F_    0.797891 0.925012 0.221462 -0.664880

loop_
_geom_bond_atom_site_label_1
_geom_bond_atom_site_label_2
_ccdc_geom_bond_type
C43   H17   S    
C8    F2    S    
C12   C14   A    
C23   C24   A    
C6    H2    S    
C1    O6    A    
V4    O20   S    
C28   H7    S    
O13   C40   A    
C42   H16   S    
C13   C14   A    
C6    C7    A    
C34   C42   S    
C19   C20   A    
C24   H11   S    
O5    C3    A    
C15   C16   A    
O15   C39   A    
V2    O10   S    
C32   H13   S    
C35   C36   A    
O14   V3    S    
O18   C39   A    
V3    O20   S    
O8    V2    S    
C33   C37   S    
C22   C25   A    
C29   C30   A    
C18   C43   S    
C9    H3    S    
O1    V2    S    
O7    V1    S    
C22   C24   A    
C34   C35   A    
O9    C4    A    
C12   C15   A    
O4    V1    S    
C14   F3    S    
C11   C19   A    
C29   H8    S    
C31   C32   A    
C22   C38   S    
O11   C38   A    
C13   C17   A    
C20   H6    S    
C41   O21   D    
O4    C2    A    
C31   C36   A    
C33   C34   A    
C27   C28   A    
C7    C39   S    
C3    C11   S    
C35   H14   S    
O14   C38   A    
O12   C37   A    
O2    C1    A    
O19   C40   A    
C2    C36   S    
C11   C18   A    
C16   C17   A    
C1    C21   S    
O15   V3    S    
C5    H1    S    
O19   V4    S    
O3    C4    A    
C21   C28   A    
C15   F1    S    
C42   O22   D    
O6    V2    S    
O9    V2    S    
C25   C26   A    
C16   C20   A    
C12   C40   S    
O2    V1    S    
O17   V4    S    
C26   C27   A    
C21   C29   A    
O11   V4    S    
C31   H12   S    
C23   C27   A    
O1    C2    A    
C41   H15   S    
O5    V1    S    
O8    C3    A    
O13   V3    S    
C5    C10   A    
C17   C18   A    
C43   O23   D    
C25   C41   S    
O17   V3    S    
O3    V1    S    
V1    O10   S    
C37   O16   A    
C13   H5    S    
C5    C6    A    
C32   C33   A    
C19   H4    S    
O12   V3    S    
C4    C10   S    
O7    V2    S    
C30   H10   S    
C9    C10   A    
O18   V4    S    
C8    C9    A    
C7    C8    A    
C23   H9    S    
C26   C30   A    
O16   V4    S    
