data_mof_unit_20630.cif
_audit_creation_date              2012-10-26T20:03:01-0400
_audit_creation_method            fapswitch 2.2
_symmetry_space_group_name_H-M    P1
_symmetry_Int_Tables_number       1
_space_group_crystal_system       triclinic
_cell_length_a                    10.733299
_cell_length_b                    12.321207
_cell_length_c                    13.257172
_cell_angle_alpha                 116.814747
_cell_angle_beta                  77.35947
_cell_angle_gamma                 101.056879
_cell_volume                      1518.03064677

loop_
_atom_site_label
_atom_site_type_symbol
_atom_type_description
_atom_site_fract_x
_atom_site_fract_y
_atom_site_fract_z
_atom_type_partial_charge
C1    C     C_R   0.512994 0.855080 0.286500 0.545960
C2    C     C_R   0.489862 0.567149 0.011003 0.033107
C3    C     C_R   0.537349 0.655524 0.112282 0.004484
C4    C     C_R   0.739826 0.000039 0.500545 0.550305
C5    C     C_R   0.511366 0.442641 0.970492 0.033528
C6    C     C_R   0.580450 0.410508 0.031056 0.036241
C7    C     C_R   0.641125 0.501407 0.119685 -0.122703
C8    C     C_R   0.622267 0.622738 0.158203 -0.120234
C9    C     C_R   0.469459 0.349145 0.870606 -0.148599
C10   C     C_R   0.547253 0.195686 0.901861 0.071391
C11   C     C_R   0.500276 0.775335 0.165277 0.041986
C12   C     C_3   0.122639 0.002534 0.501363 0.028467
C13   C     C_R   0.721709 0.356770 0.347036 0.335620
C14   C     C_R   0.321035 0.757824 0.640904 0.077743
C15   C     C_R   0.280778 0.660500 0.672042 0.068309
C16   C     C_R   0.484781 0.145147 0.713150 0.559343
C17   C     C_R   0.349700 0.558410 0.619980 -0.084334
C18   C     C_R   0.459322 0.552758 0.537434 -0.022919
C19   C     C_R   0.496689 0.655187 0.510246 0.183868
C20   C     C_R   0.533457 0.449835 0.480650 -0.058997
C21   C     C_R   0.647507 0.455767 0.404533 0.045950
C22   C     C_R   0.685392 0.559737 0.385058 -0.164730
C23   C     C_3   0.046953 0.019803 0.620487 -0.158717
C24   C     C_R   0.607762 0.653450 0.431624 -0.108425
C25   C     C_R   0.500170 0.340667 0.495651 0.025855
C26   C     C_R   0.682835 0.252099 0.365029 0.084600
C27   C     C_R   0.260414 0.000698 0.500071 0.559827
C28   C     C_3   0.958967 0.105708 0.473218 -0.166959
C29   C     C_3   0.101697 0.108383 0.475352 0.242925
C30   C     C_3   0.901134 0.023809 0.625227 0.201557
C31   C     C_3   0.926559 0.879407 0.409731 -0.292576
C32   C     C_3   0.877988 0.001764 0.503348 0.065459
C33   C     C_3   0.070015 0.879319 0.409882 -0.302385
C34   C     C_R   0.592537 0.287810 0.999842 -0.123011
C35   C     C_R   0.493542 0.228169 0.832893 0.037159
C36   C     C_R   0.432140 0.811984 0.107982 0.083085
C37   C     C_R   0.396600 0.728049 0.002519 -0.127055
C38   C     C_R   0.421509 0.606815 0.955992 -0.129815
Cu1   Cu    Cu3+1 0.529690 0.098270 0.475420 0.964473
Cu2   Cu    Cu3+1 0.470310 0.901730 0.524580 0.950746
F1    F     F_    0.830770 0.361015 0.273551 -0.665300
F2    F     F_    0.144718 0.220865 0.557183 -0.648433
H1    H     H_    0.925525 0.196280 0.533952 0.208605
H2    H     H_    0.675810 0.691567 0.223248 0.093278
H3    H     H_    0.740023 0.175788 0.322154 0.142011
H4    H     H_    0.773998 0.567443 0.329799 0.159514
H5    H     H_    0.416278 0.328708 0.552912 0.170097
H6    H     H_    0.268392 0.837205 0.680606 0.122505
H7    H     H_    0.316310 0.485851 0.646865 0.148725
H8    H     H_    0.637354 0.722687 0.402572 0.169292
H9    H     H_    0.156949 0.098028 0.390518 0.137303
H10   H     H_    0.088170 0.105206 0.687344 0.167906
H11   H     H_    0.870553 0.799588 0.422083 0.132745
H12   H     H_    0.082127 0.802020 0.427455 0.157404
H13   H     H_    0.912974 0.867197 0.324188 0.107305
H14   H     H_    0.124850 0.863922 0.323757 0.118326
H15   H     H_    0.838296 0.949550 0.742145 0.211862
H16   H     H_    0.855080 0.844306 0.606901 0.223842
H17   H     H_    0.660330 0.065351 0.865615 0.230341
H18   H     H_    0.511630 0.046756 0.934067 0.222997
H19   H     H_    0.431025 0.973277 0.102964 0.225459
H20   H     H_    0.293065 0.925378 0.168497 0.214002
H21   H     H_    0.131922 0.747318 0.790043 0.214538
H22   H     H_    0.100726 0.595677 0.716503 0.254465
H23   H     H_    0.061052 0.944136 0.639573 0.086217
H24   H     H_    0.766697 0.147399 0.717240 0.254740
H25   H     H_    0.881601 0.160682 0.790741 0.224668
H26   H     H_    0.705105 0.477811 0.157408 0.141638
H27   H     H_    0.640982 0.263624 0.049415 0.132248
H28   H     H_    0.423689 0.368194 0.816551 0.117073
H29   H     H_    0.385246 0.546882 0.877227 0.120400
H30   H     H_    0.343867 0.755804 0.958611 0.144650
H31   H     H_    0.946647 0.090830 0.386448 0.075827
N1    N     N_R   0.574690 0.246280 0.438200 -0.278946
N2    N     N_R   0.426100 0.754320 0.561190 -0.244910
N3    N     N_3   0.823660 0.930260 0.659998 -0.589377
N4    N     N_3   0.563428 0.070875 0.869288 -0.588813
N5    N     N_3   0.393221 0.932840 0.159170 -0.599514
N6    N     N_3   0.170818 0.664250 0.757161 -0.642514
N7    N     N_3   0.865174 0.145382 0.710192 -0.592127
O1    O     O_R   0.537340 0.972510 0.318130 -0.471144
O2    O     O_R   0.487200 0.806530 0.359650 -0.524043
O3    O     O_R   0.707380 0.082980 0.479220 -0.531682
O4    O     O_R   0.657240 0.917000 0.520740 -0.491356
O5    O     O_R   0.512800 0.193470 0.640350 -0.513596
O6    O     O_R   0.462660 0.027490 0.681870 -0.463081
O7    O     O_R   0.342760 0.083000 0.479260 -0.453191
O8    O     O_R   0.292620 0.917020 0.520780 -0.532481

loop_
_geom_bond_atom_site_label_1
_geom_bond_atom_site_label_2
_ccdc_geom_bond_type
C29   F2    S    
Cu2   O4    S    
C1    C11   S    
Cu1   O7    S    
H17   N4    S    
C13   F1    S    
H16   N3    S    
C7    C8    A    
H21   N6    S    
C12   C23   S    
C28   C29   S    
H15   N3    S    
C11   C36   A    
C18   C19   A    
C16   C35   S    
C5    C6    A    
C12   C29   S    
C20   C25   A    
C1    O1    A    
C25   N1    A    
Cu1   N1    S    
Cu2   O6    S    
C26   H3    S    
C7    H26   S    
C15   N6    S    
C31   C33   S    
C10   C35   A    
C25   H5    S    
C30   N7    S    
C33   H14   S    
C21   C22   A    
C16   O6    A    
C28   H31   S    
C10   N4    S    
C24   H8    S    
H18   N4    S    
C12   C27   S    
C23   C30   S    
Cu2   O2    S    
C28   C32   S    
C9    H28   S    
Cu1   O1    S    
C3    C8    A    
C17   H7    S    
Cu1   Cu2   S    
C14   H6    S    
C1    O2    A    
C6    C34   A    
C5    C9    A    
C37   C38   A    
C30   N3    S    
C2    C38   A    
C31   C32   S    
C4    O4    A    
H19   N5    S    
C17   C18   A    
C13   C21   A    
C10   C34   A    
C31   H11   S    
C27   O7    A    
C34   H27   S    
C4    C32   S    
C22   H4    S    
C16   O5    A    
H22   N6    S    
C22   C24   A    
C13   C26   A    
C2    C5    A    
Cu1   O5    S    
C29   H9    S    
C33   H12   S    
C15   C17   A    
C38   H29   S    
C36   C37   A    
H20   N5    S    
H25   N7    S    
C8    H2    S    
C6    C7    A    
H24   N7    S    
C28   H1    S    
Cu2   N2    S    
C14   N2    A    
Cu2   O8    S    
C19   N2    A    
C2    C3    A    
Cu1   O3    S    
C36   N5    S    
C30   C32   S    
C23   H23   S    
C23   H10   S    
C4    O3    A    
C26   N1    A    
C19   C24   A    
C18   C20   A    
C27   O8    A    
C3    C11   A    
C20   C21   A    
C37   H30   S    
C9    C35   A    
C14   C15   A    
C31   H13   S    
C12   C33   S    
