data_mof_unit_7561.cif
_audit_creation_date              2012-12-11T15:41:18-0500
_audit_creation_method            fapswitch 2.2
_symmetry_space_group_name_H-M    P1
_symmetry_Int_Tables_number       1
_space_group_crystal_system       triclinic
_cell_length_a                    19.064676
_cell_length_b                    10.976186
_cell_length_c                    18.80947
_cell_angle_alpha                 89.903632
_cell_angle_beta                  90.464375
_cell_angle_gamma                 90.092674
_cell_volume                      3935.88144272

loop_
_atom_site_label
_atom_site_type_symbol
_atom_type_description
_atom_site_fract_x
_atom_site_fract_y
_atom_site_fract_z
_atom_type_partial_charge
Br1   Br    Br    0.735637 0.137934 0.402726 -0.550110
Br2   Br    Br    0.057279 0.250895 0.571773 -0.606117
Br3   Br    Br    0.380850 0.665392 0.395669 -0.544264
Br4   Br    Br    0.564422 0.734157 0.581722 -0.607615
C1    C     C_R   0.725120 0.960523 0.855661 0.543866
C2    C     C_R   0.303231 0.471597 0.038758 0.006941
C3    C     C_R   0.774617 0.810975 0.360941 0.580120
C4    C     C_2   0.497985 0.167739 0.921588 -0.136363
C5    C     C_2   0.502000 0.169847 0.078343 -0.100290
C6    C     C_2   0.997992 0.667757 0.921588 -0.135997
C7    C     C_2   0.002005 0.669839 0.078343 -0.102390
C8    C     C_2   0.501075 0.064748 0.040924 0.257063
C9    C     C_2   0.501212 0.063543 0.960727 0.238543
C10   C     C_2   0.001061 0.564747 0.040918 0.257483
C11   C     C_2   0.001202 0.563560 0.960720 0.239006
C12   C     C_R   0.749165 0.414774 0.077692 0.018573
C13   C     C_R   0.208416 0.982273 0.961549 0.000357
C14   C     C_R   0.236397 0.438869 0.930995 0.011049
C15   C     C_R   0.249175 0.914794 0.077685 0.015847
C16   C     C_R   0.736411 0.938828 0.930987 0.010650
C17   C     C_3   0.457709 0.871640 0.064111 -0.065348
C18   C     C_3   0.446688 0.919485 0.891731 -0.105153
C19   C     C_3   0.957666 0.371619 0.064021 -0.067019
C20   C     C_3   0.946552 0.419612 0.891732 -0.105077
C21   C     C_R   0.803230 0.971598 0.038755 0.005698
C22   C     C_R   0.782697 0.305067 0.972880 -0.169972
C23   C     C_R   0.183894 0.400480 0.045910 -0.138302
C24   C     C_R   0.282684 0.805051 0.972880 -0.169701
C25   C     C_R   0.683904 0.900423 0.045899 -0.137200
C26   C     C_R   0.783482 0.316931 0.046136 -0.176501
C27   C     C_R   0.178647 0.404173 0.972479 -0.140932
C28   C     C_R   0.283483 0.816937 0.046134 -0.178091
C29   C     C_R   0.271945 0.955086 0.147316 0.551045
C30   C     C_R   0.678669 0.904084 0.972467 -0.141474
C31   C     C_3   0.635578 0.528713 0.037928 -0.269151
C32   C     C_3   0.370932 0.449347 0.953299 -0.287697
C33   C     C_3   0.135604 0.028779 0.037917 -0.269811
C34   C     C_3   0.870939 0.949354 0.953302 -0.287173
C35   C     C_3   0.632253 0.512719 0.958017 -0.268427
C36   C     C_3   0.378518 0.435284 0.033222 -0.259431
C37   C     C_3   0.132276 0.012775 0.958007 -0.268392
C38   C     C_3   0.878520 0.935300 0.033225 -0.260756
C39   C     C_R   0.744214 0.386680 0.929621 0.012326
C40   C     C_R   0.225115 0.460537 0.855666 0.542962
C41   C     C_R   0.248693 0.422500 0.079397 0.013649
C42   C     C_R   0.244214 0.886679 0.929619 0.012697
C43   C     C_R   0.748693 0.922489 0.079393 0.014192
C44   C     C_R   0.512341 0.164463 0.418950 0.041465
C45   C     C_R   0.517492 0.172207 0.567296 0.012183
C46   C     C_R   0.000568 0.659916 0.424044 0.013215
C47   C     C_R   0.010978 0.672678 0.571122 0.012109
C48   C     C_R   0.540265 0.266410 0.453348 0.044782
C49   C     C_R   0.541730 0.269509 0.526058 0.035202
C50   C     C_R   0.039575 0.752849 0.455304 0.005628
C51   C     C_R   0.771942 0.455082 0.147317 0.551817
C52   C     C_R   0.042994 0.759411 0.527613 0.026944
C53   C     C_R   0.502723 0.062064 0.532797 -0.186628
C54   C     C_R   0.504966 0.056772 0.458528 -0.167555
C55   C     C_R   0.980896 0.569365 0.540377 -0.171522
C56   C     C_R   0.976147 0.562322 0.466645 -0.160362
C57   C     C_R   0.529573 0.177226 0.850697 0.551543
C58   C     C_R   0.471072 0.177588 0.149664 0.563898
C59   C     C_R   0.029568 0.677227 0.850693 0.551287
C60   C     C_R   0.971071 0.677587 0.149663 0.563581
C61   C     C_3   0.527525 0.401039 0.448563 -0.250290
C62   C     C_R   0.711864 0.497395 0.034664 0.031281
C63   C     C_3   0.526279 0.402374 0.529103 -0.239481
C64   C     C_3   0.037622 0.889033 0.447801 -0.263000
C65   C     C_3   0.037517 0.894979 0.528135 -0.233740
C66   C     C_R   0.756986 0.427290 0.426115 0.056359
C67   C     C_R   0.245608 0.404402 0.579213 0.003661
C68   C     C_R   0.264784 0.950945 0.430336 -0.000630
C69   C     C_R   0.751420 0.890356 0.582994 0.001322
C70   C     C_R   0.803122 0.350186 0.461351 0.030452
C71   C     C_R   0.192209 0.350155 0.538374 0.057521
C72   C     C_R   0.292265 0.844453 0.459169 0.070720
C73   C     C_R   0.296311 0.482641 0.965664 0.009912
C74   C     C_R   0.701654 0.821743 0.545039 0.066353
C75   C     C_R   0.801472 0.338713 0.533837 -0.002399
C76   C     C_R   0.197680 0.343048 0.466143 -0.027217
C77   C     C_R   0.283956 0.818369 0.529776 -0.003037
C78   C     C_R   0.710643 0.795376 0.474128 -0.020297
C79   C     C_R   0.710733 0.490507 0.540792 -0.160546
C80   C     C_R   0.316447 0.412380 0.473211 -0.127535
C81   C     C_R   0.215193 0.001068 0.545004 -0.174615
C82   C     C_R   0.826945 0.878891 0.478937 -0.127820
C83   C     C_R   0.712189 0.501250 0.466595 -0.158756
C84   C     C_R   0.211886 0.997426 0.034654 0.032175
C85   C     C_R   0.310357 0.426466 0.547060 -0.170144
C86   C     C_R   0.221927 0.025364 0.472423 -0.177175
C87   C     C_R   0.817163 0.909471 0.551205 -0.165468
C88   C     C_3   0.814874 0.217410 0.449696 0.024208
C89   C     C_3   0.115572 0.379060 0.532089 0.046791
C90   C     C_3   0.366197 0.800872 0.459476 0.048295
C91   C     C_3   0.625631 0.848519 0.533349 0.031625
C92   C     C_3   0.813660 0.204263 0.529753 -0.213756
C93   C     C_3   0.122600 0.370450 0.452076 -0.239042
C94   C     C_3   0.356577 0.767796 0.536678 -0.210961
C95   C     C_R   0.796314 0.982635 0.965660 0.010190
C96   C     C_3   0.635572 0.819565 0.455731 -0.225591
C97   C     C_R   0.752881 0.403438 0.574524 0.017340
C98   C     C_R   0.257217 0.382586 0.431280 0.025209
C99   C     C_R   0.249529 0.899996 0.574466 0.003555
C100  C     C_R   0.770910 0.830529 0.438184 0.035283
C101  C     C_R   0.736684 0.357013 0.855019 0.545203
C102  C     C_R   0.261669 0.364591 0.147604 0.551944
C103  C     C_R   0.236684 0.857014 0.855018 0.544223
C104  C     C_R   0.761667 0.864598 0.147608 0.565103
C105  C     C_R   0.728477 0.952207 0.648322 0.532267
C106  C     C_R   0.708398 0.482251 0.961557 0.000234
C107  C     C_R   0.285761 0.989987 0.360520 0.547535
C108  C     C_R   0.227580 0.454042 0.648052 0.541572
C109  C     C_R   0.772732 0.457305 0.353106 0.568196
C110  C     C_R   0.532207 0.176920 0.642731 0.536803
C111  C     C_R   0.472831 0.176031 0.353370 0.545658
C112  C     C_R   0.029892 0.676850 0.644697 0.535034
C113  C     C_R   0.970191 0.675339 0.354921 0.543270
C114  C     C_R   0.739474 0.360897 0.646072 0.547919
C115  C     C_R   0.262583 0.355839 0.356025 0.562718
C116  C     C_R   0.239600 0.862243 0.646840 0.549108
Cr1   Cr    Cr6+3 0.769260 0.163750 0.750730 1.013910
Cr2   Cr    Cr6+3 0.385810 0.322400 0.252290 1.044917
Cr3   Cr    Cr6+3 0.114190 0.822400 0.747710 1.030555
Cr4   Cr    Cr6+3 0.885810 0.822400 0.252290 1.021185
Cr5   Cr    Cr6+3 0.230740 0.163750 0.249270 1.017492
Cr6   Cr    Cr6+3 0.269260 0.663750 0.750730 1.015136
Cr7   Cr    Cr6+3 0.730740 0.663750 0.249270 1.027284
Cr8   Cr    Cr6+3 0.612640 0.009910 0.748780 1.070418
Cr9   Cr    Cr6+3 0.387360 0.009910 0.251220 1.061097
Cr10  Cr    Cr6+3 0.112640 0.509910 0.748780 1.068802
Cr11  Cr    Cr6+3 0.887360 0.509910 0.251220 1.029318
Cr12  Cr    Cr6+3 0.614190 0.322400 0.747710 1.035542
H1    H     H_    0.989090 0.926977 0.423978 0.159237
H2    H     H_    0.366427 0.427379 0.448993 0.169772
H3    H     H_    0.184881 0.061775 0.578038 0.171373
H4    H     H_    0.875907 0.901501 0.453876 0.133006
H5    H     H_    0.678388 0.566510 0.440751 0.137570
H6    H     H_    0.354247 0.460452 0.577971 0.126148
H7    H     H_    0.197111 0.105119 0.450068 0.159114
H8    H     H_    0.858412 0.956660 0.579883 0.124411
H9    H     H_    0.866945 0.197838 0.426171 0.146161
H10   H     H_    0.104204 0.472308 0.550970 0.162243
H11   H     H_    0.402961 0.876523 0.451956 0.131944
H12   H     H_    0.084372 0.939043 0.551348 0.185431
H13   H     H_    0.615058 0.945782 0.543441 0.164232
H14   H     H_    0.768124 0.151396 0.549597 0.181196
H15   H     H_    0.094511 0.291845 0.427814 0.175420
H16   H     H_    0.356408 0.668501 0.547049 0.179824
H17   H     H_    0.607016 0.736922 0.437535 0.169859
H18   H     H_    0.865368 0.178278 0.552863 0.144069
H19   H     H_    0.115115 0.459077 0.424346 0.128165
H20   H     H_    0.390577 0.821816 0.573215 0.145701
H21   H     H_    0.628790 0.900603 0.420803 0.176675
H22   H     H_    0.511942 0.256657 0.053039 0.035780
H23   H     H_    0.477052 0.428302 0.424520 0.187160
H24   H     H_    0.483639 0.253521 0.945427 0.039447
H25   H     H_    0.011969 0.756649 0.053047 0.035880
H26   H     H_    0.983680 0.753551 0.945434 0.039607
H27   H     H_    0.811169 0.229476 0.950318 0.148269
H28   H     H_    0.139471 0.366047 0.075320 0.185632
H29   H     H_    0.311143 0.729444 0.950320 0.148419
H30   H     H_    0.639483 0.865973 0.075304 0.186980
H31   H     H_    0.814412 0.253821 0.077709 0.129234
H32   H     H_    0.129667 0.376233 0.948379 0.204102
H33   H     H_    0.314410 0.753823 0.077708 0.130179
H34   H     H_    0.569486 0.455172 0.553500 0.190223
H35   H     H_    0.629702 0.876083 0.948363 0.204178
H36   H     H_    0.127102 0.124533 0.054929 0.147630
H37   H     H_    0.901669 0.026942 0.931615 0.135395
H38   H     H_    0.627061 0.624460 0.054945 0.148149
H39   H     H_    0.401666 0.526928 0.931612 0.135537
H40   H     H_    0.604389 0.459676 0.067417 0.139072
H41   H     H_    0.376113 0.362357 0.923647 0.133128
H42   H     H_    0.104405 0.959762 0.067409 0.137246
H43   H     H_    0.876129 0.862363 0.923653 0.133230
H44   H     H_    0.598979 0.434419 0.941204 0.162912
H45   H     H_    0.573211 0.449902 0.426069 0.153360
H46   H     H_    0.387528 0.339373 0.049714 0.149023
H47   H     H_    0.098990 0.934486 0.941199 0.162958
H48   H     H_    0.887536 0.839393 0.049720 0.149721
H49   H     H_    0.622344 0.599345 0.928942 0.143485
H50   H     H_    0.414483 0.503532 0.057588 0.136444
H51   H     H_    0.122379 0.099400 0.928928 0.142868
H52   H     H_    0.914479 0.003559 0.057592 0.134464
H53   H     H_    0.491014 0.980570 0.562931 0.163203
H54   H     H_    0.495441 0.971714 0.431765 0.145941
H55   H     H_    0.960618 0.496049 0.572953 0.165869
H56   H     H_    0.473621 0.421554 0.551133 0.145419
H57   H     H_    0.947662 0.486158 0.443850 0.158922
H58   H     H_    0.475664 0.805951 0.023421 0.137325
H59   H     H_    0.407621 0.915206 0.047787 0.122749
H60   H     H_    0.447528 0.818287 0.113075 0.148424
H61   H     H_    0.399219 0.939014 0.923707 0.093126
H62   H     H_    0.447435 0.820090 0.881212 0.132994
H63   H     H_    0.441933 0.966680 0.839725 0.144668
H64   H     H_    0.975697 0.305909 0.023378 0.137716
H65   H     H_    0.907607 0.415177 0.047594 0.124837
H66   H     H_    0.947399 0.318287 0.112973 0.142674
H67   H     H_    0.086720 0.925222 0.424249 0.156787
H68   H     H_    0.942085 0.466149 0.839500 0.145738
H69   H     H_    0.899047 0.440018 0.923492 0.093088
H70   H     H_    0.947014 0.320067 0.881658 0.132587
H71   H     H_    0.986885 0.927152 0.550157 0.148034
H72   H     H_    0.675080 0.545664 0.571262 0.172851
O1    O     O_R   0.784290 0.290360 0.830540 -0.540268
O2    O     O_R   0.456020 0.282110 0.333230 -0.522421
O3    O     O_R   0.043980 0.782110 0.666770 -0.515579
O4    O     O_R   0.956020 0.782110 0.333230 -0.535212
O5    O     O_R   0.679070 0.374030 0.674430 -0.494467
O6    O     O_R   0.320930 0.374030 0.325570 -0.476713
O7    O     O_R   0.179070 0.874030 0.674430 -0.497137
O8    O     O_R   0.820930 0.874030 0.325570 -0.471774
O9    O     O_3   0.665360 0.165350 0.749070 -0.262182
O10   O     O_3   0.334640 0.165350 0.250930 -0.282089
O11   O     O_3   0.165360 0.665350 0.749070 -0.261213
O12   O     O_R   0.215710 0.290360 0.169460 -0.522650
O13   O     O_3   0.834640 0.665350 0.250930 -0.286505
O14   O     O_R   0.762610 0.041070 0.825230 -0.502442
O15   O     O_R   0.237390 0.041070 0.174770 -0.494806
O16   O     O_R   0.262610 0.541070 0.825230 -0.503090
O17   O     O_R   0.737390 0.541070 0.174770 -0.495143
O18   O     O_R   0.667390 0.924160 0.829970 -0.504216
O19   O     O_R   0.332610 0.924160 0.170030 -0.524147
O20   O     O_R   0.167390 0.424160 0.829970 -0.505791
O21   O     O_R   0.832610 0.424160 0.170030 -0.529739
O22   O     O_R   0.553980 0.081420 0.821780 -0.453885
O23   O     O_R   0.284290 0.790360 0.830540 -0.541139
O24   O     O_R   0.446020 0.081420 0.178220 -0.450321
O25   O     O_R   0.053980 0.581420 0.821780 -0.454197
O26   O     O_R   0.946020 0.581420 0.178220 -0.449283
O27   O     O_R   0.543210 0.283170 0.826740 -0.530109
O28   O     O_R   0.456790 0.283170 0.173260 -0.531737
O29   O     O_R   0.043210 0.783170 0.826740 -0.530841
O30   O     O_R   0.956790 0.783170 0.173260 -0.535124
O31   O     O_R   0.678350 0.375000 0.822720 -0.494864
O32   O     O_R   0.321650 0.375000 0.177280 -0.493191
O33   O     O_R   0.178350 0.875000 0.822720 -0.495979
O34   O     O_R   0.715710 0.790360 0.169460 -0.515918
O35   O     O_R   0.821650 0.875000 0.177280 -0.493713
O36   O     O_R   0.785060 0.289300 0.670580 -0.515691
O37   O     O_R   0.214940 0.289300 0.329420 -0.529931
O38   O     O_R   0.285060 0.789300 0.670580 -0.517447
O39   O     O_R   0.714940 0.789300 0.329420 -0.504407
O40   O     O_R   0.763330 0.040090 0.676940 -0.513637
O41   O     O_R   0.236670 0.040090 0.323060 -0.507305
O42   O     O_R   0.263330 0.540090 0.676940 -0.505287
O43   O     O_R   0.736670 0.540090 0.323060 -0.529296
O44   O     O_R   0.668160 0.923110 0.670000 -0.476977
O45   O     O_R   0.554690 0.080440 0.673480 -0.498854
O46   O     O_R   0.331840 0.923110 0.330000 -0.469803
O47   O     O_R   0.168160 0.423110 0.670000 -0.484267
O48   O     O_R   0.831840 0.423110 0.330000 -0.509239
O49   O     O_3   0.510812 0.957187 0.079129 -0.549847
O50   O     O_3   0.509730 0.951858 0.927367 -0.559629
O51   O     O_3   0.010745 0.457169 0.079121 -0.552367
O52   O     O_3   0.009630 0.451865 0.927345 -0.559874
O53   O     O_R   0.445310 0.080440 0.326520 -0.516982
O54   O     O_R   0.054690 0.580440 0.673480 -0.500036
O55   O     O_R   0.945310 0.580440 0.326520 -0.515296
O56   O     O_R   0.543980 0.282110 0.666770 -0.514255

loop_
_geom_bond_atom_site_label_1
_geom_bond_atom_site_label_2
_ccdc_geom_bond_type
C96   H21   S    
Cr1   O40   S    
C79   C83   A    
C4    C9    D    
C2    C41   A    
Cr3   O11   S    
C76   C93   S    
C54   H54   S    
C46   C113  S    
C80   C98   A    
Cr1   O14   S    
Cr2   O2    S    
C33   C84   S    
Cr5   O41   S    
C99   C116  S    
C91   H13   S    
Cr1   O1    S    
Cr9   O19   S    
C113  O4    A    
C82   C100  A    
Cr2   O32   S    
C15   C84   A    
Cr5   O12   S    
Cr12  O56   S    
C1    C16   S    
C94   H20   S    
Cr10  O47   S    
C63   H56   S    
C107  O46   A    
C108  O42   A    
C103  O33   A    
C19   H66   S    
C20   H70   S    
C82   C87   A    
C46   C50   A    
C109  O48   A    
C102  O32   A    
C25   C43   A    
C114  O5    A    
C90   H11   S    
C34   C95   S    
C57   O22   A    
C64   H1    S    
C34   C38   S    
C44   C48   A    
Cr9   O53   S    
C6    C11   D    
C14   C73   A    
C113  O55   A    
C7    C10   D    
C45   C49   A    
C17   H59   S    
Cr6   O42   S    
C77   C94   S    
C90   C94   S    
C12   C26   A    
C13   C84   A    
C88   C92   S    
C45   C53   A    
C47   C52   A    
C39   C101  S    
C70   C88   S    
Cr9   O10   S    
C20   O52   S    
Cr11  O21   S    
C72   C90   S    
C33   H42   S    
Cr3   O29   S    
C21   C95   A    
C35   C106  S    
C10   O51   S    
C6    C59   S    
C105  O44   A    
C38   H48   S    
C64   C65   S    
C61   C63   S    
C40   O16   A    
C19   H64   S    
C66   C70   A    
C69   C74   A    
Cr2   O6    S    
C18   H61   S    
C55   H55   S    
C40   O20   A    
C39   C106  A    
C98   C115  S    
C87   H8    S    
C71   C76   A    
C21   C43   A    
C53   H53   S    
C81   C99   A    
Cr12  O31   S    
C68   C72   A    
Cr8   O9    S    
C59   O25   A    
Cr4   O30   S    
C23   C41   A    
C116  O7    A    
C45   C110  S    
C68   C107  S    
C32   H41   S    
C89   H10   S    
Cr10  O11   S    
C28   H33   S    
Cr4   O4    S    
C66   C83   A    
C31   H40   S    
C101  O31   A    
C94   H16   S    
C26   H31   S    
C83   H5    S    
C4    H24   S    
C15   C28   A    
C70   C75   A    
Cr10  O54   S    
Cr6   O16   S    
C22   C39   A    
C86   H7    S    
C33   H36   S    
C36   H50   S    
C11   O52   S    
C29   O15   A    
C66   C109  S    
C3    O8    A    
C81   C86   A    
C50   C52   A    
C20   H69   S    
C67   C71   A    
C23   C27   A    
C5    C58   S    
Cr8   O44   S    
C24   C28   A    
Cr7   O39   S    
C24   H29   S    
C69   C87   A    
C19   O51   S    
C7    C60   S    
C15   C29   S    
Cr8   O18   S    
Cr4   O35   S    
C91   C96   S    
C56   H57   S    
C17   H60   S    
Cr4   O8    S    
C105  O40   A    
C38   H52   S    
C23   H28   S    
C109  O43   A    
C110  O45   A    
C25   C30   A    
C47   C55   A    
Cr2   O10   S    
C103  O23   A    
C65   H12   S    
Cr6   O23   S    
Cr1   O9    S    
C72   C77   A    
C44   C54   A    
C31   C35   S    
C19   H65   S    
Cr6   O38   S    
C14   C40   S    
C59   O29   A    
Br4   C91   S    
C68   C86   A    
Cr5   O10   S    
C74   C78   A    
C1    O14   A    
C67   C85   A    
C104  O35   A    
C32   C36   S    
C74   C91   S    
C107  O41   A    
C92   H18   S    
C67   C108  S    
C93   H19   S    
Cr3   O3    S    
C22   H27   S    
C17   H58   S    
C116  O38   A    
C48   C49   A    
C62   C106  A    
Cr5   O37   S    
C88   H9    S    
C115  O37   A    
Cr7   O13   S    
C35   H49   S    
C12   C62   A    
C81   H3    S    
C44   C111  S    
C36   H46   S    
Cr5   O15   S    
Cr11  O26   S    
C82   H4    S    
C104  O34   A    
C5    H22   S    
C85   H6    S    
Br1   C88   S    
C58   O28   A    
C3    C100  S    
C64   H67   S    
C42   C103  S    
C111  O53   A    
Cr11  O55   S    
C18   H63   S    
Cr7   O43   S    
C80   C85   A    
C97   C114  S    
C3    O39   A    
C30   H35   S    
Cr12  O27   S    
C89   C93   S    
C112  O54   A    
C41   C102  S    
C71   C89   S    
C108  O47   A    
C77   C99   A    
C114  O36   A    
C43   C104  S    
C24   C42   A    
C27   H32   S    
C80   H2    S    
C115  O6    A    
C7    H25   S    
C8    O49   S    
C79   C97   A    
C34   H43   S    
C60   O30   A    
C78   C96   S    
C25   H30   S    
C37   H47   S    
Br2   C89   S    
C37   H51   S    
Cr12  O5    S    
C47   C112  S    
Cr3   O7    S    
C35   H44   S    
C2    C73   A    
C21   C38   S    
Cr11  O48   S    
C13   C42   A    
C101  O1    A    
Cr12  O9    S    
C96   H17   S    
Cr1   O36   S    
C102  O12   A    
C4    C57   S    
Cr8   O45   S    
C31   C62   S    
C51   O17   A    
C32   C73   S    
C46   C56   A    
C29   O19   A    
Cr10  O20   S    
C12   C51   S    
C16   C30   A    
C75   C92   S    
C61   H23   S    
C60   O26   A    
C32   H39   S    
C51   O21   A    
C53   C54   A    
Cr10  O25   S    
C16   C95   A    
C61   H45   S    
C18   H62   S    
C93   H15   S    
C58   O24   A    
C9    O50   S    
Cr9   O24   S    
C57   O27   A    
C1    O18   A    
Br3   C90   S    
C2    C36   S    
C69   C105  S    
C33   C37   S    
C49   C63   S    
C5    C8    D    
C13   C37   S    
C18   O50   S    
C112  O3    A    
C79   H72   S    
Cr7   O17   S    
Cr6   O11   S    
C17   O49   S    
C34   H37   S    
C6    H26   S    
C55   C56   A    
C50   C64   S    
C8    C9    S    
C20   H68   S    
Cr7   O34   S    
Cr8   O22   S    
C52   C65   S    
Cr9   O46   S    
C111  O2    A    
C76   C98   A    
C92   H14   S    
C31   H38   S    
C78   C100  A    
C10   C11   S    
C75   C97   A    
C14   C27   A    
Cr11  O13   S    
C110  O56   A    
Cr2   O28   S    
C65   H71   S    
C48   C61   S    
C63   H34   S    
Cr3   O33   S    
C22   C26   A    
Cr4   O13   S    
