data_mof_unit_28034.cif
_audit_creation_date              2012-12-10T17:08:11-0500
_audit_creation_method            fapswitch 2.2
_symmetry_space_group_name_H-M    P1
_symmetry_Int_Tables_number       1
_space_group_crystal_system       triclinic
_cell_length_a                    23.456157
_cell_length_b                    11.033163
_cell_length_c                    10.157743
_cell_angle_alpha                 113.4805
_cell_angle_beta                  98.696668
_cell_angle_gamma                 93.649549
_cell_volume                      2361.0245149

loop_
_atom_site_label
_atom_site_type_symbol
_atom_type_description
_atom_site_fract_x
_atom_site_fract_y
_atom_site_fract_z
_atom_type_partial_charge
C1    C     C_R   0.496510 0.252813 0.437207 0.802157
C2    C     C_R   0.503510 0.747218 0.562761 0.805596
C3    C     C_R   0.242603 0.576977 0.579037 0.133919
C4    C     C_R   0.746527 0.400152 0.356541 0.115035
C5    C     C_R   0.302124 0.595118 0.574987 0.360095
C6    C     C_R   0.687694 0.398582 0.368108 0.334710
C7    C     C_R   0.328836 0.483519 0.496820 -0.350344
C8    C     C_R   0.671145 0.491152 0.495409 -0.370433
C9    C     C_R   0.297155 0.353891 0.440443 0.327315
C10   C     C_R   0.714873 0.576781 0.615523 0.340476
C11   C     C_R   0.238554 0.339209 0.450465 0.444754
C12   C     C_R   0.773683 0.565287 0.610766 0.436357
C13   C     C_R   0.207922 0.451847 0.489126 -0.015358
C14   C     C_R   0.789902 0.480073 0.479427 0.080094
C15   C     C_2   0.492520 0.107665 0.395751 -0.002917
C16   C     C_2   0.507459 0.892393 0.603961 -0.010864
C17   C     C_2   0.514190 0.062517 0.497315 0.174284
C18   C     C_2   0.485927 0.937348 0.502064 0.166777
C19   C     C_2   0.505594 0.511154 0.081128 0.314360
C20   C     C_2   0.494434 0.488716 0.918798 0.300310
C21   C     C_R   0.391532 0.498271 0.499534 0.785012
C22   C     C_R   0.608692 0.498767 0.499572 0.796399
C23   C     C_R   0.882683 0.581048 0.467164 0.579220
C24   C     C_R   0.106654 0.326312 0.386046 0.579278
C25   C     C_R   0.873898 0.362588 0.461410 0.557087
C26   C     C_R   0.121004 0.551918 0.436637 0.595933
C27   C     C_R   0.930566 0.347474 0.433321 -0.138097
C28   C     C_R   0.062332 0.565181 0.449255 -0.149775
C29   C     C_R   0.966528 0.460614 0.445019 -0.091611
C30   C     C_R   0.025684 0.452383 0.434895 -0.086366
C31   C     C_R   0.943069 0.581019 0.464891 -0.080697
C32   C     C_R   0.047864 0.329366 0.402075 -0.085375
C33   C     C_R   0.952179 0.223224 0.395925 0.425068
C34   C     C_R   0.040088 0.687741 0.477865 0.420012
C35   C     C_R   0.010902 0.214340 0.384038 0.080003
C36   C     C_R   0.980588 0.695801 0.482547 0.089424
Cu1   Cu    Cu3+1 0.509980 0.521810 0.644910 0.933350
Cu2   Cu    Cu3+1 0.490020 0.478190 0.355090 0.932694
N1    N     N_R   0.850521 0.474994 0.470428 -0.452981
N2    N     N_R   0.144487 0.442718 0.441545 -0.422678
N3    N     N_2   0.475010 0.445410 0.137370 -0.145969
N4    N     N_2   0.524990 0.554590 0.862630 -0.147428
O1    O     O_R   0.505330 0.332340 0.577400 -0.583390
O2    O     O_R   0.494670 0.667660 0.422600 -0.586457
O3    O     O_R   0.488470 0.295500 0.332650 -0.582794
O4    O     O_R   0.511530 0.704500 0.667350 -0.579472
O5    O     O_R   0.426310 0.518390 0.622390 -0.573816
O6    O     O_R   0.573690 0.481610 0.377610 -0.560226
O7    O     O_R   0.409450 0.481550 0.377650 -0.565099
O8    O     O_R   0.590550 0.518450 0.622350 -0.557142
O9    O     O_2   0.855626 0.684709 0.465540 -0.518098
O10   O     O_2   0.123050 0.211523 0.299170 -0.487348
O11   O     O_2   0.842139 0.266750 0.480759 -0.494044
O12   O     O_2   0.153569 0.643616 0.412757 -0.485737
O13   O     O_3   0.916057 0.107241 0.363139 -0.691302
H1    H     H_    0.880895 0.104761 0.293775 0.354706
O14   O     O_3   0.076218 0.802811 0.507424 -0.694889
H2    H     H_    0.109778 0.810607 0.583842 0.342253
C37   C     C_3   0.567367 0.673560 0.940519 -0.484902
H3    H     H_    0.582968 0.705603 0.860820 0.237955
H4    H     H_    0.547010 0.758850 0.008342 0.161465
H5    H     H_    0.607980 0.653846 0.994175 0.188369
C38   C     C_3   0.432679 0.326346 0.059509 -0.494951
H6    H     H_    0.416980 0.294459 0.139259 0.238311
H7    H     H_    0.392094 0.345880 0.005566 0.176135
H8    H     H_    0.453099 0.241074 0.991873 0.169503
C39   C     C_3   0.033504 0.082213 0.356677 -0.616275
H9    H     H_    0.002402 0.008644 0.367793 0.249070
H10   H     H_    0.042037 0.036315 0.243777 0.258105
H11   H     H_    0.073838 0.097561 0.437645 0.235208
C40   C     C_3   0.959365 0.830331 0.516840 -0.621271
H12   H     H_    0.994535 0.912958 0.543230 0.242224
H13   H     H_    0.928134 0.826401 0.421046 0.266029
H14   H     H_    0.938821 0.858707 0.614617 0.243398
C41   C     C_3   0.219214 0.687788 0.693334 -0.646443
H15   H     H_    0.218366 0.776090 0.666813 0.268080
H16   H     H_    0.175264 0.655761 0.705514 0.184201
H17   H     H_    0.247962 0.718053 0.801817 0.234562
C42   C     C_3   0.761715 0.313169 0.211790 -0.634304
H18   H     H_    0.808117 0.333054 0.207343 0.200784
H19   H     H_    0.751385 0.206505 0.190029 0.244868
H20   H     H_    0.735828 0.332110 0.122610 0.240097
O15   O     O_3   0.332382 0.722598 0.651704 -0.705063
H21   H     H_    0.372228 0.725885 0.631599 0.321067
O16   O     O_3   0.647456 0.305034 0.252408 -0.699369
H22   H     H_    0.615919 0.275228 0.291997 0.332941
O17   O     O_3   0.322423 0.238074 0.386642 -0.667777
H23   H     H_    0.363336 0.258164 0.380659 0.307980
O18   O     O_3   0.702160 0.673772 0.739896 -0.651716
H24   H     H_    0.666207 0.707420 0.712186 0.313585
O19   O     O_3   0.216931 0.219501 0.448840 -0.607776
H25   H     H_    0.190475 0.238934 0.520170 0.320070
O20   O     O_3   0.814132 0.643217 0.735676 -0.644032
H26   H     H_    0.852786 0.613477 0.726099 0.328827
C43   C     C_3   0.427036 0.867517 0.405061 -0.773522
H27   H     H_    0.398654 0.941852 0.396783 0.249243
H28   H     H_    0.432076 0.796920 0.295004 0.240704
H29   H     H_    0.403152 0.809590 0.452423 0.224083
C44   C     C_3   0.573254 0.132012 0.593512 -0.799301
H30   H     H_    0.601493 0.057517 0.602002 0.233157
H31   H     H_    0.597111 0.189198 0.545195 0.218487
H32   H     H_    0.568475 0.203160 0.703575 0.249807
C45   C     C_3   0.531315 0.985144 0.762300 -0.861417
H33   H     H_    0.513053 0.946916 0.835273 0.246781
H34   H     H_    0.579430 0.991691 0.786822 0.243145
H35   H     H_    0.517734 0.085427 0.790219 0.240840
C46   C     C_3   0.468802 0.015180 0.237241 -0.873848
H36   H     H_    0.486971 0.053911 0.164543 0.246361
H37   H     H_    0.482618 0.915084 0.208999 0.236738
H38   H     H_    0.420670 0.008199 0.212618 0.254529
C47   C     C_3   0.444102 0.384584 0.816936 -0.743559
H39   H     H_    0.451638 0.284331 0.808267 0.188698
H40   H     H_    0.402668 0.416788 0.848842 0.198541
H41   H     H_    0.435856 0.365418 0.703451 0.278078
C48   C     C_3   0.555931 0.615227 0.182943 -0.746728
H42   H     H_    0.597361 0.582990 0.151014 0.209353
H43   H     H_    0.548396 0.715495 0.191686 0.181472
H44   H     H_    0.564130 0.634401 0.296411 0.273433

loop_
_geom_bond_atom_site_label_1
_geom_bond_atom_site_label_2
_ccdc_geom_bond_type
C24   O10   S    
C22   O6    A    
O17   H23   S    
C38   H7    S    
C33   O13   S    
O20   H26   S    
C27   C29   A    
C43   H27   S    
O13   H1    S    
C1    O3    A    
C21   O7    A    
C43   H29   S    
Cu2   O7    S    
O16   H22   S    
C27   C33   A    
Cu1   Cu2   S    
C6    O16   S    
C25   O11   S    
C5    O15   S    
C48   H42   S    
C15   C17   D    
C15   C46   S    
Cu1   N4    S    
Cu2   O3    S    
C33   C35   A    
C14   N1    S    
C1    O1    A    
C44   H30   S    
C10   O18   S    
C2    O2    A    
C48   H43   S    
C34   O14   S    
C8    C22   S    
C46   H36   S    
C1    C15   S    
C35   C39   S    
Cu1   O5    S    
C2    C16   S    
Cu2   O6    S    
C3    C13   A    
C36   C40   S    
C22   O8    A    
C38   H8    S    
C28   C34   A    
C37   H3    S    
C18   C43   S    
C46   H37   S    
C47   H41   S    
C26   O12   S    
C37   H4    S    
C39   H9    S    
C32   C35   A    
Cu2   N3    S    
C45   H34   S    
O19   H25   S    
C5    C7    A    
C6    C8    A    
C7    C21   S    
C17   C44   S    
C2    O4    A    
C38   H6    S    
C39   H10   S    
C23   C31   A    
Cu1   O1    S    
C41   H15   S    
C24   C32   A    
Cu2   O2    S    
C29   C30   A    
C40   H14   S    
C20   C47   S    
C9    C11   A    
C16   C45   S    
C23   O9    S    
O15   H21   S    
C19   C48   S    
C48   H44   S    
C17   C18   S    
C47   H40   S    
C16   C18   D    
C41   H16   S    
C10   C12   A    
C4    C42   S    
C4    C6    A    
C44   H31   S    
C12   C14   A    
C46   H38   S    
C12   O20   S    
N3    C38   S    
C13   N2    S    
C3    C41   S    
C42   H19   S    
C7    C9    A    
C37   H5    S    
C47   H39   S    
C3    C5    A    
N4    C37   S    
C42   H20   S    
C20   N4    D    
C43   H28   S    
C25   C27   A    
C26   C28   A    
C39   H11   S    
C19   C20   S    
C28   C30   A    
O18   H24   S    
C40   H12   S    
C29   C31   A    
C25   N1    A    
C30   C32   A    
Cu1   O8    S    
C11   C13   A    
C26   N2    A    
O14   H2    S    
C23   N1    A    
C24   N2    A    
C45   H35   S    
C34   C36   A    
C4    C14   A    
C41   H17   S    
C42   H18   S    
C11   O19   S    
C44   H32   S    
C8    C10   A    
C40   H13   S    
C45   H33   S    
C31   C36   A    
Cu1   O4    S    
C9    O17   S    
C19   N3    D    
C21   O5    A    
