data_mof_unit_24024.cif
_audit_creation_date              2012-12-10T19:45:49-0500
_audit_creation_method            fapswitch 2.2
_symmetry_space_group_name_H-M    P1
_symmetry_Int_Tables_number       1
_space_group_crystal_system       triclinic
_cell_length_a                    10.808543
_cell_length_b                    14.703958
_cell_length_c                    14.781102
_cell_angle_alpha                 64.930019
_cell_angle_beta                  103.458145
_cell_angle_gamma                 102.866592
_cell_volume                      2048.77049721

loop_
_atom_site_label
_atom_site_type_symbol
_atom_type_description
_atom_site_fract_x
_atom_site_fract_y
_atom_site_fract_z
_atom_type_partial_charge
C1    C     C_R   0.481349 0.119741 0.312553 0.841596
C2    C     C_R   0.518639 0.880259 0.687446 0.841569
C3    C     C_R   0.870820 0.001055 0.496719 -0.048662
C4    C     C_R   0.129178 0.998978 0.503244 -0.048631
C5    C     C_R   0.906581 0.963808 0.434263 0.023323
C6    C     C_R   0.093418 0.036211 0.565710 0.023378
C7    C     C_R   0.469685 0.187788 0.205186 -0.042057
C8    C     C_R   0.530313 0.812219 0.794815 -0.042013
C9    C     C_R   0.389083 0.217461 0.029603 -0.198530
C10   C     C_R   0.610942 0.782543 0.970400 -0.198497
C11   C     C_R   0.401398 0.152101 0.131058 -0.291432
C12   C     C_R   0.598580 0.847910 0.868945 -0.291400
C13   C     C_R   0.525848 0.289845 0.176909 0.095991
C14   C     C_R   0.474206 0.710155 0.823086 0.095896
C15   C     C_R   0.488327 0.360152 0.077767 0.011536
C16   C     C_R   0.511776 0.639853 0.922219 0.011514
C17   C     C_R   0.431923 0.321881 0.001678 0.126768
C18   C     C_R   0.568149 0.678121 0.998315 0.126887
C19   C     C_R   0.507775 0.466663 0.051523 0.025498
C20   C     C_R   0.492351 0.533344 0.948463 0.025466
C21   C     C_R   0.464626 0.491866 0.874627 -0.262956
C22   C     C_R   0.535456 0.508137 0.125360 -0.262988
C23   C     C_R   0.262821 0.999381 0.501699 0.823230
C24   C     C_R   0.737176 0.000630 0.498285 0.823311
C25   C     C_R   0.424943 0.388213 0.899382 0.146686
C26   C     C_R   0.575081 0.611790 0.100607 0.146594
C27   C     C_R   0.704270 0.279559 0.675097 -0.325290
C28   C     C_R   0.295673 0.720415 0.324938 -0.325328
C29   C     C_R   0.674634 0.199898 0.642985 0.086282
C30   C     C_R   0.325328 0.800085 0.357039 0.086243
C31   C     C_R   0.521814 0.286992 0.506767 0.011324
C32   C     C_R   0.478207 0.713017 0.493218 0.011425
C33   C     C_R   0.548320 0.371396 0.534960 -0.030342
C34   C     C_R   0.451683 0.628606 0.465034 -0.030260
C35   C     C_R   0.640815 0.365044 0.622030 0.166501
C36   C     C_R   0.359155 0.634943 0.377987 0.166532
C37   C     C_R   0.485155 0.460004 0.481847 0.062227
C38   C     C_R   0.514851 0.539999 0.518145 0.062207
C39   C     C_R   0.606327 0.528550 0.606339 -0.256527
C40   C     C_R   0.393655 0.471444 0.393667 -0.256628
C41   C     C_R   0.668256 0.443165 0.656556 -0.188770
C42   C     C_R   0.331699 0.556815 0.343469 -0.188856
C43   C     C_R   0.351092 0.041213 0.788282 -0.166008
C44   C     C_R   0.648707 0.958417 0.211910 -0.165876
C45   C     C_R   0.254887 0.003317 0.725612 0.197911
C46   C     C_R   0.744907 0.996457 0.274473 0.198041
C47   C     C_R   0.188322 0.071934 0.637922 0.111616
C48   C     C_R   0.811676 0.927962 0.362137 0.111601
C49   C     C_R   0.216919 0.176337 0.615595 -0.192924
C50   C     C_R   0.783308 0.823543 0.384520 -0.193016
C51   C     C_R   0.312500 0.212777 0.678412 -0.123461
C52   C     C_R   0.687750 0.786963 0.321798 -0.123648
C53   C     C_R   0.379861 0.145479 0.764386 -0.133016
C54   C     C_R   0.620168 0.854135 0.235866 -0.133048
C55   C     C_R   0.964248 0.037648 0.561069 -0.264165
C56   C     C_R   0.035753 0.962379 0.438902 -0.264186
Cu1   Cu    Cu3+1 0.466270 0.918260 0.475690 0.951044
Cu2   Cu    Cu3+1 0.533730 0.081740 0.524310 0.951037
H1    H     H_    0.454771 0.174144 0.812430 0.156334
H2    H     H_    0.545271 0.825367 0.187897 0.156550
H3    H     H_    0.342909 0.186150 0.973689 0.163450
H4    H     H_    0.657103 0.813847 0.026323 0.163472
H5    H     H_    0.473834 0.539210 0.797011 0.144214
H6    H     H_    0.526212 0.460794 0.202968 0.144203
H7    H     H_    0.737944 0.437919 0.723882 0.143596
H8    H     H_    0.261976 0.562045 0.276166 0.143608
H9    H     H_    0.550480 0.716652 0.555796 0.120628
H10   H     H_    0.449573 0.283370 0.444167 0.120625
H11   H     H_    0.277915 0.866817 0.315206 0.114656
H12   H     H_    0.722027 0.133157 0.684830 0.114658
H13   H     H_    0.775307 0.273831 0.741788 0.133997
H14   H     H_    0.224604 0.726128 0.258268 0.134008
H15   H     H_    0.632122 0.584245 0.639294 0.133438
H16   H     H_    0.367839 0.415739 0.360722 0.133451
H17   H     H_    0.404246 0.990148 0.855324 0.124959
H18   H     H_    0.595380 0.009380 0.144903 0.124883
H19   H     H_    0.167266 0.229662 0.548084 0.138657
H20   H     H_    0.833133 0.770311 0.452001 0.138712
H21   H     H_    0.335507 0.293525 0.659257 0.151356
H22   H     H_    0.664933 0.706201 0.340995 0.151251
H23   H     H_    0.936481 0.065028 0.610010 0.149838
H24   H     H_    0.063523 0.934974 0.389982 0.149841
H25   H     H_    0.638976 0.927029 0.848794 0.161223
H26   H     H_    0.360961 0.072988 0.151213 0.161203
N1    N     N_R   0.584450 0.204570 0.560790 -0.172664
N2    N     N_R   0.415550 0.795430 0.439210 -0.172676
O1    O     O_R   0.455540 0.022090 0.338120 -0.594752
O2    O     O_R   0.544460 0.977910 0.661880 -0.594760
O3    O     O_R   0.512510 0.160150 0.379180 -0.583274
O4    O     O_R   0.487490 0.839850 0.620820 -0.583260
O5    O     O_R   0.291160 0.930970 0.479480 -0.585257
O6    O     O_R   0.708840 0.069030 0.520520 -0.585258
O7    O     O_R   0.348130 0.069020 0.520540 -0.578734
O8    O     O_R   0.651870 0.930980 0.479460 -0.578713
N3    N     N_3   0.225485 0.896218 0.749349 -0.596116
H27   H     H_    0.131591 0.873155 0.765492 0.208978
H28   H     H_    0.284854 0.856580 0.815147 0.223099
N4    N     N_3   0.774100 0.103575 0.250653 -0.596105
H29   H     H_    0.867977 0.126733 0.234472 0.208958
H30   H     H_    0.714670 0.143109 0.184842 0.223054
N5    N     N_3   0.382575 0.349913 0.820860 -0.620127
H31   H     H_    0.397661 0.407237 0.750496 0.220803
H32   H     H_    0.283197 0.328168 0.816828 0.209012
N6    N     N_3   0.617222 0.650103 0.179121 -0.620249
H33   H     H_    0.601855 0.592806 0.249434 0.220872
H34   H     H_    0.716630 0.671733 0.183362 0.209040
N7    N     N_3   0.358977 0.686141 0.760219 -0.577530
H35   H     H_    0.381377 0.668304 0.705224 0.227491
H36   H     H_    0.297155 0.626150 0.803565 0.225333
N8    N     N_3   0.641057 0.313850 0.239802 -0.577498
H37   H     H_    0.702909 0.373842 0.196486 0.225322
H38   H     H_    0.618630 0.331683 0.294791 0.227480

loop_
_geom_bond_atom_site_label_1
_geom_bond_atom_site_label_2
_ccdc_geom_bond_type
C1    O1    A    
N5    H31   S    
C31   N1    A    
C27   C29   A    
C5    C56   A    
C36   C42   A    
N3    H27   S    
C18   C26   A    
C6    C55   A    
N6    H34   S    
C53   H1    S    
C39   C41   A    
C54   H2    S    
C15   C19   A    
C37   C38   A    
C9    H3    S    
Cu2   O7    S    
C37   C40   A    
C38   C39   A    
C24   O6    A    
Cu1   N2    S    
C2    O4    A    
C44   H18   S    
N8    H37   S    
C26   N6    S    
C3    C55   A    
C43   C53   A    
C19   C20   A    
C52   C54   A    
C49   C51   A    
C50   C52   A    
N7    H35   S    
C31   C33   A    
Cu1   O1    S    
C2    O2    A    
C14   C16   A    
C55   H23   S    
C29   N1    A    
C8    C12   A    
C48   C50   A    
C46   N4    S    
N5    H32   S    
C34   C38   A    
C4    C56   A    
N7    H36   S    
C3    C24   S    
C10   H4    S    
C50   H20   S    
N6    H33   S    
C1    O3    A    
C44   C46   A    
N8    H38   S    
C45   C47   A    
C43   H17   S    
C31   H10   S    
C5    C48   S    
C46   C48   A    
C6    C47   S    
C19   C22   A    
C4    C6    A    
Cu1   O4    S    
C4    C23   S    
C41   H7    S    
C27   C35   A    
C33   C37   A    
C23   O7    A    
C12   H25   S    
C51   C53   A    
C32   C34   A    
C7    C11   A    
C13   N8    S    
C24   O8    A    
C43   C45   A    
C40   H16   S    
C16   C20   A    
C32   N2    A    
C9    C11   A    
C10   C12   A    
C32   H9    S    
C9    C17   A    
C14   N7    S    
N4    H30   S    
Cu1   O8    S    
C13   C15   A    
C23   O5    A    
C30   N2    A    
C45   N3    S    
Cu2   N1    S    
C30   H11   S    
C27   H13   S    
C29   H12   S    
C15   C17   A    
C21   C25   A    
C8    C14   A    
Cu1   O5    S    
C1    C7    S    
C2    C8    S    
C3    C5    A    
Cu2   O2    S    
N3    H28   S    
C56   H24   S    
C11   H26   S    
C47   C49   A    
C17   C25   A    
C28   C30   A    
C28   H14   S    
C25   N5    S    
Cu1   Cu2   S    
C10   C18   A    
C40   C42   A    
C33   C35   A    
C49   H19   S    
C34   C36   A    
C39   H15   S    
C35   C41   A    
Cu2   O3    S    
C51   H21   S    
C21   H5    S    
C22   H6    S    
C44   C54   A    
C7    C13   A    
C20   C21   A    
C28   C36   A    
C16   C18   A    
N4    H29   S    
C22   C26   A    
C42   H8    S    
C52   H22   S    
Cu2   O6    S    
