data_mof_unit_62267.cif
_audit_creation_date              2013-03-05T16:46:09-0500
_audit_creation_method            fapswitch 2.2
_symmetry_space_group_name_H-M    P1
_symmetry_Int_Tables_number       1
_space_group_crystal_system       triclinic
_cell_length_a                    15.919498
_cell_length_b                    17.168718
_cell_length_c                    19.457523
_cell_angle_alpha                 96.069273
_cell_angle_beta                  95.272205
_cell_angle_gamma                 97.699975
_cell_volume                      5210.14910538

loop_
_atom_site_label
_atom_site_type_symbol
_atom_site_description
_atom_site_fract_x
_atom_site_fract_y
_atom_site_fract_z
_atom_type_partial_charge
O1    O     O_R   0.420530 0.382500 0.496880 -0.537308
O2    O     O_R   0.579470 0.617500 0.503120 -0.537277
O3    O     O_R   0.563720 0.388950 0.502520 -0.539052
O4    O     O_R   0.436280 0.611050 0.497480 -0.539085
C1    C     C_R   0.488553 0.348273 0.502484 0.906789
C2    C     C_R   0.511446 0.651725 0.497512 0.906860
O5    O     O_R   0.428380 0.496760 0.397320 -0.522362
O6    O     O_R   0.571620 0.503240 0.602680 -0.522394
O7    O     O_R   0.571570 0.503220 0.402960 -0.539529
O8    O     O_R   0.428430 0.496780 0.597040 -0.539465
C3    C     C_R   0.498532 0.503899 0.367197 0.893511
C4    C     C_R   0.501469 0.496095 0.632804 0.893458
Cu1   Cu    Cu3+1 0.415220 0.496180 0.496660 1.126496
Cu2   Cu    Cu3+1 0.584780 0.503820 0.503340 1.126503
C5    C     C_R   0.422260 0.487836 0.243761 0.224124
C6    C     C_R   0.577825 0.511958 0.756202 0.224435
C7    C     C_R   0.426978 0.483984 0.171704 0.275632
C8    C     C_R   0.573208 0.515681 0.828267 0.275576
C9    C     C_R   0.504490 0.506859 0.145708 -0.213934
C10   C     C_R   0.495677 0.492980 0.854306 -0.214069
C11   C     C_R   0.577079 0.540298 0.191577 -0.156167
C12   C     C_R   0.422995 0.459731 0.808468 -0.156170
C13   C     C_R   0.572840 0.544492 0.264234 0.279288
C14   C     C_R   0.427165 0.455572 0.735802 0.279256
C15   C     C_R   0.496865 0.512838 0.291025 -0.278491
C16   C     C_R   0.503154 0.487126 0.708975 -0.278792
N1    N     N_R   0.514064 0.570815 0.039280 -0.165788
N2    N     N_R   0.486120 0.429014 0.960733 -0.165917
N3    N     N_R   0.509555 0.567406 0.970389 -0.117105
N4    N     N_R   0.490622 0.432423 0.029625 -0.117371
C17   C     C_R   0.495128 0.496505 0.930038 0.506764
C18   C     C_R   0.505073 0.503326 0.069977 0.506738
C19   C     C_R   0.482129 0.261047 0.506170 -0.257879
C20   C     C_R   0.517868 0.738946 0.493804 -0.257777
C21   C     C_R   0.555511 0.230449 0.532460 0.236553
C22   C     C_R   0.444497 0.769529 0.467473 0.236580
C23   C     C_R   0.560563 0.149151 0.518947 0.195305
C24   C     C_R   0.439430 0.850826 0.480962 0.195307
C25   C     C_R   0.490337 0.097154 0.483354 0.153972
C26   C     C_R   0.509632 0.902835 0.516580 0.153972
C27   C     C_R   0.414930 0.125891 0.462543 0.219613
C28   C     C_R   0.585032 0.874110 0.537432 0.219637
C29   C     C_R   0.408663 0.207078 0.476892 -0.208933
C30   C     C_R   0.591317 0.792925 0.523100 -0.208930
N5    N     N_2   0.491700 0.014331 0.472401 -0.111797
N6    N     N_2   0.508255 0.985656 0.527527 -0.111841
N7    N     N_R   0.712130 0.509560 0.508360 -0.253092
N8    N     N_R   0.287870 0.490440 0.491640 -0.253114
C31   C     C_R   0.745394 0.457652 0.462400 0.444909
C32   C     C_R   0.254605 0.542358 0.537589 0.444890
C33   C     C_R   0.834816 0.461614 0.459067 0.179374
C34   C     C_R   0.165183 0.538384 0.540932 0.179395
C35   C     C_R   0.892243 0.520831 0.501094 0.198646
C36   C     C_R   0.107759 0.479152 0.498918 0.198650
C37   C     C_R   0.858283 0.576065 0.544229 -0.248499
C38   C     C_R   0.141723 0.423917 0.455786 -0.248509
C39   C     C_R   0.769029 0.566317 0.552578 -0.041166
C40   C     C_R   0.230973 0.433677 0.447429 -0.041245
N9    N     N_2   0.983226 0.530671 0.497285 -0.120068
N10   N     N_2   0.016776 0.469309 0.502726 -0.120064
N11   N     N_R   0.340411 0.467831 0.267263 0.146038
O9    O     O_R   0.306635 0.522651 0.301691 -0.234192
O10   O     O_R   0.290764 0.404815 0.236981 -0.233647
N12   N     N_R   0.659633 0.532039 0.732659 0.146106
O11   O     O_R   0.693446 0.477263 0.698207 -0.234111
O12   O     O_R   0.709239 0.595073 0.762957 -0.233836
N13   N     N_R   0.134154 0.588530 0.593381 0.165425
O13   O     O_R   0.098007 0.557553 0.643404 -0.219345
O14   O     O_R   0.149023 0.665112 0.595101 -0.227860
N14   N     N_R   0.865845 0.411475 0.406613 0.165442
O15   O     O_R   0.902025 0.442462 0.356610 -0.219368
O16   O     O_R   0.850939 0.334891 0.404864 -0.227847
C41   C     C_2   0.917574 0.646603 0.577888 1.001912
O17   O     O_2   0.926684 0.706417 0.548826 -0.512850
O18   O     O_R   0.962832 0.644303 0.642445 -0.601991
H1    H     H_    0.000296 0.696301 0.660394 0.392842
C42   C     C_2   0.082442 0.353369 0.422133 1.001885
O19   O     O_2   0.073364 0.293551 0.451192 -0.512873
O20   O     O_R   0.037158 0.355664 0.357586 -0.602001
H2    H     H_    0.999705 0.303660 0.339641 0.392838
C43   C     C_2   0.742868 0.616025 0.613214 0.989625
O21   O     O_2   0.795570 0.642423 0.662691 -0.470994
O22   O     O_R   0.660767 0.633885 0.616112 -0.733975
H3    H     H_    0.653639 0.669243 0.659722 0.356420
C44   C     C_2   0.257130 0.383989 0.386782 0.989671
O23   O     O_2   0.204430 0.357628 0.337295 -0.470949
O24   O     O_R   0.339222 0.366104 0.383888 -0.734004
H4    H     H_    0.346343 0.330747 0.340276 0.356419
N15   N     N_R   0.350617 0.462551 0.124485 0.166967
O25   O     O_R   0.293867 0.510367 0.121581 -0.210547
O26   O     O_R   0.334408 0.392647 0.089018 -0.240799
N16   N     N_R   0.649665 0.536820 0.875424 0.166979
O27   O     O_R   0.706640 0.489189 0.877625 -0.209839
O28   O     O_R   0.665828 0.606435 0.911394 -0.241362
C45   C     C_2   0.656472 0.572806 0.163357 0.995267
O29   O     O_2   0.694040 0.638429 0.186794 -0.462215
O30   O     O_R   0.687505 0.528689 0.109190 -0.696738
H5    H     H_    0.741286 0.557365 0.093957 0.385592
C46   C     C_2   0.343581 0.427353 0.836728 0.995232
O31   O     O_2   0.305881 0.361779 0.813295 -0.462192
O32   O     O_R   0.312683 0.471534 0.890931 -0.696746
H6    H     H_    0.258873 0.442943 0.906191 0.385590
N17   N     N_R   0.644033 0.585339 0.310841 0.169153
O33   O     O_R   0.634289 0.647346 0.352171 -0.268986
O34   O     O_R   0.719561 0.564724 0.308593 -0.251623
N18   N     N_R   0.355878 0.414856 0.689225 0.169128
O35   O     O_R   0.365461 0.352820 0.647863 -0.268900
O36   O     O_R   0.280408 0.435579 0.691568 -0.251555
N19   N     N_R   0.376637 0.718366 0.424238 0.184554
O37   O     O_R   0.393910 0.673925 0.370481 -0.284379
O38   O     O_R   0.297643 0.717754 0.436698 -0.205455
N20   N     N_R   0.623396 0.281595 0.575679 0.184567
O39   O     O_R   0.606162 0.326012 0.629467 -0.284401
O40   O     O_R   0.702375 0.282216 0.563174 -0.205472
N21   N     N_R   0.362353 0.880592 0.459861 0.193217
O41   O     O_R   0.324117 0.919299 0.505738 -0.214864
O42   O     O_R   0.329246 0.867775 0.395302 -0.180500
N22   N     N_R   0.637648 0.119371 0.540003 0.193214
O43   O     O_R   0.675821 0.080631 0.494103 -0.214927
O44   O     O_R   0.670812 0.132190 0.604547 -0.180469
N23   N     N_R   0.343459 0.071163 0.428484 0.192129
O45   O     O_R   0.272404 0.061022 0.456725 -0.201044
O46   O     O_R   0.349620 0.031149 0.369008 -0.207813
N24   N     N_R   0.656479 0.928848 0.571519 0.192126
O47   O     O_R   0.727558 0.938999 0.543312 -0.201012
O48   O     O_R   0.650270 0.968866 0.630982 -0.207877
C47   C     C_2   0.323681 0.232259 0.464852 1.001938
O49   O     O_2   0.279976 0.211841 0.409175 -0.511749
O50   O     O_R   0.291038 0.274414 0.519139 -0.655999
H7    H     H_    0.230765 0.284598 0.506208 0.352253
C48   C     C_2   0.676300 0.767756 0.535177 1.001922
O51   O     O_2   0.719973 0.788182 0.590868 -0.511758
O52   O     O_R   0.708980 0.725603 0.480910 -0.655961
H8    H     H_    0.769253 0.715433 0.493865 0.352208
N25   N     N_R   0.309950 0.600113 0.585643 0.157207
O53   O     O_R   0.323874 0.672507 0.570886 -0.273968
O54   O     O_R   0.319328 0.588532 0.650705 -0.278529
N26   N     N_R   0.690047 0.399944 0.414305 0.157206
O55   O     O_R   0.676062 0.327537 0.429021 -0.273988
O56   O     O_R   0.680732 0.411572 0.349252 -0.278609

loop_
_geom_bond_atom_site_label_1
_geom_bond_atom_site_label_2
_geom_bond_distance
_ccdc_geom_bond_type
C24   C26   1.409256 A    
O24   H4    1.014213 S    
O32   H6    1.013811 S    
N1    N3    1.330408 A    
C41   O18   1.396524 S    
C41   O17   1.222030 D    
C35   C37   1.395866 A    
C45   O29   1.222981 D    
O7    Cu2   1.943911 S    
N20   O40   1.301277 A    
C43   O21   1.222085 D    
C35   N9    1.445229 S    
C28   N24   1.435232 S    
N25   O53   1.299910 A    
N7    C31   1.385391 A    
C36   N10   1.445231 S    
C42   O19   1.222028 D    
C30   C48   1.480525 S    
C26   N6    1.418766 S    
O1    C1    1.300856 A    
C21   C23   1.407185 A    
C14   C16   1.424635 A    
C32   N25   1.432551 S    
N19   O38   1.301276 A    
C5    C15   1.421174 A    
N18   O35   1.300095 A    
C3    C15   1.504297 S    
N21   O41   1.300676 A    
N25   O54   1.300328 A    
C27   N23   1.435232 S    
O4    Cu1   1.953791 S    
N11   O10   1.301088 A    
N22   O43   1.300679 A    
C7    C9    1.399864 A    
C13   N17   1.436073 S    
C23   N22   1.433588 S    
C46   O31   1.222980 D    
N21   O42   1.301138 A    
C1    C19   1.497104 S    
C32   C34   1.423831 A    
N14   O15   1.300655 A    
C33   N14   1.430922 S    
N15   O26   1.300902 A    
C8    C10   1.399920 A    
C25   N5    1.418764 S    
N8    C32   1.385382 A    
N9    N10   1.253139 D    
Cu1   Cu2   2.675336 S    
N3    C17   1.356766 A    
C27   C29   1.410984 A    
O2    C2    1.300849 A    
C28   C30   1.410978 A    
C9    C18   1.469298 S    
N20   O39   1.300835 A    
C43   O22   1.386626 S    
C34   C36   1.405663 A    
O30   H5    1.013810 S    
C42   O20   1.396521 S    
C6    C16   1.421211 A    
C36   C38   1.395868 A    
C44   O24   1.386633 S    
N13   O13   1.300653 A    
C19   C29   1.423533 A    
C7    N15   1.435504 S    
C25   C27   1.400022 A    
C29   C47   1.480528 S    
C11   C45   1.487861 S    
C31   C33   1.423831 A    
C44   O23   1.222084 D    
C38   C42   1.482848 S    
C2    C20   1.497080 S    
C4    C16   1.504369 S    
C33   C35   1.405651 A    
N12   O12   1.301099 A    
O5    C3    1.305592 A    
O18   H1    1.013793 S    
C47   O50   1.396286 S    
N7    C39   1.397585 A    
O22   H3    1.014217 S    
O6    C4    1.305590 A    
N16   O28   1.300837 A    
C5    N11   1.430974 S    
C20   C30   1.423517 A    
N17   O34   1.301270 A    
O7    C3    1.301140 A    
N23   O45   1.301339 A    
C34   N13   1.430918 S    
O8    C4    1.301177 A    
O4    C2    1.302074 A    
C46   O32   1.398478 S    
C10   C12   1.409198 A    
C11   C13   1.416234 A    
O52   H8    1.012152 S    
C12   C14   1.416251 A    
O1    Cu1   1.965288 S    
C48   O51   1.223274 D    
C40   C44   1.505412 S    
O3    C1    1.302080 A    
N17   O33   1.300103 A    
N24   O48   1.300607 A    
O50   H7    1.012151 S    
C5    C7    1.406002 A    
O6    Cu2   1.964195 S    
C12   C46   1.487857 S    
C9    C11   1.409196 A    
N1    C18   1.355531 A    
N2    C17   1.355534 A    
C48   O52   1.396296 S    
O8    Cu1   1.943911 S    
Cu1   N8    2.009335 S    
C45   O30   1.398479 S    
N8    C40   1.397556 A    
Cu2   N7    2.009333 S    
N26   O56   1.300338 A    
O3    Cu2   1.953791 S    
C8    N16   1.435637 S    
N12   O11   1.300837 A    
C37   C39   1.434471 A    
N2    N4    1.330425 A    
C23   C25   1.409251 A    
N19   O37   1.300837 A    
C22   C24   1.407184 A    
N4    C18   1.356785 A    
C24   N21   1.433574 S    
N18   O36   1.301269 A    
C26   C28   1.400026 A    
N16   O27   1.300865 A    
C19   C21   1.419084 A    
C38   C40   1.434452 A    
C20   C22   1.419076 A    
C13   C15   1.424616 A    
N11   O9    1.300840 A    
O2    Cu2   1.965290 S    
C39   C43   1.505459 S    
N22   O44   1.301136 A    
N23   O46   1.300606 A    
N26   O55   1.299909 A    
O20   H2    1.013794 S    
C37   C41   1.482848 S    
N5    N6    1.247720 D    
O5    Cu1   1.964195 S    
C14   N18   1.436072 S    
C6    C8    1.406027 A    
C22   N19   1.438316 S    
N14   O16   1.300661 A    
C6    N12   1.430925 S    
N13   O14   1.300661 A    
N15   O25   1.300961 A    
C31   N26   1.432550 S    
C21   N20   1.438308 S    
C47   O49   1.223275 D    
N24   O47   1.301339 A    
C10   C17   1.469271 S    
