data_mof_unit_40027.cif
_audit_creation_date              2012-12-11T16:26:24-0500
_audit_creation_method            fapswitch 2.2
_symmetry_space_group_name_H-M    P1
_symmetry_Int_Tables_number       1
_space_group_crystal_system       triclinic
_cell_length_a                    6.969382
_cell_length_b                    17.576856
_cell_length_c                    19.315628
_cell_angle_alpha                 108.341511
_cell_angle_beta                  89.501977
_cell_angle_gamma                 90.675859
_cell_volume                      2245.76752866

loop_
_atom_site_label
_atom_site_type_symbol
_atom_type_description
_atom_site_fract_x
_atom_site_fract_y
_atom_site_fract_z
_atom_type_partial_charge
O1    O     O_R   0.494330 0.415720 0.413720 -0.537951
O2    O     O_R   0.819330 0.430070 0.560210 -0.532091
O3    O     O_R   0.994320 0.584280 0.586280 -0.528960
C1    C     C_R   0.649859 0.415258 0.581664 0.748213
O4    O     O_R   0.823730 0.406300 0.412670 -0.540339
O5    O     O_R   0.998760 0.560340 0.437690 -0.536312
C2    C     C_R   0.655081 0.384184 0.384714 0.687186
O6    O     O_R   0.489890 0.439660 0.562310 -0.547288
O7    O     O_3   0.662340 0.550560 0.508380 -0.369325
V1    V     V_3+5 0.935370 0.490620 0.498450 1.449375
O8    O     O_R   0.328750 0.569930 0.439790 -0.542234
C3    C     C_R   0.160942 0.584417 0.417957 0.697506
O9    O     O_R   0.324340 0.593700 0.587330 -0.545028
C4    C     C_R   0.155852 0.615772 0.615437 0.686280
V2    V     V_3+5 0.435940 0.509380 0.501550 1.419040
O10   O     O_3   0.159100 0.449440 0.491620 -0.368916
H1    H     H_    0.298613 0.859758 0.557323 0.163125
C5    C     C_R   0.095935 0.594271 0.756387 -0.164628
C6    C     C_R   0.077547 0.580428 0.823571 0.514992
C7    C     C_R   0.056881 0.646568 0.886901 -0.278554
C8    C     C_R   0.066218 0.724287 0.883093 -0.204972
C9    C     C_R   0.097352 0.739263 0.816051 0.062473
C10   C     C_R   0.110880 0.672791 0.751376 -0.036711
C11   C     C_R   0.117546 0.818934 0.813360 -0.159133
C12   C     C_R   0.155294 0.832321 0.744978 0.029135
C13   C     C_R   0.177747 0.764208 0.680907 0.063274
C14   C     C_R   0.147355 0.685308 0.683635 -0.143793
C15   C     C_R   0.171474 0.910435 0.736227 0.100946
C16   C     C_R   0.225103 0.918530 0.668974 -0.133176
C17   C     C_R   0.257436 0.852151 0.608931 -0.156263
C18   C     C_R   0.229956 0.776039 0.614078 -0.155865
H2    H     H_    0.105959 0.542212 0.708250 0.131809
H3    H     H_    0.031232 0.638647 0.939495 0.108530
H4    H     H_    0.050123 0.772520 0.933736 0.116320
H5    H     H_    0.237883 0.977305 0.662406 0.143455
H6    H     H_    0.251595 0.726518 0.564732 0.106954
C19   C     C_R   0.174727 0.596988 0.293002 -0.218094
C20   C     C_R   0.153443 0.633292 0.368516 -0.074756
C21   C     C_R   0.120609 0.715935 0.396573 -0.200456
C22   C     C_R   0.112832 0.763328 0.349882 0.011147
C23   C     C_R   0.135109 0.726517 0.273824 -0.007182
C24   C     C_R   0.164421 0.642949 0.245318 0.131064
C25   C     C_R   0.081190 0.846625 0.377529 0.395824
C26   C     C_R   0.082561 0.892950 0.330031 -0.289657
C27   C     C_R   0.101303 0.856796 0.254468 0.028829
C28   C     C_R   0.126481 0.773115 0.226088 0.041905
C29   C     C_R   0.144516 0.736034 0.149986 0.123759
C30   C     C_R   0.171947 0.652912 0.122364 -0.189642
C31   C     C_R   0.182020 0.606835 0.169581 -0.194610
C32   C     C_R   0.094279 0.902787 0.206724 -0.209462
C33   C     C_R   0.110288 0.866018 0.130985 -0.067687
C34   C     C_R   0.135843 0.782793 0.102940 -0.248247
H7    H     H_    0.197426 0.532882 0.271527 0.108904
H8    H     H_    0.101545 0.742976 0.454835 0.140615
H9    H     H_    0.067305 0.957247 0.352635 0.136628
H10   H     H_    0.075544 0.967113 0.228226 0.131981
H11   H     H_    0.151689 0.754737 0.044732 0.105729
H12   H     H_    0.186000 0.623484 0.064155 0.109334
H13   H     H_    0.202751 0.542778 0.146737 0.119424
C35   C     C_R   0.659786 0.217020 0.897252 -0.211127
C36   C     C_R   0.625323 0.134170 0.869413 -0.035862
C37   C     C_R   0.594113 0.098241 0.794458 -0.160077
C38   C     C_R   0.596220 0.144655 0.747092 0.111490
C39   C     C_R   0.630040 0.228104 0.775169 0.075837
C40   C     C_R   0.661537 0.264343 0.850589 0.120692
C41   C     C_R   0.564245 0.109180 0.672192 -0.180333
C42   C     C_R   0.565390 0.155726 0.625293 -0.161952
C43   C     C_R   0.598999 0.238718 0.652471 0.114004
C44   C     C_R   0.632042 0.275284 0.727772 -0.017038
C45   C     C_R   0.667399 0.358760 0.755715 0.020108
C46   C     C_R   0.696370 0.393962 0.831181 -0.131484
C47   C     C_R   0.692885 0.347313 0.878025 -0.253513
C48   C     C_R   0.601345 0.285515 0.605524 -0.286490
C49   C     C_R   0.639240 0.368079 0.632500 -0.162287
C50   C     C_R   0.670756 0.405276 0.707766 0.383556
H14   H     H_    0.683469 0.244557 0.955198 0.100416
H15   H     H_    0.567737 0.034158 0.773218 0.128079
H16   H     H_    0.538117 0.045357 0.649907 0.122940
H17   H     H_    0.540453 0.126713 0.567632 0.124215
H18   H     H_    0.576659 0.257591 0.547666 0.124955
H19   H     H_    0.719603 0.457901 0.854582 0.182820
H20   H     H_    0.715484 0.376267 0.935838 0.128956
H21   H     H_    0.827638 0.141889 0.438498 0.137258
C51   C     C_R   0.558589 0.405179 0.246900 -0.145775
C52   C     C_R   0.513612 0.417694 0.181249 -0.130858
C53   C     C_R   0.501481 0.353209 0.117546 -0.123201
C54   C     C_R   0.535113 0.275760 0.119013 -0.135134
C55   C     C_R   0.581805 0.260937 0.184897 0.061390
C56   C     C_R   0.593595 0.327141 0.250099 0.072843
C57   C     C_R   0.620448 0.182058 0.185996 -0.192409
C58   C     C_R   0.673925 0.169362 0.252987 -0.019210
C59   C     C_R   0.686428 0.236780 0.317961 0.028347
C60   C     C_R   0.644610 0.314955 0.316530 -0.159052
C61   C     C_R   0.712399 0.091555 0.258611 0.395686
C62   C     C_R   0.773777 0.083882 0.325133 -0.203710
C63   C     C_R   0.784666 0.149501 0.387351 -0.200562
C64   C     C_R   0.739394 0.224826 0.384321 -0.137899
H22   H     H_    0.567945 0.457536 0.294791 0.106606
H23   H     H_    0.489567 0.477859 0.179767 0.114687
H24   H     H_    0.467109 0.363245 0.066562 0.107596
H25   H     H_    0.525873 0.228018 0.067670 0.091447
H26   H     H_    0.809260 0.025582 0.328709 0.120350
H27   H     H_    0.747813 0.273643 0.434957 0.110871
O11   O     O_R   0.775200 0.060470 0.937800 -0.523778
O12   O     O_R   0.441110 0.093720 0.087350 -0.551935
O13   O     O_R   0.266330 0.939630 0.062280 -0.550829
C65   C     C_R   0.609543 0.114468 0.116473 0.776919
O14   O     O_R   0.445750 0.069950 0.939820 -0.530012
O15   O     O_R   0.271000 0.915700 0.913700 -0.532534
C66   C     C_R   0.615242 0.085187 0.918675 0.724733
O16   O     O_R   0.770530 0.084400 0.086380 -0.519934
O17   O     O_3   0.602830 0.949510 0.991680 -0.376545
V3    V     V_3+5 0.329710 0.009370 0.001550 1.457627
O18   O     O_R   0.940990 0.906170 0.912570 -0.536899
C67   C     C_R   0.109364 0.886074 0.883117 0.745896
O19   O     O_R   0.936350 0.929940 0.060100 -0.523858
C68   C     C_R   0.104009 0.914987 0.081561 0.713657
V4    V     V_3+5 0.829160 0.990450 0.998310 1.491383
O20   O     O_3   0.105910 0.050480 0.008320 -0.358823
O21   O     O_3   0.054021 0.883352 0.451511 -0.562280
C69   C     C_3   0.855687 0.896966 0.464826 0.080721
H28   H     H_    0.768406 0.842117 0.437807 0.120979
H29   H     H_    0.808202 0.946807 0.445157 0.122537
C70   C     C_3   0.816865 0.920091 0.546371 -0.693916
H30   H     H_    0.897009 0.975808 0.575546 0.231448
H31   H     H_    0.660972 0.930228 0.556883 0.169807
H32   H     H_    0.861493 0.871012 0.567320 0.231550
O22   O     O_3   0.718733 0.485901 0.733586 -0.547775
C71   C     C_3   0.549055 0.531072 0.751340 0.050053
H33   H     H_    0.449173 0.506557 0.784394 0.131189
H34   H     H_    0.475344 0.532128 0.700916 0.132138
C72   C     C_3   0.599461 0.616808 0.795982 -0.680883
H35   H     H_    0.696821 0.643999 0.764347 0.234358
H36   H     H_    0.468143 0.653427 0.809996 0.182384
H37   H     H_    0.669327 0.617538 0.847553 0.218701
O23   O     O_3   0.069217 0.501088 0.823168 -0.544900
C73   C     C_3   0.154067 0.490370 0.885687 0.041875
H38   H     H_    0.049974 0.505832 0.931849 0.122465
H39   H     H_    0.287603 0.527068 0.901972 0.106372
C74   C     C_3   0.207852 0.402766 0.869050 -0.672798
H40   H     H_    0.297632 0.383381 0.819061 0.226141
H41   H     H_    0.288355 0.394628 0.915530 0.175836
H42   H     H_    0.077885 0.364203 0.859825 0.236901
O24   O     O_3   0.704593 0.022884 0.198853 -0.563547
C75   C     C_3   0.551853 0.972833 0.207589 0.074986
H43   H     H_    0.417141 0.993168 0.189253 0.129706
H44   H     H_    0.529345 0.972853 0.264790 0.105876
C76   C     C_3   0.591622 0.886667 0.161780 -0.644510
H45   H     H_    0.728489 0.866682 0.178297 0.219375
H46   H     H_    0.478600 0.846283 0.171077 0.181391
H47   H     H_    0.597529 0.881036 0.102994 0.233907
I1    I     I_    0.101949 0.023794 0.812041 -0.424748

loop_
_geom_bond_atom_site_label_1
_geom_bond_atom_site_label_2
_ccdc_geom_bond_type
O11   C66   A    
C54   C55   A    
C23   C24   A    
C37   H15   S    
C62   C63   A    
C74   H42   S    
C1    O6    A    
O22   C71   S    
O18   C67   A    
C52   C53   A    
O21   C69   S    
C12   C15   A    
O12   C65   A    
C13   C14   A    
C19   C20   A    
O16   V4    S    
O12   V3    S    
C15   C16   A    
C74   H41   S    
C57   C65   S    
C5    C6    A    
O5    C3    A    
C17   C18   A    
C21   H8    S    
V2    O10   S    
O19   C68   A    
C50   O22   S    
C48   C49   A    
C19   C24   A    
V4    O20   S    
C69   C70   S    
C54   H25   S    
O8    V2    S    
C51   C52   A    
C22   C25   A    
C6    C7    A    
O19   V4    S    
C43   C44   A    
C23   C28   A    
C76   H47   S    
C45   C46   A    
O1    V2    S    
C10   C14   A    
C4    C14   S    
C53   H24   S    
O7    V1    S    
C1    C49   S    
C62   H26   S    
O15   V3    S    
C25   O21   S    
C71   C72   S    
C19   H7    S    
C55   C56   A    
C41   C42   A    
C38   C41   A    
C13   C18   A    
V3    O20   S    
O9    C4    A    
C3    C20   S    
H1    C17   S    
C44   C45   A    
C41   H16   S    
C36   C66   S    
O17   V3    S    
C75   H44   S    
C59   C64   A    
C75   H43   S    
O11   V4    S    
C9    C10   A    
C2    C60   S    
C73   C74   S    
C49   C50   A    
O13   V3    S    
C42   C43   A    
C29   C30   A    
C42   H17   S    
C11   C12   A    
C21   C22   A    
O4    C2    A    
C53   C54   A    
O24   C75   S    
C8    H4    S    
C43   C48   A    
C27   C28   A    
C35   H14   S    
C32   H10   S    
C33   C34   A    
C35   C36   A    
O14   V3    S    
O2    C1    A    
C25   C26   A    
C16   C17   A    
C52   H23   S    
C73   H39   S    
C5    C10   A    
C63   C64   A    
C37   C38   A    
C32   C33   A    
C61   C62   A    
C12   C13   A    
C64   H27   S    
C39   C44   A    
C74   H40   S    
C69   H28   S    
O18   V4    S    
O3    C4    A    
C70   H32   S    
C7    H3    S    
C30   C31   A    
C55   C57   A    
C35   C40   A    
C15   I1    S    
O6    V2    S    
O9    V2    S    
O13   C68   A    
C9    C11   A    
C5    H2    S    
C51   C56   A    
O2    V1    S    
C58   C59   A    
C75   C76   S    
C26   C27   A    
C70   H31   S    
C71   H33   S    
C28   C29   A    
C22   C23   A    
O1    C2    A    
C65   O16   A    
C76   H46   S    
O23   C73   S    
O5    V1    S    
O8    C3    A    
C30   H12   S    
C29   C34   A    
C40   C47   A    
C73   H38   S    
C16   H5    S    
C31   H13   S    
C61   O24   S    
C39   C40   A    
C6    O23   S    
C51   H22   S    
O4    V1    S    
O3    V1    S    
V1    O10   S    
C58   C61   A    
O17   V4    S    
C26   H9    S    
C57   C58   A    
C20   C21   A    
C27   C32   A    
C72   H37   S    
H21   C63   S    
C59   C60   A    
C33   C68   S    
C48   H18   S    
O14   C66   A    
C72   H35   S    
C76   H45   S    
C56   C60   A    
C36   C37   A    
C69   H29   S    
C34   H11   S    
O15   C67   A    
C24   C31   A    
C38   C39   A    
C46   C47   A    
C7    C8    A    
C11   C67   S    
C72   H36   S    
C45   C50   A    
C18   H6    S    
C46   H19   S    
C8    C9    A    
C47   H20   S    
O7    V2    S    
C70   H30   S    
C71   H34   S    
