data_mof_unit_41434.cif
_audit_creation_date              2012-12-11T14:40:20-0500
_audit_creation_method            fapswitch 2.2
_symmetry_space_group_name_H-M    P1
_symmetry_Int_Tables_number       1
_space_group_crystal_system       triclinic
_cell_length_a                    19.492016
_cell_length_b                    10.907552
_cell_length_c                    19.455141
_cell_angle_alpha                 89.90097
_cell_angle_beta                  97.792359
_cell_angle_gamma                 90.089348
_cell_volume                      4098.15576274

loop_
_atom_site_label
_atom_site_type_symbol
_atom_type_description
_atom_site_fract_x
_atom_site_fract_y
_atom_site_fract_z
_atom_type_partial_charge
C1    C     C_R   0.726308 0.949920 0.360247 0.588994
C2    C     C_3   0.263574 0.357771 0.561176 -0.059409
C3    C     C_3   0.238212 0.863351 0.438157 -0.036853
C4    C     C_3   0.769413 0.838378 0.559903 -0.062177
C5    C     C_3   0.705794 0.462642 0.469226 -0.081157
C6    C     C_3   0.238751 0.489763 0.545231 -0.084168
C7    C     C_3   0.218135 0.991921 0.460475 -0.077992
C8    C     C_3   0.743755 0.965976 0.535840 -0.079878
C9    C     C_3   0.777634 0.477917 0.513319 -0.194240
C10   C     C_3   0.181500 0.437725 0.490126 -0.237368
C11   C     C_3   0.292369 0.005989 0.500230 -0.233251
C12   C     C_R   0.289344 0.991711 0.632401 0.534957
C13   C     C_3   0.691452 0.904361 0.480034 -0.222092
C14   C     C_3   0.803760 0.358369 0.484180 -0.034799
C15   C     C_3   0.206503 0.305155 0.506686 -0.122277
C16   C     C_3   0.312260 0.877302 0.476905 -0.046370
C17   C     C_3   0.716880 0.775928 0.504775 -0.131704
C18   C     C_3   0.777008 0.285381 0.542415 0.382135
C19   C     C_3   0.257512 0.315674 0.453226 0.342257
C20   C     C_3   0.286071 0.819474 0.540120 0.412890
C21   C     C_3   0.771961 0.779868 0.454874 0.315245
C22   C     C_3   0.751546 0.403447 0.571679 0.032946
C23   C     C_R   0.210624 0.491523 0.367727 0.553656
C24   C     C_3   0.232294 0.445886 0.436686 0.050348
C25   C     C_3   0.267323 0.946822 0.563648 0.019234
C26   C     C_3   0.746670 0.906278 0.430293 0.054813
C27   C     C_3   0.465979 0.276757 0.987421 0.411227
C28   C     C_3   0.452471 0.180909 0.041038 0.424725
C29   C     C_3   0.049160 0.771063 0.966951 0.424571
C30   C     C_3   0.999673 0.772380 0.021116 0.439409
C31   C     C_3   0.544421 0.270835 0.010534 -0.140845
C32   C     C_3   0.458101 0.076149 0.989155 -0.153612
C33   C     C_3   0.094671 0.673072 0.008187 -0.184351
C34   C     C_R   0.772371 0.446686 0.641546 0.581313
C35   C     C_3   0.955453 0.670924 0.983100 -0.139049
C36   C     C_3   0.530425 0.173891 0.064222 0.000255
C37   C     C_3   0.472197 0.173676 0.935734 -0.002948
C38   C     C_3   0.043978 0.674758 0.062411 -0.015440
C39   C     C_3   0.005609 0.670005 0.928372 0.006195
C40   C     C_R   0.535178 0.179900 0.338009 0.562999
C41   C     C_R   0.464936 0.180088 0.662086 0.537467
C42   C     C_R   0.035501 0.679911 0.338267 0.546687
C43   C     C_R   0.965451 0.679974 0.662444 0.534172
C44   C     C_3   0.537467 0.068827 0.013172 -0.185901
C45   C     C_3   0.705362 0.266850 0.498649 -0.125223
C46   C     C_3   0.550821 0.166050 0.958196 -0.172358
C47   C     C_3   0.000300 0.571684 0.024306 -0.163793
C48   C     C_3   0.050093 0.570173 0.968418 -0.183666
C49   C     C_1   0.762758 0.425082 0.904164 0.009089
C50   C     C_1   0.242490 0.409073 0.100272 0.036823
C51   C     C_1   0.262869 0.925364 0.904255 0.029194
C52   C     C_1   0.742710 0.908757 0.100372 0.016653
C53   C     C_1   0.747439 0.408396 0.034615 -0.037964
C54   C     C_1   0.266084 0.358995 0.974445 0.048139
C55   C     C_1   0.247635 0.908921 0.034738 0.015385
C56   C     C_3   0.315277 0.364955 0.508201 -0.084272
C57   C     C_1   0.766704 0.858469 0.974635 -0.007750
C58   C     C_1   0.754183 0.415335 0.963841 -0.033747
C59   C     C_1   0.255204 0.383184 0.043236 0.036229
C60   C     C_1   0.254367 0.915785 0.963960 0.014739
C61   C     C_1   0.755660 0.882717 0.043413 -0.003697
C62   C     C_1   0.742618 0.395373 0.095016 0.001839
C63   C     C_1   0.272727 0.338890 0.914889 0.049287
C64   C     C_1   0.242745 0.895757 0.095115 0.036820
C65   C     C_1   0.773193 0.838393 0.915018 0.006747
C66   C     C_R   0.724538 0.309355 0.367705 0.576695
C67   C     C_3   0.212409 0.803352 0.501255 -0.107065
C68   C     C_R   0.274604 0.312682 0.631695 0.525838
C69   C     C_R   0.226181 0.815383 0.368568 0.549749
C70   C     C_R   0.776169 0.806945 0.632963 0.552783
C71   C     C_R   0.722656 0.950687 0.164437 0.545052
C72   C     C_R   0.277901 0.952295 0.836230 0.550665
C73   C     C_R   0.222629 0.450726 0.164434 0.562818
C74   C     C_R   0.777879 0.452238 0.836200 0.544989
C75   C     C_R   0.560264 0.182201 0.136000 0.565012
C76   C     C_R   0.440900 0.181940 0.864348 0.539775
C77   C     C_R   0.063886 0.682797 0.137133 0.560883
C78   C     C_3   0.825382 0.839444 0.511120 -0.087500
C79   C     C_R   0.973197 0.678511 0.857107 0.558840
C80   C     C_R   0.736020 0.360893 0.164422 0.555065
C81   C     C_R   0.278028 0.310406 0.843997 0.535878
C82   C     C_R   0.236048 0.860981 0.164457 0.559124
C83   C     C_R   0.778162 0.810132 0.843988 0.547219
C84   C     C_1   0.486289 0.172173 0.594996 0.031435
C85   C     C_1   0.514240 0.171789 0.405293 0.025950
C86   C     C_1   0.988194 0.671630 0.595949 0.025472
C87   C     C_1   0.015639 0.671736 0.406040 0.027286
C88   C     C_1   0.504442 0.168362 0.464878 -0.002902
C89   C     C_3   0.731986 0.342729 0.440828 -0.040585
C90   C     C_1   0.496320 0.168519 0.535492 0.004326
C91   C     C_1   0.006642 0.668001 0.465874 -0.006731
C92   C     C_1   0.998848 0.667811 0.536609 -0.009679
C93   C     C_3   0.680736 0.387994 0.528354 0.334321
C94   C     C_3   0.289131 0.496080 0.490777 0.398069
C95   C     C_3   0.194102 0.932607 0.524942 0.344606
C96   C     C_3   0.798520 0.966748 0.485817 0.405928
Cr1   Cr    Cr6+3 0.765830 0.160660 0.268180 1.094975
Cr2   Cr    Cr6+3 0.384070 0.324050 0.751550 1.105631
Cr3   Cr    Cr6+3 0.115930 0.824050 0.248450 1.092909
Cr4   Cr    Cr6+3 0.884070 0.824050 0.751550 1.119464
Cr5   Cr    Cr6+3 0.234170 0.160660 0.731820 1.094066
Cr6   Cr    Cr6+3 0.265830 0.660660 0.268180 1.096836
Cr7   Cr    Cr6+3 0.734170 0.660660 0.731820 1.071376
Cr8   Cr    Cr6+3 0.612110 0.009150 0.248770 1.059264
Cr9   Cr    Cr6+3 0.387890 0.009150 0.751230 1.069000
Cr10  Cr    Cr6+3 0.112110 0.509150 0.248770 1.058441
Cr11  Cr    Cr6+3 0.887890 0.509150 0.751230 1.069998
Cr12  Cr    Cr6+3 0.615930 0.324050 0.248450 1.077444
F1    F     F_    0.618245 0.404147 0.553260 -0.603676
F2    F     F_    0.402736 0.189931 0.085159 -0.592699
F3    F     F_    0.073896 0.873718 0.936446 -0.586608
F4    F     F_    0.973110 0.877485 0.047141 -0.570433
F5    F     F_    0.332116 0.591659 0.477917 -0.574985
F6    F     F_    0.134016 0.962739 0.551468 -0.591029
F7    F     F_    0.840823 0.063832 0.473416 -0.566774
F8    F     F_    0.815738 0.200233 0.583575 -0.573006
F9    F     F_    0.267246 0.231748 0.402307 -0.618435
F10   F     F_    0.321900 0.733377 0.583205 -0.557328
F11   F     F_    0.786111 0.687955 0.410040 -0.630736
F12   F     F_    0.428577 0.383564 0.973394 -0.603968
H1    H     H_    0.673985 0.182083 0.489794 0.093153
H2    H     H_    0.231414 0.559220 0.585187 0.195572
H3    H     H_    0.187733 0.059137 0.426026 0.209597
H4    H     H_    0.730458 0.037207 0.572309 0.196131
H5    H     H_    0.854911 0.345868 0.466056 0.197251
H6    H     H_    0.173123 0.225277 0.514626 0.181216
H7    H     H_    0.361526 0.853342 0.457455 0.196477
H8    H     H_    0.682761 0.698881 0.515521 0.163321
H9    H     H_    0.579974 0.350354 0.020654 0.141521
H10   H     H_    0.421809 0.997707 0.978928 0.139375
H11   H     H_    0.152008 0.674518 0.020027 0.114800
H12   H     H_    0.369997 0.334235 0.517015 0.137448
H13   H     H_    0.898026 0.670283 0.972021 0.116772
H14   H     H_    0.568095 0.984048 0.025747 0.153616
H15   H     H_    0.590325 0.159581 0.922268 0.157152
H16   H     H_    0.980135 0.489805 0.049042 0.168750
H17   H     H_    0.070471 0.487425 0.944978 0.157037
H18   H     H_    0.178588 0.721235 0.499545 0.093657
H19   H     H_    0.880359 0.813819 0.525243 0.140087
H20   H     H_    0.326233 0.088112 0.502358 0.149344
H21   H     H_    0.636438 0.931950 0.466473 0.147894
H22   H     H_    0.809150 0.562416 0.522659 0.155166
H23   H     H_    0.126792 0.468780 0.481183 0.137007
H24   H     H_    0.675670 0.533191 0.436952 0.186950
O1    O     O_R   0.783230 0.287800 0.346510 -0.469687
O2    O     O_R   0.454570 0.285140 0.836900 -0.463003
O3    O     O_R   0.045430 0.785140 0.163100 -0.428225
O4    O     O_R   0.954570 0.785140 0.836900 -0.462019
O5    O     O_R   0.677850 0.374730 0.185500 -0.509731
O6    O     O_R   0.322150 0.374730 0.814500 -0.456647
O7    O     O_R   0.177850 0.874730 0.185500 -0.494394
O8    O     O_R   0.822150 0.874730 0.814500 -0.464849
O9    O     O_3   0.664630 0.164620 0.255130 -0.331219
O10   O     O_3   0.335370 0.164620 0.744870 -0.365447
O11   O     O_3   0.164630 0.664620 0.255130 -0.349184
O12   O     O_R   0.216770 0.287800 0.653490 -0.481764
O13   O     O_3   0.835370 0.664620 0.744870 -0.335575
O14   O     O_R   0.760130 0.037060 0.338610 -0.476498
O15   O     O_R   0.239870 0.037060 0.661390 -0.456644
O16   O     O_R   0.260130 0.537060 0.338610 -0.450246
O17   O     O_R   0.739870 0.537060 0.661390 -0.502718
O18   O     O_R   0.666620 0.921370 0.332440 -0.509143
O19   O     O_R   0.333380 0.921370 0.667560 -0.429422
O20   O     O_R   0.166620 0.421370 0.332440 -0.463374
O21   O     O_R   0.833380 0.421370 0.667560 -0.462381
O22   O     O_R   0.557170 0.082420 0.312350 -0.498561
O23   O     O_R   0.283230 0.787800 0.346510 -0.475647
O24   O     O_R   0.442830 0.082420 0.687650 -0.509609
O25   O     O_R   0.057170 0.582420 0.312350 -0.514804
O26   O     O_R   0.942830 0.582420 0.687650 -0.500027
O27   O     O_R   0.548310 0.285980 0.316250 -0.487976
O28   O     O_R   0.451690 0.285980 0.683750 -0.483914
O29   O     O_R   0.048310 0.785980 0.316250 -0.490163
O30   O     O_R   0.951690 0.785980 0.683750 -0.487099
O31   O     O_R   0.680520 0.375500 0.327470 -0.481488
O32   O     O_R   0.319480 0.375500 0.672530 -0.458647
O33   O     O_R   0.180520 0.875500 0.327470 -0.483286
O34   O     O_R   0.716770 0.787800 0.653490 -0.485897
O35   O     O_R   0.819480 0.875500 0.672530 -0.451497
O36   O     O_R   0.780350 0.286970 0.193350 -0.491763
O37   O     O_R   0.219650 0.286970 0.806650 -0.493348
O38   O     O_R   0.280350 0.786970 0.193350 -0.498673
O39   O     O_R   0.719650 0.786970 0.806650 -0.489928
O40   O     O_R   0.757460 0.036290 0.196640 -0.488175
O41   O     O_R   0.242540 0.036290 0.803360 -0.493973
O42   O     O_R   0.257460 0.536290 0.196640 -0.487165
O43   O     O_R   0.742540 0.536290 0.803360 -0.511112
O44   O     O_R   0.663740 0.920540 0.179290 -0.513318
O45   O     O_R   0.554500 0.081650 0.170370 -0.469514
O46   O     O_R   0.336260 0.920540 0.820710 -0.501726
O47   O     O_R   0.163740 0.420540 0.179290 -0.498968
O48   O     O_R   0.836260 0.420540 0.820710 -0.488667
O49   O     O_R   0.445500 0.081650 0.829630 -0.497467
O50   O     O_R   0.054500 0.581650 0.170370 -0.497924
O51   O     O_R   0.945500 0.581650 0.829630 -0.508328
O52   O     O_R   0.545430 0.285140 0.163100 -0.460593

loop_
_geom_bond_atom_site_label_1
_geom_bond_atom_site_label_2
_ccdc_geom_bond_type
C19   C56   S    
Cr9   O49   S    
C21   C26   S    
Cr11  O21   S    
C8    C13   S    
C53   C58   S    
C87   C91   T    
C47   H16   S    
C14   C18   S    
C20   C67   S    
C8    C96   S    
C81   O37   A    
C71   O44   A    
C4    C8    S    
C34   O17   A    
C35   C47   S    
C78   H19   S    
C35   H13   S    
C32   H10   S    
C73   O42   A    
C68   O32   A    
Cr10  O50   S    
C27   F12   S    
Cr4   O8    S    
C56   C94   S    
C26   C96   S    
Cr6   O23   S    
C14   H5    S    
C48   H17   S    
C63   C81   S    
Cr7   O39   S    
C50   C59   T    
C80   O36   A    
C62   C80   S    
C1    O14   A    
C75   O45   A    
C27   C37   S    
Cr3   O33   S    
C3    C7    S    
C10   C15   S    
C31   C36   S    
Cr8   O18   S    
C43   O30   A    
C9    C22   S    
C65   C83   S    
C20   C25   S    
C11   C25   S    
C95   F6    S    
C81   O6    A    
Cr12  O31   S    
C29   C33   S    
C79   O51   A    
C30   C38   S    
C4    C78   S    
C11   C16   S    
C72   O46   A    
C76   O49   A    
C67   H18   S    
C66   O1    A    
C69   O33   A    
C46   H15   S    
C15   C19   S    
Cr4   O13   S    
C94   F5    S    
Cr12  O9    S    
C78   C96   S    
C6    C94   S    
C31   C46   S    
Cr3   O11   S    
Cr11  O48   S    
C23   C24   S    
Cr9   O19   S    
C96   F7    S    
Cr1   O9    S    
Cr8   O9    S    
Cr12  O52   S    
C34   O21   A    
C45   C89   S    
C77   O3    A    
C40   O22   A    
C82   O7    A    
Cr2   O28   S    
C75   O52   A    
C33   H11   S    
C11   H20   S    
Cr9   O10   S    
C76   O2    A    
C68   O12   A    
C55   C60   S    
C55   C64   T    
Cr8   O44   S    
C67   C95   S    
C2    C6    S    
C84   C90   T    
Cr10  O47   S    
Cr5   O41   S    
C71   O40   A    
Cr11  O51   S    
Cr11  O13   S    
C43   O26   A    
C44   C46   S    
C70   O35   A    
C7    C11   S    
C66   C89   S    
C54   C59   S    
C44   H14   S    
C80   O5    A    
C22   C34   S    
C41   O28   A    
C4    C70   S    
Cr7   O17   S    
C27   C31   S    
Cr6   O38   S    
C28   C32   S    
Cr7   O43   S    
C23   O20   A    
C50   C73   S    
C18   F8    S    
C91   C92   S    
C9    C14   S    
C70   O34   A    
Cr1   O36   S    
Cr2   O2    S    
Cr5   O12   S    
C28   F2    S    
C41   C84   S    
Cr3   O7    S    
C15   H6    S    
C17   C21   S    
C49   C58   T    
C30   F4    S    
C39   C79   S    
C40   C85   S    
C21   C78   S    
C35   C39   S    
C77   O50   A    
C69   O23   A    
C14   C89   S    
C5    C9    S    
C29   C30   S    
C36   C75   S    
C24   C94   S    
Cr2   O32   S    
C53   C62   T    
C47   C48   S    
Cr3   O29   S    
C16   C20   S    
C42   O25   A    
C23   O16   A    
C29   C39   S    
C32   C44   S    
C83   O39   A    
Cr6   O42   S    
C32   C37   S    
C2    C15   S    
C64   C82   S    
C38   C47   S    
C73   O47   A    
C74   O48   A    
C4    C17   S    
C30   C35   S    
C8    H4    S    
C37   C76   S    
C88   C90   S    
C45   C93   S    
C25   C95   S    
Cr10  O20   S    
Cr4   O30   S    
C1    C26   S    
Cr10  O25   S    
C66   O31   A    
C36   C44   S    
C51   C72   S    
C6    H2    S    
Cr6   O16   S    
C18   C45   S    
C19   F9    S    
Cr5   O37   S    
Cr1   O40   S    
C83   O8    A    
Cr2   O6    S    
C85   C88   T    
Cr3   O3    S    
C20   F10   S    
C21   F11   S    
C56   H12   S    
C13   H21   S    
C3    C69   S    
C18   C22   S    
C43   C86   S    
Cr1   O1    S    
Cr9   O46   S    
C29   F3    S    
C3    C67   S    
C57   C65   T    
C41   O24   A    
C5    H24   S    
C42   O29   A    
C6    C10   S    
C5    C93   S    
C9    H22   S    
C17   H8    S    
C57   C61   S    
C79   O4    A    
C51   C60   T    
C38   C77   S    
C7    C95   S    
C82   O38   A    
C2    C68   S    
C33   C38   S    
Cr9   O24   S    
C13   C17   S    
C12   C25   S    
C52   C61   T    
Cr7   O34   S    
C45   H1    S    
Cr1   O14   S    
C19   C24   S    
C31   H9    S    
C52   C71   S    
C86   C92   T    
C12   O19   A    
Cr2   O10   S    
Cr5   O10   S    
Cr4   O4    S    
Cr8   O45   S    
C22   C93   S    
C10   H23   S    
C12   O15   A    
C13   C26   S    
C16   H7    S    
C72   O41   A    
C1    O18   A    
C74   O43   A    
Cr8   O22   S    
Cr12  O5    S    
Cr5   O15   S    
Cr7   O13   S    
C28   C36   S    
C10   C24   S    
Cr10  O11   S    
C54   C63   T    
Cr12  O27   S    
C27   C28   S    
C33   C48   S    
C49   C74   S    
C2    C56   S    
C42   C87   S    
C37   C46   S    
Cr4   O35   S    
Cr6   O11   S    
C40   O27   A    
C5    C89   S    
C3    C16   S    
C93   F1    S    
C39   C48   S    
C7    H3    S    
Cr11  O26   S    
