data_mof_unit_22608.cif
_audit_creation_date              2012-12-11T16:29:27-0500
_audit_creation_method            fapswitch 2.2
_symmetry_space_group_name_H-M    P1
_symmetry_Int_Tables_number       1
_space_group_crystal_system       triclinic
_cell_length_a                    6.963972
_cell_length_b                    17.207349
_cell_length_c                    18.924903
_cell_angle_alpha                 106.019676
_cell_angle_beta                  89.433913
_cell_angle_gamma                 90.225155
_cell_volume                      2179.62585862

loop_
_atom_site_label
_atom_site_type_symbol
_atom_type_description
_atom_site_fract_x
_atom_site_fract_y
_atom_site_fract_z
_atom_type_partial_charge
O1    O     O_R   0.494360 0.415680 0.413760 -0.534448
O2    O     O_R   0.818810 0.432910 0.557230 -0.536873
O3    O     O_R   0.994290 0.584320 0.586240 -0.541798
C1    C     C_R   0.650371 0.418483 0.582678 0.678388
O4    O     O_R   0.823740 0.406440 0.412520 -0.517585
O5    O     O_R   0.999250 0.557660 0.440500 -0.488961
C2    C     C_R   0.655650 0.382803 0.385347 0.825835
O6    O     O_R   0.489400 0.442340 0.559500 -0.532314
O7    O     O_3   0.662500 0.549650 0.509350 -0.349602
V1    V     V_3+5 0.935340 0.490790 0.498270 1.489072
O8    O     O_R   0.329270 0.567090 0.442770 -0.528558
C3    C     C_R   0.161533 0.582074 0.417780 0.745557
O9    O     O_R   0.324340 0.593560 0.587480 -0.537147
C4    C     C_R   0.154573 0.617398 0.614533 0.667235
V2    V     V_3+5 0.435970 0.509210 0.501730 1.473213
O10   O     O_3   0.158940 0.450350 0.490650 -0.372231
C5    C     C_R   0.002411 0.596400 0.749562 -0.151613
C6    C     C_R   0.930773 0.582477 0.813895 -0.118016
C7    C     C_R   0.920395 0.645274 0.878054 -0.106449
C8    C     C_R   0.981361 0.722456 0.878308 -0.142214
C9    C     C_R   0.051833 0.739138 0.813411 0.068419
C10   C     C_R   0.062793 0.674647 0.747437 0.073927
C11   C     C_R   0.115608 0.817905 0.814483 -0.151941
C12   C     C_R   0.188585 0.832790 0.748715 0.005673
C13   C     C_R   0.203028 0.767614 0.682377 -0.058186
C14   C     C_R   0.138863 0.688057 0.681739 -0.137856
C15   C     C_R   0.252590 0.911181 0.746031 0.044592
C16   C     C_R   0.393027 0.915291 0.693844 -0.238132
C17   C     C_R   0.410695 0.852154 0.630364 0.626691
C18   C     C_R   0.284038 0.786363 0.619263 0.030832
H1    H     H_    0.011410 0.544459 0.702043 0.110574
H2    H     H_    0.885005 0.522325 0.814085 0.125773
H3    H     H_    0.866541 0.634005 0.928181 0.131981
H4    H     H_    0.973789 0.768385 0.930382 0.109364
H5    H     H_    0.466965 0.971536 0.696633 0.152874
C19   C     C_1   0.111061 0.862879 0.131712 -0.218925
C20   C     C_1   0.118332 0.819847 0.174897 -0.001299
C21   C     C_1   0.128013 0.769183 0.226405 0.015581
C22   C     C_1   0.136432 0.726497 0.269875 0.044901
C23   C     C_1   0.146254 0.675897 0.321441 0.071253
C24   C     C_1   0.153862 0.633381 0.365075 -0.121878
C25   C     C_1   0.642092 0.367117 0.635282 -0.205503
C26   C     C_1   0.637737 0.324307 0.678683 -0.005809
C27   C     C_1   0.634049 0.273274 0.729898 0.002500
C28   C     C_1   0.631257 0.230211 0.773095 0.006720
C29   C     C_1   0.627650 0.179214 0.824337 0.002794
C30   C     C_1   0.623557 0.136139 0.867502 -0.173886
H6    H     H_    0.266297 0.165102 0.427041 0.128156
C31   C     C_R   0.789518 0.401198 0.244321 0.494231
C32   C     C_R   0.856208 0.411496 0.178024 0.553098
C33   C     C_R   0.846437 0.348689 0.114377 -0.348351
C34   C     C_R   0.769178 0.274535 0.115596 0.523142
C35   C     C_R   0.704876 0.259998 0.182701 -0.108207
C36   C     C_R   0.716594 0.324964 0.248994 -0.196733
C37   C     C_R   0.623059 0.184166 0.184188 -0.119924
C38   C     C_R   0.551795 0.173567 0.251887 -0.030476
C39   C     C_R   0.570610 0.237368 0.318541 0.008801
C40   C     C_R   0.650798 0.313497 0.317128 -0.112968
C41   C     C_R   0.454553 0.101370 0.256058 0.070450
C42   C     C_R   0.317320 0.109082 0.312528 0.192882
C43   C     C_R   0.348533 0.167175 0.378648 -0.152880
C44   C     C_R   0.500097 0.221567 0.384354 0.083943
H7    H     H_    0.895119 0.358097 0.062831 0.203847
O11   O     O_R   0.775690 0.057750 0.940570 -0.504248
O12   O     O_R   0.441200 0.093570 0.087490 -0.539465
O13   O     O_R   0.265840 0.942320 0.059480 -0.534778
C45   C     C_R   0.609869 0.116765 0.114932 0.820351
O14   O     O_R   0.446270 0.067110 0.942790 -0.536598
O15   O     O_R   0.270950 0.915660 0.913750 -0.535386
C46   C     C_R   0.615148 0.083843 0.919235 0.808227
O16   O     O_R   0.770580 0.084400 0.086300 -0.514366
O17   O     O_3   0.602640 0.950400 0.990690 -0.374072
V3    V     V_3+5 0.329740 0.009200 0.001730 1.441490
O18   O     O_R   0.940900 0.906360 0.912450 -0.546765
C47   C     C_R   0.110023 0.883369 0.885170 0.675145
O19   O     O_R   0.935830 0.932820 0.057160 -0.530128
C48   C     C_R   0.103756 0.915540 0.080211 0.693029
V4    V     V_3+5 0.829130 0.990680 0.998180 1.454676
O20   O     O_3   0.106100 0.049590 0.009310 -0.343466
F1    F     F_    0.522516 0.862557 0.574474 -0.701884
F2    F     F_    0.792647 0.468085 0.302505 -0.657390
F3    F     F_    0.926793 0.484199 0.175193 -0.628608
F4    F     F_    0.753586 0.219116 0.049401 -0.690676
C49   C     C_3   0.525231 0.017130 0.214713 -0.387116
C50   C     C_3   0.540474 0.957950 0.262241 -0.750125
H8    H     H_    0.592515 0.988333 0.318294 0.229755
H9    H     H_    0.399629 0.929775 0.267371 0.223741
H10   H     H_    0.641589 0.908430 0.235851 0.228440
H11   H     H_    0.428384 0.990927 0.169115 0.201172
H12   H     H_    0.671422 0.020742 0.192145 0.172870
C51   C     C_3   0.142370 0.056063 0.304714 -0.375573
C52   C     C_3   0.963191 0.107479 0.307899 -0.762319
H13   H     H_    0.961022 0.160016 0.357579 0.230631
H14   H     H_    0.956556 0.129818 0.258232 0.234398
H15   H     H_    0.835309 0.070552 0.310245 0.236441
H16   H     H_    0.142310 0.008940 0.251213 0.187862
H17   H     H_    0.137766 0.025823 0.349569 0.184985
C53   C     C_3   0.592345 0.251500 0.458790 -0.371953
C54   C     C_3   0.651012 0.181771 0.489895 -0.745700
H18   H     H_    0.522767 0.152711 0.506992 0.228316
H19   H     H_    0.734077 0.135576 0.448480 0.232202
H20   H     H_    0.742529 0.205101 0.538900 0.222548
H21   H     H_    0.726178 0.285176 0.456096 0.165269
H22   H     H_    0.486656 0.289887 0.496654 0.183220
C55   C     C_3   0.156373 0.990065 0.787760 -0.314956
C56   C     C_3   0.090716 0.040053 0.736834 -0.756431
H23   H     H_    0.215348 0.064042 0.712430 0.227643
H24   H     H_    0.999756 0.002715 0.692212 0.241039
H25   H     H_    0.004909 0.092468 0.768843 0.222079
H26   H     H_    0.023538 0.979089 0.815890 0.178646
H27   H     H_    0.256722 0.026739 0.828558 0.187322
C57   C     C_3   0.208209 0.752610 0.542057 -0.322430
C58   C     C_3   0.114507 0.818564 0.513646 -0.682039
H28   H     H_    0.007600 0.852807 0.554311 0.244789
H29   H     H_    0.223299 0.861120 0.502634 0.260723
H30   H     H_    0.038691 0.790649 0.461468 0.207628
H31   H     H_    0.327937 0.724361 0.504817 0.200507
H32   H     H_    0.092666 0.708215 0.539784 0.159795

loop_
_geom_bond_atom_site_label_1
_geom_bond_atom_site_label_2
_ccdc_geom_bond_type
C55   H26   S    
C7    C8    A    
C12   C15   A    
C1    O6    A    
H6    C43   S    
C39   C44   A    
C50   H8    S    
C34   C35   A    
C17   C18   A    
C56   H24   S    
C19   C20   T    
O19   V4    S    
C19   C48   S    
O5    C3    A    
C57   H31   S    
C42   C51   S    
C56   H23   S    
C15   C55   S    
C31   C36   A    
O12   V3    S    
C38   C39   A    
C6    C7    A    
C31   F2    S    
O17   V4    S    
C51   H16   S    
C44   C53   S    
O8    V2    S    
C49   C50   S    
C25   C26   T    
O12   C45   A    
C53   H21   S    
C11   C12   A    
O15   V3    S    
O1    V2    S    
O11   C46   A    
O7    V1    S    
C2    C40   S    
C58   H30   S    
C8    H4    S    
C35   C37   A    
C55   H27   S    
C41   C42   A    
O9    C4    A    
C49   H12   S    
C57   C58   S    
C51   H17   S    
C5    C6    A    
C50   H9    S    
O18   C47   A    
C33   C34   A    
C33   H7    S    
C12   C13   A    
C16   H5    S    
C7    H3    S    
C51   C52   S    
O4    C2    A    
V4    O20   S    
O14   V3    S    
C28   C29   S    
O13   V3    S    
C52   H15   S    
C4    C14   S    
C18   C57   S    
C42   C43   A    
C34   F4    S    
O2    C1    A    
C26   C27   S    
C30   C46   S    
C20   C21   S    
C54   H18   S    
C37   C38   A    
C52   H14   S    
C32   C33   A    
V3    O20   S    
O19   C48   A    
O3    C4    A    
C23   C24   T    
C54   H19   S    
C53   C54   S    
O6    V2    S    
C9    C11   A    
C10   C14   A    
C5    H1    S    
C6    H2    S    
C49   H11   S    
O2    V1    S    
C22   C23   S    
C27   C28   T    
C32   F3    S    
C3    C24   S    
C58   H28   S    
C36   C40   A    
C50   H10   S    
C13   C18   A    
O13   C48   A    
C29   C30   T    
C16   C17   A    
O1    C2    A    
O11   V4    S    
C5    C10   A    
C11   C47   S    
O17   V3    S    
O5    V1    S    
C37   C45   S    
O8    C3    A    
C35   C36   A    
C55   C56   S    
C41   C49   S    
C38   C41   A    
O9    V2    S    
C13   C14   A    
O4    V1    S    
O3    V1    S    
V1    O10   S    
C57   H32   S    
C39   C40   A    
C21   C22   T    
C17   F1    S    
C1    C25   S    
C53   H22   S    
C52   H13   S    
O15   C47   A    
C45   O16   A    
O7    V2    S    
C43   C44   A    
C54   H20   S    
C8    C9    A    
O14   C46   A    
C31   C32   A    
O18   V4    S    
C15   C16   A    
C9    C10   A    
O16   V4    S    
V2    O10   S    
C58   H29   S    
C56   H25   S    
