data_mof_unit_51325.cif
_audit_creation_date              2012-12-11T15:53:51-0500
_audit_creation_method            fapswitch 2.2
_symmetry_space_group_name_H-M    P1
_symmetry_Int_Tables_number       1
_space_group_crystal_system       triclinic
_cell_length_a                    10.647476
_cell_length_b                    10.73811
_cell_length_c                    17.052992
_cell_angle_alpha                 80.941174
_cell_angle_beta                  99.249651
_cell_angle_gamma                 118.761358
_cell_volume                      1679.7269167

loop_
_atom_site_label
_atom_site_type_symbol
_atom_type_description
_atom_site_fract_x
_atom_site_fract_y
_atom_site_fract_z
_atom_type_partial_charge
C1    C     C_R   0.384261 0.283886 0.632147 0.554129
C2    C     C_R   0.419987 0.826327 0.687596 0.249386
C3    C     C_R   0.385588 0.854025 0.756436 -0.136524
C4    C     C_3   0.089770 0.474952 0.780113 -0.191425
C5    C     C_3   0.107239 0.451189 0.697589 0.146707
C6    C     C_R   0.324149 0.697563 0.650672 -0.023141
C7    C     C_1   0.825009 0.657025 0.705730 -0.044563
C8    C     C_1   0.852837 0.684198 0.773624 -0.071132
C9    C     C_1   0.364211 0.232853 0.714359 -0.052931
C10   C     C_1   0.333315 0.185914 0.781478 -0.059871
C11   C     C_1   0.335439 0.663240 0.277708 -0.043282
C12   C     C_R   0.371940 0.654456 0.587932 0.532944
C13   C     C_1   0.323304 0.673273 0.206972 -0.045431
C14   C     C_R   0.867009 0.685145 0.167236 0.023323
C15   C     C_R   0.903878 0.594657 0.222247 0.039218
C16   C     C_R   0.896005 0.587763 0.301988 0.014337
C17   C     C_R   0.838449 0.783442 0.277218 -0.158395
C18   C     C_R   0.847629 0.789761 0.195774 -0.159077
C19   C     C_3   0.856300 0.439651 0.222559 -0.261958
C20   C     C_3   0.847707 0.429917 0.310983 -0.280030
C21   C     C_R   0.847619 0.671606 0.329536 0.016456
C22   C     C_R   0.338377 0.182225 0.155652 0.017885
C23   C     C_R   0.777750 0.619331 0.626593 0.552148
C24   C     C_R   0.267775 0.249035 0.179081 0.015826
C25   C     C_R   0.272563 0.261137 0.258188 0.037071
C26   C     C_R   0.439045 0.164957 0.292614 -0.169905
C27   C     C_R   0.436877 0.154603 0.211931 -0.165729
C28   C     C_3   0.115988 0.227044 0.163120 -0.272184
C29   C     C_3   0.122719 0.241356 0.250888 -0.268606
C30   C     C_R   0.345283 0.205741 0.316497 0.024570
C31   C     C_R   0.892883 0.702052 0.855718 0.539920
C32   C     C_R   0.279888 0.752283 0.883451 0.577350
C33   C     C_R   0.286466 0.117992 0.858262 0.539553
C34   C     C_R   0.353649 0.231696 0.397588 0.560983
C35   C     C_R   0.892468 0.693842 0.085811 0.550453
C36   C     C_R   0.313004 0.701107 0.123883 0.560572
C37   C     C_R   0.287984 0.111350 0.083566 0.555127
C38   C     C_R   0.365098 0.653688 0.360748 0.553694
C39   C     C_R   0.774880 0.623601 0.401120 0.549249
C40   C     C_R   0.275488 0.745106 0.798213 -0.058210
C41   C     C_R   0.171055 0.630746 0.756371 -0.028012
C42   C     C_R   0.191692 0.610061 0.682195 0.015225
Cr1   Cr    Cr6+3 0.608440 0.389080 0.519680 1.044490
Cr2   Cr    Cr6+3 0.288640 0.400090 0.490760 0.968326
Cr3   Cr    Cr6+3 0.602940 0.710800 0.489510 1.017904
Cr4   Cr    Cr6+3 0.052530 0.947560 0.964210 1.004292
Cr5   Cr    Cr6+3 0.059970 0.626800 0.992920 1.005708
Cr6   Cr    Cr6+3 0.373320 0.938440 0.995370 1.010130
H1    H     H_    0.736086 0.363154 0.327546 0.165314
H2    H     H_    0.929673 0.402934 0.346448 0.121399
H3    H     H_    0.507982 0.134710 0.336144 0.128274
H4    H     H_    0.499543 0.109417 0.195506 0.143491
H5    H     H_    0.035749 0.118651 0.146650 0.159699
H6    H     H_    0.108307 0.316365 0.123547 0.146201
H7    H     H_    0.120468 0.339349 0.262124 0.143889
H8    H     H_    0.048596 0.141241 0.284246 0.139298
H9    H     H_    0.461521 0.950582 0.784099 0.156060
H10   H     H_    0.976809 0.441899 0.790029 0.183055
H11   H     H_    0.149645 0.437149 0.828958 0.112118
H12   H     H_    0.172317 0.394252 0.700453 0.100021
H13   H     H_    0.808672 0.855746 0.297140 0.137152
H14   H     H_    0.832592 0.870954 0.155250 0.128210
H15   H     H_    0.942596 0.419367 0.208168 0.143652
O1    O     O_R   0.754020 0.497590 0.609930 -0.459668
O2    O     O_R   0.295080 0.533620 0.397890 -0.514613
O3    O     O_R   0.485280 0.746620 0.388440 -0.510120
O4    O     O_R   0.720550 0.696220 0.420010 -0.504947
O5    O     O_3   0.500010 0.499990 0.499980 -0.270006
O6    O     O_R   0.163320 0.092900 0.874450 -0.515623
O7    O     O_R   0.934650 0.822080 0.882840 -0.505162
O8    O     O_R   0.915520 0.604140 0.893670 -0.518127
O9    O     O_R   0.191760 0.638110 0.923230 -0.500721
O10   O     O_R   0.406180 0.826930 0.920660 -0.522024
O11   O     O_R   0.358620 0.062870 0.901950 -0.516115
O12   O     O_R   0.481420 0.271390 0.600630 -0.463029
O13   O     O_R   0.163910 0.085460 0.050210 -0.520534
O14   O     O_R   0.935200 0.815170 0.045770 -0.501429
O15   O     O_R   0.916120 0.596690 0.069430 -0.519078
O16   O     O_R   0.192310 0.631200 0.086170 -0.504381
O17   O     O_R   0.406770 0.819480 0.096420 -0.509904
O18   O     O_R   0.359170 0.055960 0.064880 -0.508113
O19   O     O_3   0.161940 0.837600 0.984160 -0.271780
O20   O     O_R   0.263810 0.254550 0.589590 -0.532062
O21   O     O_R   0.300820 0.531200 0.560890 -0.538223
O22   O     O_R   0.491480 0.744020 0.564270 -0.458843
O23   O     O_R   0.726290 0.693800 0.583010 -0.519771
O24   O     O_R   0.747830 0.500190 0.434090 -0.536527
O25   O     O_R   0.475680 0.273800 0.437630 -0.498384
O26   O     O_R   0.257620 0.257160 0.413750 -0.521223
O27   O     O_3   0.557277 0.915735 0.665099 -0.525549
C43   C     C_3   0.655258 0.879887 0.717573 0.008334
H16   H     H_    0.636006 0.771500 0.708725 0.144068
H17   H     H_    0.646161 0.882262 0.781453 0.123472
C44   C     C_3   0.808554 0.986643 0.701310 -0.359647
H18   H     H_    0.831408 0.093475 0.715206 0.163606
H19   H     H_    0.885770 0.957123 0.740275 0.130251
H20   H     H_    0.823708 0.988807 0.638112 0.152862
H21   H     H_    0.749644 0.382575 0.188255 0.143552
O28   O     O_3   0.972572 0.398361 0.650648 -0.534629
C45   C     C_3   0.961337 0.308554 0.594694 0.001183
H22   H     H_    0.849556 0.220139 0.591394 0.147375
H23   H     H_    0.032072 0.257081 0.611154 0.132212
C46   C     C_3   0.984265 0.387308 0.511788 -0.322586
H24   H     H_    0.051062 0.504216 0.514291 0.186573
H25   H     H_    0.036011 0.346971 0.478077 0.118243
H26   H     H_    0.878352 0.366030 0.479497 0.136680

loop_
_geom_bond_atom_site_label_1
_geom_bond_atom_site_label_2
_ccdc_geom_bond_type
C5    C42   S    
C16   C21   A    
C41   C42   A    
C14   C18   A    
C19   C20   S    
Cr5   O16   S    
Cr2   O20   S    
Cr4   O13   S    
C7    C8    T    
C32   O9    A    
C15   C19   S    
C26   C27   A    
C12   O22   A    
Cr1   O25   S    
C28   C29   S    
C6    C12   S    
C4    C41   S    
C15   C16   A    
Cr6   O18   S    
C12   O21   A    
Cr5   O19   S    
C2    O27   S    
Cr4   O6    S    
C20   H2    S    
C46   H24   S    
C17   H13   S    
Cr4   O19   S    
C31   O7    A    
C5    O28   S    
C19   H15   S    
Cr1   O5    S    
C23   O23   A    
Cr3   O4    S    
C39   O24   A    
C46   H26   S    
C9    C10   T    
C33   O6    A    
C31   O8    A    
Cr1   O12   S    
C37   O18   A    
Cr2   O2    S    
C2    C6    A    
C19   H21   S    
Cr1   O1    S    
C25   C29   S    
C30   C34   S    
C1    O12   A    
Cr6   O11   S    
C1    C9    S    
C24   C25   A    
C13   C36   S    
C36   O17   A    
C14   C35   S    
C28   H6    S    
C18   H14   S    
C29   H7    S    
C44   H20   S    
C22   C37   S    
C35   O14   A    
C45   C46   S    
C17   C21   A    
C11   C38   S    
Cr3   O22   S    
C20   H1    S    
C43   H17   S    
O28   C45   S    
C21   C39   S    
C38   O2    A    
C16   C20   S    
Cr3   O5    S    
C45   H23   S    
C17   C18   A    
C46   H25   S    
C34   O25   A    
C44   H19   S    
Cr5   O8    S    
C3    H9    S    
C23   O1    A    
C37   O13   A    
C3    C40   A    
C26   C30   A    
C22   C27   A    
C22   C24   A    
Cr2   O5    S    
C43   H16   S    
C27   H4    S    
C25   C30   A    
C38   O3    A    
C40   C41   A    
C5    H12   S    
C8    C31   S    
C39   O4    A    
Cr6   O10   S    
C24   C28   S    
C4    C5    S    
Cr2   O21   S    
C36   O16   A    
Cr4   O14   S    
C28   H5    S    
C29   H8    S    
C1    O20   A    
C35   O15   A    
Cr1   O24   S    
Cr6   O17   S    
Cr3   O23   S    
C34   O26   A    
C26   H3    S    
C43   C44   S    
C11   C13   T    
O27   C43   S    
C7    C23   S    
C4    H11   S    
C45   H22   S    
Cr6   O19   S    
C2    C3    A    
C10   C33   S    
C32   C40   S    
C44   H18   S    
Cr5   O9    S    
Cr4   O7    S    
C33   O11   A    
C6    C42   A    
C4    H10   S    
Cr3   O3    S    
C14   C15   A    
Cr5   O15   S    
C32   O10   A    
Cr2   O26   S    
