data_mof_unit_62150.cif
_audit_creation_date              2012-12-10T21:41:28-0500
_audit_creation_method            fapswitch 2.2
_symmetry_space_group_name_H-M    P1
_symmetry_Int_Tables_number       1
_space_group_crystal_system       triclinic
_cell_length_a                    23.723018
_cell_length_b                    23.917029
_cell_length_c                    16.19394
_cell_angle_alpha                 89.859364
_cell_angle_beta                  94.068769
_cell_angle_gamma                 90.004877
_cell_volume                      9164.99874362

loop_
_atom_site_label
_atom_site_type_symbol
_atom_type_description
_atom_site_fract_x
_atom_site_fract_y
_atom_site_fract_z
_atom_type_partial_charge
C1    C     C_R   0.575132 0.077354 0.511249 0.876439
C2    C     C_R   0.424865 0.922641 0.488763 0.891544
C3    C     C_R   0.424803 0.077317 0.488606 0.883569
C4    C     C_R   0.575043 0.922523 0.511350 0.891390
C5    C     C_R   0.075069 0.577412 0.511197 0.879738
C6    C     C_R   0.924933 0.422596 0.488789 0.862126
C7    C     C_R   0.924855 0.577384 0.488641 0.892367
C8    C     C_R   0.075254 0.422736 0.511417 0.885479
C9    C     C_R   0.511553 0.004764 0.109840 0.261921
C10   C     C_R   0.483413 0.997610 0.888794 0.292807
C11   C     C_R   0.016597 0.502498 0.111220 0.293596
C12   C     C_R   0.988501 0.495300 0.890170 0.263856
C13   C     C_R   0.561222 0.001392 0.160864 -0.312732
C14   C     C_R   0.434796 0.998076 0.834547 -0.402790
C15   C     C_R   0.065210 0.502253 0.165477 -0.401462
C16   C     C_R   0.938807 0.498320 0.839156 -0.315334
C17   C     C_R   0.560105 0.998190 0.246881 0.193306
C18   C     C_R   0.438776 0.999411 0.748433 0.233708
C19   C     C_R   0.061225 0.500855 0.251585 0.221375
C20   C     C_R   0.939886 0.501454 0.753134 0.182687
C21   C     C_R   0.614483 0.876415 0.519647 -0.059509
C22   C     C_R   0.384791 0.122916 0.480221 -0.072220
C23   C     C_R   0.384885 0.877036 0.480789 -0.070168
C24   C     C_R   0.615107 0.122950 0.519285 -0.073764
C25   C     C_R   0.115488 0.377341 0.520021 -0.089130
C26   C     C_R   0.884463 0.622667 0.480360 -0.060836
C27   C     C_R   0.884375 0.377565 0.480271 -0.095226
C28   C     C_R   0.115543 0.622537 0.519640 -0.092703
C29   C     C_R   0.614204 0.834826 0.458560 0.057394
C30   C     C_R   0.386655 0.166233 0.538868 0.072660
C31   C     C_R   0.385933 0.834455 0.540891 0.074786
C32   C     C_R   0.613774 0.165787 0.459584 0.071736
C33   C     C_R   0.113862 0.333829 0.461804 0.071256
C34   C     C_R   0.883789 0.664050 0.541611 0.054120
C35   C     C_R   0.886860 0.332140 0.535980 0.048498
C36   C     C_R   0.113260 0.667701 0.463447 0.051342
C37   C     C_R   0.654688 0.792967 0.465712 -0.255781
C38   C     C_R   0.345035 0.207231 0.532127 -0.244235
C39   C     C_R   0.344113 0.793698 0.534707 -0.242479
C40   C     C_R   0.655590 0.206559 0.465763 -0.239972
C41   C     C_R   0.155533 0.292907 0.469206 -0.220805
C42   C     C_R   0.841980 0.704617 0.535134 -0.250652
C43   C     C_R   0.845569 0.291312 0.527572 -0.178382
C44   C     C_R   0.154415 0.708651 0.471920 -0.179187
C45   C     C_R   0.695728 0.792682 0.532825 0.290577
C46   C     C_R   0.301836 0.204997 0.468005 0.290512
C47   C     C_R   0.301520 0.795406 0.469655 0.284899
C48   C     C_R   0.698441 0.204613 0.530449 0.285069
C49   C     C_R   0.198645 0.295341 0.533541 0.259263
C50   C     C_R   0.800514 0.703791 0.468579 0.293681
C51   C     C_R   0.801287 0.295721 0.465365 0.263082
C52   C     C_R   0.198398 0.704610 0.534627 0.262499
C53   C     C_R   0.693260 0.831587 0.596926 0.110952
C54   C     C_R   0.302594 0.164122 0.406396 0.110191
C55   C     C_R   0.303357 0.835245 0.406439 0.109022
C56   C     C_R   0.696871 0.164506 0.593347 0.108983
C57   C     C_R   0.197310 0.336533 0.595280 0.109748
C58   C     C_R   0.803611 0.664944 0.404509 0.112148
C59   C     C_R   0.801060 0.338662 0.406460 0.110750
C60   C     C_R   0.198436 0.661932 0.593921 0.110895
C61   C     C_R   0.652555 0.873711 0.589707 -0.302684
C62   C     C_R   0.344275 0.122963 0.413034 -0.300283
C63   C     C_R   0.345141 0.876302 0.412639 -0.298179
C64   C     C_R   0.655099 0.123435 0.587132 -0.297031
C65   C     C_R   0.155804 0.377569 0.587394 -0.265973
C66   C     C_R   0.845850 0.624288 0.410841 -0.307704
C67   C     C_R   0.842916 0.379611 0.414304 -0.284531
C68   C     C_R   0.156703 0.620868 0.586029 -0.280723
C69   C     C_R   0.459867 0.003150 0.235701 0.179843
C70   C     C_R   0.538929 0.999262 0.766562 0.165023
C71   C     C_R   0.961072 0.500520 0.233434 0.167165
C72   C     C_R   0.040157 0.497197 0.764288 0.178046
C73   C     C_R   0.459532 0.005880 0.147666 -0.029673
C74   C     C_R   0.536846 0.997580 0.854078 -0.027833
C75   C     C_R   0.963157 0.502238 0.145922 -0.025891
C76   C     C_R   0.040524 0.494516 0.852330 -0.028926
H1    H     H_    0.345726 0.240517 0.577447 0.150808
H2    H     H_    0.654803 0.761337 0.417917 0.159174
H3    H     H_    0.655297 0.239382 0.419509 0.156584
H4    H     H_    0.344199 0.761066 0.581238 0.156437
H5    H     H_    0.841338 0.736234 0.582883 0.167166
H6    H     H_    0.154983 0.259497 0.424091 0.155152
H7    H     H_    0.152868 0.743120 0.428243 0.176873
H8    H     H_    0.847269 0.256636 0.570893 0.177030
H9    H     H_    0.651763 0.905424 0.637231 0.159195
H10   H     H_    0.343768 0.089717 0.367760 0.156524
H11   H     H_    0.345498 0.908809 0.365975 0.157918
H12   H     H_    0.654934 0.090726 0.633520 0.159902
H13   H     H_    0.156295 0.410873 0.632600 0.165256
H14   H     H_    0.847260 0.592660 0.363291 0.158228
H15   H     H_    0.842016 0.414168 0.370823 0.156114
H16   H     H_    0.157487 0.586510 0.629830 0.155905
H17   H     H_    0.601522 0.000412 0.133249 0.179722
H18   H     H_    0.393537 0.997339 0.859270 0.169212
H19   H     H_    0.106469 0.503208 0.140766 0.169307
H20   H     H_    0.898504 0.499013 0.866781 0.178685
N1    N     N_2   0.741302 0.755016 0.535677 -0.188982
N2    N     N_2   0.256208 0.242611 0.465507 -0.177036
N3    N     N_2   0.255491 0.758257 0.467450 -0.189413
N4    N     N_2   0.744475 0.241764 0.532578 -0.189103
N5    N     N_2   0.244277 0.257705 0.535690 -0.208372
N6    N     N_2   0.754543 0.740984 0.465647 -0.180282
N7    N     N_2   0.755412 0.258435 0.462601 -0.178950
N8    N     N_2   0.244214 0.741957 0.537463 -0.179794
N9    N     N_R   0.509690 1.000000 0.283730 -0.103999
N10   N     N_R   0.490310 1.000000 0.716270 -0.086549
N11   N     N_R   0.009690 0.500000 0.283730 -0.088662
N12   N     N_R   0.990310 0.500000 0.716270 -0.105429
N13   N     N_2   0.517509 0.008841 0.022450 -0.128362
N14   N     N_2   0.475740 0.994474 0.976014 -0.125675
N15   N     N_2   0.024270 0.505703 0.024006 -0.125357
N16   N     N_2   0.982565 0.491185 0.977560 -0.128603
O1    O     O_R   0.554580 0.058040 0.577230 -0.606923
O2    O     O_R   0.445420 0.941960 0.422770 -0.605764
O3    O     O_R   0.445420 0.058040 0.422770 -0.607325
O4    O     O_R   0.554580 0.941960 0.577230 -0.610007
O5    O     O_R   0.054580 0.558040 0.577230 -0.591637
O6    O     O_R   0.945420 0.441960 0.422770 -0.593264
O7    O     O_R   0.945420 0.558040 0.422770 -0.612423
O8    O     O_R   0.054580 0.441960 0.577230 -0.613293
O9    O     O_R   0.560810 0.058060 0.438340 -0.612544
O10   O     O_R   0.439190 0.941940 0.561660 -0.580743
O11   O     O_R   0.439190 0.058060 0.561660 -0.578949
O12   O     O_R   0.560810 0.941940 0.438340 -0.616162
O13   O     O_R   0.060810 0.558060 0.438340 -0.615306
O14   O     O_R   0.939190 0.441940 0.561660 -0.647073
O15   O     O_R   0.939190 0.558060 0.561660 -0.611357
O16   O     O_R   0.060810 0.441940 0.438340 -0.571936
Zn1   Zn    Zn3+2 0.495820 1.000000 0.592740 0.988492
Zn2   Zn    Zn3+2 0.504180 1.000000 0.407260 0.962235
Zn3   Zn    Zn3+2 0.995820 0.500000 0.592740 0.949902
Zn4   Zn    Zn3+2 0.004180 0.500000 0.407260 0.978243
N17   N     N_3   0.430811 0.168411 0.604452 -0.425484
H21   H     H_    0.468742 0.176355 0.577372 0.170247
H22   H     H_    0.424448 0.201865 0.644190 0.177473
N18   N     N_3   0.572631 0.834689 0.389828 -0.440621
H23   H     H_    0.593694 0.836203 0.335292 0.188644
H24   H     H_    0.550549 0.796874 0.390588 0.177747
N19   N     N_3   0.569975 0.167689 0.393447 -0.422756
H25   H     H_    0.531909 0.176066 0.419853 0.171441
H26   H     H_    0.576719 0.200774 0.352986 0.180246
N20   N     N_3   0.429445 0.832792 0.607448 -0.425316
H27   H     H_    0.467634 0.824195 0.581527 0.176261
H28   H     H_    0.422455 0.799934 0.648194 0.177417
N21   N     N_3   0.925745 0.665295 0.609821 -0.438346
H29   H     H_    0.946589 0.703790 0.608901 0.186506
H30   H     H_    0.905101 0.662952 0.664672 0.186818
N22   N     N_3   0.069905 0.331375 0.395958 -0.423005
H31   H     H_    0.031885 0.323484 0.422826 0.174077
H32   H     H_    0.076446 0.297790 0.356539 0.180527
N23   N     N_3   0.069323 0.673678 0.398502 -0.453932
H33   H     H_    0.030147 0.669825 0.423791 0.191235
H34   H     H_    0.073473 0.642039 0.354992 0.214180
N24   N     N_3   0.931152 0.325782 0.600319 -0.454613
H35   H     H_    0.970150 0.329625 0.574502 0.182872
H36   H     H_    0.927409 0.357287 0.644155 0.215399
N25   N     N_3   0.734292 0.829685 0.666552 -0.450052
H37   H     H_    0.728197 0.862950 0.706754 0.176060
H38   H     H_    0.727051 0.793072 0.699578 0.181858
N26   N     N_3   0.259483 0.163572 0.339424 -0.450010
H39   H     H_    0.267585 0.132179 0.297011 0.175532
H40   H     H_    0.221339 0.153160 0.364235 0.184046
N27   N     N_3   0.260748 0.835304 0.338782 -0.448060
H41   H     H_    0.266615 0.869083 0.299171 0.175460
H42   H     H_    0.266330 0.799099 0.304244 0.184013
N28   N     N_3   0.739733 0.164202 0.660664 -0.446837
H43   H     H_    0.734035 0.130257 0.700039 0.176701
H44   H     H_    0.734280 0.200259 0.695588 0.184321
N29   N     N_3   0.239058 0.339684 0.664012 -0.462322
H45   H     H_    0.218193 0.333695 0.718088 0.177495
H46   H     H_    0.268753 0.307568 0.662495 0.193144
N30   N     N_3   0.762373 0.665948 0.335098 -0.450315
H47   H     H_    0.772106 0.636031 0.291318 0.174511
H48   H     H_    0.723555 0.654268 0.356677 0.179443
N31   N     N_3   0.756894 0.341395 0.341090 -0.448491
H49   H     H_    0.764311 0.374241 0.300515 0.173826
H50   H     H_    0.719275 0.350834 0.368017 0.181073
N32   N     N_3   0.242307 0.659569 0.659747 -0.449063
H51   H     H_    0.234764 0.626888 0.700546 0.175458
H52   H     H_    0.280100 0.650080 0.633327 0.182302
N33   N     N_3   0.591838 0.999689 0.729296 -0.402773
H53   H     H_    0.614449 0.963812 0.747951 0.152326
H54   H     H_    0.614782 0.034764 0.750389 0.153403
N34   N     N_3   0.407983 0.003672 0.275582 -0.396093
H55   H     H_    0.386013 0.040233 0.258570 0.154000
H56   H     H_    0.383705 0.969401 0.254703 0.149369
N35   N     N_3   0.092035 0.496968 0.724385 -0.395623
H57   H     H_    0.114264 0.460580 0.741521 0.153038
H58   H     H_    0.116070 0.531436 0.745123 0.154097
N36   N     N_3   0.908164 0.499829 0.270697 -0.404001
H59   H     H_    0.885349 0.535569 0.251975 0.151376
H60   H     H_    0.885422 0.464607 0.249694 0.155891
N37   N     N_3   0.588134 0.994076 0.906397 -0.443760
H61   H     H_    0.613182 0.028888 0.895429 0.180726
H62   H     H_    0.609911 0.957914 0.891491 0.178192
N38   N     N_3   0.407337 0.011439 0.097947 -0.441042
H63   H     H_    0.381550 0.977262 0.109379 0.178205
H64   H     H_    0.387128 0.048033 0.114975 0.179636
N39   N     N_3   0.092763 0.489334 0.902040 -0.441097
H65   H     H_    0.118320 0.523667 0.890510 0.180180
H66   H     H_    0.113212 0.452857 0.885097 0.178597
N40   N     N_3   0.911855 0.505490 0.093596 -0.444434
H67   H     H_    0.886980 0.470558 0.104585 0.180959
H68   H     H_    0.889898 0.541546 0.108477 0.178496
N41   N     N_3   0.613026 0.991719 0.293766 -0.458431
H69   H     H_    0.618200 0.023197 0.337834 0.231524
H70   H     H_    0.614482 0.952404 0.321705 0.215762
N42   N     N_3   0.388654 0.999814 0.694024 -0.382296
H71   H     H_    0.365140 0.964142 0.706273 0.175719
H72   H     H_    0.364759 0.034813 0.708080 0.173063
N43   N     N_3   0.111341 0.500669 0.306009 -0.385404
H73   H     H_    0.135422 0.465807 0.291921 0.178453
H74   H     H_    0.134666 0.536475 0.293814 0.163195
N44   N     N_3   0.886893 0.507379 0.706262 -0.465196
H75   H     H_    0.881773 0.475496 0.662835 0.220828
H76   H     H_    0.885189 0.546454 0.677613 0.217970

loop_
_geom_bond_atom_site_label_1
_geom_bond_atom_site_label_2
_ccdc_geom_bond_type
N10   Zn1   S    
C71   C75   A    
N36   H59   S    
C43   H8    S    
N42   H72   S    
C71   N11   A    
N39   H66   S    
O8    Zn3   S    
C2    O2    A    
N29   H45   S    
C14   C18   A    
C58   N30   S    
N15   N16   D    
C34   C42   A    
C35   N24   S    
O9    Zn2   S    
C72   C76   A    
C44   H7    S    
C18   N10   A    
N32   H51   S    
C49   C57   A    
C66   H14   S    
N33   H53   S    
C15   C19   A    
C62   H10   S    
C30   C38   A    
N25   H37   S    
C7    C26   S    
N40   H68   S    
C19   N43   S    
C47   C55   A    
N27   H42   S    
N22   H32   S    
C59   N31   S    
C15   H19   S    
C34   N21   S    
N44   H76   S    
C51   N7    S    
C47   N3    S    
N34   H55   S    
C4    O12   A    
C40   C48   A    
C9    C13   A    
N12   Zn3   S    
C52   C60   A    
C59   C67   A    
C11   C15   A    
C26   C34   A    
O4    Zn1   S    
C12   C16   A    
N30   H48   S    
N42   H71   S    
N37   H62   S    
C7    O7    A    
C55   C63   A    
C70   C74   A    
N23   H33   S    
C56   C64   A    
C69   C73   A    
C10   C74   A    
C35   C43   A    
O10   Zn1   S    
N24   H36   S    
N1    N6    D    
C44   C52   A    
N33   H54   S    
N3    N8    D    
C46   N2    S    
C74   N37   S    
C45   C53   A    
N39   H65   S    
N25   H38   S    
O11   Zn1   S    
N28   H44   S    
C8    C25   S    
O2    Zn2   S    
C54   N26   S    
C42   H5    S    
C53   C61   A    
O16   Zn4   S    
C41   C49   A    
N21   H30   S    
C75   N40   S    
C3    O11   A    
N21   H29   S    
C57   N29   S    
C2    C23   S    
C2    O10   A    
C9    N13   S    
C48   N4    S    
C16   H20   S    
N35   H58   S    
N40   H67   S    
C11   N15   S    
C26   C66   A    
C72   N12   A    
C25   C65   A    
N22   H31   S    
C6    O14   A    
C32   N19   S    
N38   H64   S    
C10   C14   A    
C3    O3    A    
C69   N9    A    
N44   H75   S    
N11   Zn4   S    
C54   C62   A    
C27   C35   A    
N41   H69   S    
C39   C47   A    
C21   C29   A    
N4    N7    D    
C13   H17   S    
C5    O5    A    
C65   H13   S    
C24   C32   A    
C72   N35   S    
C33   N22   S    
C17   N9    A    
C22   C62   A    
C5    C28   S    
C8    O16   A    
C37   C45   A    
C70   N33   S    
C6    C27   S    
C31   C39   A    
C16   C20   A    
C30   N17   S    
C46   C54   A    
C67   H15   S    
O7    Zn4   S    
C40   H3    S    
O12   Zn2   S    
O6    Zn4   S    
C60   C68   A    
N24   H35   S    
C61   H9    S    
C42   C50   A    
N18   H24   S    
C50   C58   A    
N43   H74   S    
C5    O13   A    
C50   N6    S    
N31   H50   S    
C12   C76   A    
C70   N10   A    
N17   H21   S    
N20   H28   S    
C36   C44   A    
C51   C59   A    
C56   N28   S    
C12   N16   S    
C32   C40   A    
N30   H47   S    
C8    O8    A    
C58   C66   A    
N29   H46   S    
C48   C56   A    
C52   N8    S    
N36   H60   S    
C22   C30   A    
C1    O9    A    
C63   H11   S    
C21   C61   A    
C9    C73   A    
N26   H40   S    
C57   C65   A    
N38   H63   S    
C28   C68   A    
C76   N39   S    
C20   N44   S    
N32   H52   S    
N19   H25   S    
C36   N23   S    
N9    Zn2   S    
C38   H1    S    
N2    N5    D    
C14   H18   S    
C37   H2    S    
C53   N25   S    
N34   H56   S    
C13   C17   A    
C18   N42   S    
C33   C41   A    
N26   H39   S    
C31   N20   S    
C17   N41   S    
C4    O4    A    
N35   H57   S    
N31   H49   S    
C11   C75   A    
N13   N14   D    
C39   H4    S    
C49   N5    S    
C4    C21   S    
N19   H26   S    
O13   Zn4   S    
C43   C51   A    
N28   H43   S    
O14   Zn3   S    
C41   H6    S    
C23   C63   A    
C68   H16   S    
C6    O6    A    
C10   N14   S    
N23   H34   S    
C71   N36   S    
O5    Zn3   S    
O15   Zn3   S    
C38   C46   A    
N27   H41   S    
C25   C33   A    
C1    O1    A    
C69   N34   S    
C55   N27   S    
N43   H73   S    
C29   N18   S    
C28   C36   A    
C1    C24   S    
C24   C64   A    
N37   H61   S    
C73   N38   S    
C29   C37   A    
C27   C67   A    
N17   H22   S    
N20   H27   S    
N18   H23   S    
C3    C22   S    
C45   N1    S    
C7    O15   A    
O1    Zn1   S    
N41   H70   S    
C60   N32   S    
C64   H12   S    
C23   C31   A    
C20   N12   A    
O3    Zn2   S    
C19   N11   A    
