data_mof_unit_62318.cif
_audit_creation_date              2012-12-10T16:57:12-0500
_audit_creation_method            fapswitch 2.2
_symmetry_space_group_name_H-M    P1
_symmetry_Int_Tables_number       1
_space_group_crystal_system       triclinic
_cell_length_a                    20.699581
_cell_length_b                    15.989936
_cell_length_c                    13.054368
_cell_angle_alpha                 89.910901
_cell_angle_beta                  91.21118
_cell_angle_gamma                 89.926954
_cell_volume                      4319.82539098

loop_
_atom_site_label
_atom_site_type_symbol
_atom_type_description
_atom_site_fract_x
_atom_site_fract_y
_atom_site_fract_z
_atom_type_partial_charge
C1    C     C_R   0.620761 0.838683 0.472586 0.500724
C2    C     C_2   0.998127 0.548543 0.945032 -0.057977
C3    C     C_R   0.378696 0.159761 0.529865 0.507930
C4    C     C_R   0.378519 0.840468 0.529996 0.502370
C5    C     C_R   0.878708 0.659758 0.529861 0.505220
C6    C     C_R   0.878491 0.340491 0.529957 0.503550
C7    C     C_R   0.530115 0.001787 0.773187 0.508182
C8    C     C_R   0.030242 0.502369 0.772908 0.512717
C9    C     C_R   0.472209 0.000099 0.226420 0.500954
C10   C     C_R   0.970662 0.500066 0.227365 0.504347
C11   C     C_2   0.326522 0.779158 0.538964 -0.000674
C12   C     C_R   0.622270 0.158740 0.467428 0.504981
C13   C     C_2   0.327453 0.222166 0.537890 0.000129
C14   C     C_2   0.826425 0.279248 0.538850 -0.001417
C15   C     C_2   0.827527 0.722209 0.537891 -0.000076
C16   C     C_2   0.291195 0.757745 0.455289 -0.161379
C17   C     C_2   0.265471 0.197173 0.541308 -0.159708
C18   C     C_2   0.791246 0.257656 0.455084 -0.162452
C19   C     C_2   0.765533 0.697291 0.541349 -0.159888
C20   C     C_2   0.675174 0.218931 0.449492 -0.016911
C21   C     C_2   0.669370 0.770904 0.469541 -0.017152
C22   C     C_2   0.175161 0.718939 0.449534 -0.014850
C23   C     C_R   0.120771 0.338700 0.472551 0.503850
C24   C     C_2   0.169442 0.271010 0.469346 -0.015714
C25   C     C_2   0.738374 0.195975 0.459726 -0.062143
C26   C     C_2   0.711862 0.757558 0.548980 -0.056835
C27   C     C_2   0.238359 0.696030 0.459956 -0.059919
C28   C     C_2   0.211723 0.257342 0.548983 -0.055484
C29   C     C_2   0.471372 0.999696 0.112667 -0.017720
C30   C     C_2   0.965365 0.500129 0.115199 -0.024159
C31   C     C_1   0.758089 0.109775 0.475555 0.260463
C32   C     C_1   0.707376 0.801150 0.646008 0.263556
C33   C     C_1   0.258100 0.609863 0.476026 0.262400
C34   C     C_R   0.122267 0.658740 0.467436 0.507642
C35   C     C_1   0.206735 0.300241 0.646405 0.267413
C36   C     C_1   0.657651 0.304238 0.423656 0.219900
C37   C     C_1   0.672008 0.720813 0.377337 0.208630
C38   C     C_1   0.157627 0.804221 0.423582 0.217761
C39   C     C_1   0.172407 0.221433 0.376764 0.206325
C40   C     C_1   0.311123 0.748373 0.639974 0.227445
C41   C     C_1   0.344978 0.309726 0.533889 0.232047
C42   C     C_1   0.810771 0.248768 0.639885 0.231007
C43   C     C_1   0.845121 0.809743 0.533642 0.231640
C44   C     C_1   0.454682 0.114344 0.895832 0.249257
C45   C     C_2   0.503601 0.057847 0.056916 -0.071845
C46   C     C_1   0.943723 0.595486 0.902789 0.254016
C47   C     C_1   0.539410 0.125500 0.105142 0.223552
C48   C     C_1   0.054883 0.600183 0.103340 0.236048
C49   C     C_R   0.592201 0.956146 0.933759 0.023958
C50   C     C_R   0.590802 0.868879 0.921863 -0.062798
C51   C     C_R   0.639084 0.819146 0.967348 -0.074214
C52   C     C_R   0.689298 0.856187 0.024242 -0.074114
C53   C     C_R   0.691456 0.943063 0.035362 -0.094051
C54   C     C_R   0.643250 0.993007 0.990034 -0.079518
C55   C     C_R   0.099793 0.467281 0.929452 0.020411
C56   C     C_2   0.004557 0.548362 0.057723 -0.069124
C57   C     C_R   0.094122 0.395359 0.990530 -0.089638
C58   C     C_R   0.149333 0.357028 0.032672 -0.092196
C59   C     C_R   0.210461 0.389900 0.013643 -0.078588
C60   C     C_R   0.216471 0.461150 0.952414 -0.075749
C61   C     C_R   0.161362 0.499770 0.910304 -0.046227
C62   C     C_1   0.438266 0.931071 0.061770 0.213148
C63   C     C_1   0.919676 0.442572 0.067945 0.197634
C64   C     C_2   0.540573 0.008399 0.885726 -0.018541
C65   C     C_2   0.041341 0.508408 0.884832 -0.026376
C66   C     C_2   0.501245 0.057652 0.943123 -0.057161
H1    H     H_    0.300428 0.787169 0.381913 0.148198
H2    H     H_    0.047070 0.368975 0.005237 0.129542
H3    H     H_    0.144739 0.301770 0.079947 0.143983
H4    H     H_    0.253159 0.360117 0.046239 0.136834
H5    H     H_    0.263833 0.486499 0.937645 0.137972
H6    H     H_    0.166607 0.555190 0.863413 0.140743
H7    H     H_    0.253654 0.131077 0.535743 0.146664
H8    H     H_    0.800670 0.286828 0.381626 0.147290
H9    H     H_    0.753660 0.631209 0.535807 0.146292
H10   H     H_    0.552020 0.839387 0.878262 0.121737
H11   H     H_    0.637583 0.751887 0.958449 0.135489
H12   H     H_    0.726642 0.817611 0.059389 0.138519
H13   H     H_    0.730600 0.971740 0.078852 0.131433
H14   H     H_    0.646031 0.060279 0.998028 0.131822
N1    N     N_1   0.773869 0.041007 0.488127 -0.226705
N2    N     N_1   0.359159 0.379638 0.530756 -0.230159
N3    N     N_1   0.798245 0.224411 0.720586 -0.246688
N4    N     N_1   0.859356 0.879630 0.530303 -0.228557
N5    N     N_1   0.417508 0.159637 0.858186 -0.257467
N6    N     N_1   0.900311 0.633005 0.869306 -0.252193
N7    N     N_1   0.568110 0.179521 0.143484 -0.255249
N8    N     N_1   0.095116 0.641447 0.139659 -0.264529
N9    N     N_1   0.411896 0.876260 0.021035 -0.258283
N10   N     N_1   0.883241 0.396601 0.030163 -0.250957
N11   N     N_1   0.703945 0.835830 0.723466 -0.255203
N12   N     N_1   0.273901 0.541126 0.488800 -0.227914
N13   N     N_1   0.202852 0.334319 0.724202 -0.256213
N14   N     N_1   0.643660 0.372400 0.403024 -0.248358
N15   N     N_1   0.674130 0.680853 0.303643 -0.265628
N16   N     N_1   0.143629 0.872364 0.402864 -0.250415
N17   N     N_1   0.174785 0.181886 0.302765 -0.271171
N18   N     N_1   0.298800 0.723761 0.720647 -0.261622
O1    O     O_3   0.500000 0.000000 0.500000 -0.456814
O2    O     O_R   0.880760 0.402800 0.590320 -0.527262
O3    O     O_R   0.577210 1.000000 0.711160 -0.517311
O4    O     O_R   0.077210 0.500000 0.711160 -0.530722
O5    O     O_R   0.475030 0.069050 0.275760 -0.524173
O6    O     O_R   0.475030 0.930950 0.275760 -0.529107
O7    O     O_R   0.975030 0.569050 0.275760 -0.524308
O8    O     O_R   0.975030 0.430950 0.275760 -0.534483
O9    O     O_R   0.632300 0.097230 0.527310 -0.528235
O10   O     O_R   0.632300 0.902770 0.527310 -0.522100
O11   O     O_R   0.132300 0.597230 0.527310 -0.532667
O12   O     O_3   0.000000 0.500000 0.500000 -0.455010
O13   O     O_R   0.132300 0.402770 0.527310 -0.520839
O14   O     O_R   0.419940 0.833680 0.459580 -0.532099
O15   O     O_R   0.419940 0.166320 0.459580 -0.525818
O16   O     O_R   0.919940 0.333680 0.459580 -0.532305
O17   O     O_R   0.919940 0.666320 0.459580 -0.527984
O18   O     O_R   0.472710 1.000000 0.737340 -0.526118
O19   O     O_R   0.972710 0.500000 0.737340 -0.522164
O20   O     O_R   0.566980 0.833700 0.422750 -0.526715
O21   O     O_R   0.566980 0.166300 0.422750 -0.515324
O22   O     O_R   0.066980 0.333700 0.422750 -0.527777
O23   O     O_R   0.066980 0.666300 0.422750 -0.515554
O24   O     O_R   0.380760 0.097200 0.590320 -0.526082
O25   O     O_R   0.380760 0.902800 0.590320 -0.528733
O26   O     O_R   0.880760 0.597200 0.590320 -0.526622
Zn1   Zn    Zn3+2 0.434690 0.000000 0.602700 0.979632
Zn2   Zn    Zn3+2 0.934690 0.500000 0.602700 0.983011
Zn3   Zn    Zn3+2 0.584000 0.000000 0.565300 0.989779
Zn4   Zn    Zn3+2 0.084000 0.500000 0.565300 0.983997
Zn5   Zn    Zn3+2 0.490640 0.098690 0.416020 0.988629
Zn6   Zn    Zn3+2 0.490640 0.901310 0.416020 0.970414
Zn7   Zn    Zn3+2 0.990640 0.598690 0.416020 0.987307
Zn8   Zn    Zn3+2 0.990640 0.401310 0.416020 0.969740

loop_
_geom_bond_atom_site_label_1
_geom_bond_atom_site_label_2
_ccdc_geom_bond_type
C25   C31   S    
C21   C26   D    
C1    C21   S    
C14   C18   D    
C44   C66   S    
C2    C65   D    
C13   C41   S    
O7    Zn7   S    
O17   Zn7   S    
C53   C54   A    
C27   C33   S    
C26   C32   S    
C5    O26   A    
O15   Zn5   S    
O2    Zn2   S    
C53   H13   S    
O4    Zn4   S    
C40   N18   T    
O25   Zn1   S    
C32   N11   T    
C20   C25   D    
C49   C54   A    
C22   C38   S    
C62   N9    T    
C24   C39   S    
C37   N15   T    
C19   C26   S    
C6    O16   A    
O3    Zn3   S    
C28   C35   S    
C23   C24   S    
C48   N8    T    
O12   Zn8   S    
O19   Zn2   S    
C3    C13   S    
C3    O24   A    
C9    C29   S    
C14   C42   S    
C16   C27   S    
C45   C47   S    
C4    O14   A    
C59   C60   A    
C18   H8    S    
C49   C64   S    
O6    Zn6   S    
C30   C63   S    
C5    O17   A    
C17   H7    S    
C43   N4    T    
C18   C25   S    
O23   Zn7   S    
C52   H12   S    
C55   C65   S    
C8    O19   A    
C54   H14   S    
C35   N13   T    
C22   C34   S    
O1    Zn5   S    
C51   C52   A    
O1    Zn1   S    
C3    O15   A    
C33   N12   T    
C23   O22   A    
O1    Zn3   S    
C1    O10   A    
C60   H5    S    
C58   C59   A    
C30   C56   D    
C2    C46   S    
C4    O25   A    
C29   C45   D    
C60   C61   A    
C6    O2    A    
C7    O18   A    
C15   C19   D    
C51   H11   S    
O20   Zn6   S    
C50   H10   S    
C6    C14   S    
C12   O21   A    
C11   C16   D    
C10   C30   S    
O11   Zn4   S    
C9    O5    A    
C12   C20   S    
C50   C51   A    
O12   Zn7   S    
C16   H1    S    
C4    C11   S    
O5    Zn5   S    
O12   Zn2   S    
C61   H6    S    
C34   O23   A    
O18   Zn1   S    
C55   C57   A    
C10   O8    A    
C57   H2    S    
C44   N5    T    
C45   C66   S    
C52   C53   A    
O26   Zn2   S    
C48   C56   S    
C29   C62   S    
O1    Zn6   S    
O22   Zn8   S    
C17   C28   S    
O16   Zn8   S    
C42   N3    T    
C24   C28   D    
C12   O9    A    
C58   H3    S    
C23   O13   A    
C31   N1    T    
C13   C17   D    
C22   C27   D    
O24   Zn1   S    
C19   H9    S    
C15   C43   S    
C2    C56   S    
C57   C58   A    
C9    O6    A    
C41   N2    T    
C55   C61   A    
C63   N10   T    
O21   Zn5   S    
O12   Zn4   S    
C1    O20   A    
O10   Zn3   S    
C11   C40   S    
C7    C64   S    
C5    C15   S    
C39   N17   T    
O8    Zn8   S    
C59   H4    S    
O9    Zn3   S    
C20   C36   S    
C36   N14   T    
C8    C65   S    
C21   C37   S    
C49   C50   A    
C7    O3    A    
C38   N16   T    
O13   Zn4   S    
C34   O11   A    
C10   O7    A    
O14   Zn6   S    
C8    O4    A    
C64   C66   D    
C46   N6    T    
C47   N7    T    
