data_mof_unit_61819.cif
_audit_creation_date              2012-10-26T19:34:26-0400
_audit_creation_method            fapswitch 2.2
_symmetry_space_group_name_H-M    P1
_symmetry_Int_Tables_number       1
_space_group_crystal_system       triclinic
_cell_length_a                    19.424957
_cell_length_b                    18.151092
_cell_length_c                    15.060331
_cell_angle_alpha                 89.604308
_cell_angle_beta                  90.081849
_cell_angle_gamma                 90.05014
_cell_volume                      5309.9004451

loop_
_atom_site_label
_atom_site_type_symbol
_atom_type_description
_atom_site_fract_x
_atom_site_fract_y
_atom_site_fract_z
_atom_type_partial_charge
C1    C     C_R   0.367779 0.500005 0.499829 0.625140
C2    C     C_R   0.184440 0.541056 0.562764 -0.078050
C3    C     C_R   0.184265 0.459596 0.436001 -0.076838
C4    C     C_R   0.815738 0.540405 0.563988 -0.076841
C5    C     C_R   0.851946 0.499740 0.500546 -0.053877
C6    C     C_R   0.148053 0.500265 0.499436 -0.053876
C7    C     C_R   0.707493 0.499882 0.500373 0.046287
C8    C     C_R   0.292507 0.500118 0.499623 0.046284
C9    C     C_R   0.964139 0.565916 0.512127 -0.091743
C10   C     C_R   0.035860 0.434091 0.487845 -0.091742
C11   C     C_R   0.035829 0.566063 0.511728 -0.088980
C12   C     C_R   0.632221 0.499995 0.500172 0.625169
C13   C     C_R   0.964170 0.433944 0.488243 -0.088978
C14   C     C_R   0.072238 0.500150 0.499595 0.032565
C15   C     C_R   0.927761 0.499857 0.500380 0.032567
C16   C     C_R   0.455272 0.721288 0.446759 0.093033
C17   C     C_R   0.544743 0.278713 0.553222 0.093021
C18   C     C_R   0.544528 0.720734 0.553566 0.078498
C19   C     C_R   0.455456 0.279264 0.446457 0.078493
C20   C     C_R   0.454313 0.798687 0.445669 0.319602
C21   C     C_R   0.545703 0.201315 0.554315 0.319587
C22   C     C_R   0.545501 0.798131 0.554664 0.315804
C23   C     C_R   0.410165 0.594967 0.041249 -0.071031
C24   C     C_R   0.454484 0.201867 0.445361 0.315799
C25   C     C_R   0.499943 0.838574 0.500121 0.018412
C26   C     C_R   0.500058 0.161425 0.499885 0.018418
C27   C     C_R   0.498161 0.500239 0.328718 0.607142
C28   C     C_R   0.501836 0.499761 0.671281 0.607142
C29   C     C_R   0.561921 0.961341 0.493284 -0.048380
C30   C     C_R   0.438080 0.038657 0.506725 -0.048380
C31   C     C_R   0.438052 0.961212 0.506808 -0.047151
C32   C     C_R   0.561949 0.038786 0.493198 -0.047153
C33   C     C_R   0.500029 0.078632 0.499923 0.085593
C34   C     C_R   0.589816 0.405017 0.958746 -0.071038
C35   C     C_R   0.499972 0.921366 0.500084 0.085612
C36   C     C_R   0.548463 0.452276 0.815143 0.229153
C37   C     C_R   0.451545 0.547738 0.184853 0.229145
C38   C     C_R   0.503642 0.499338 0.767826 0.023974
C39   C     C_R   0.496353 0.500660 0.232171 0.023975
C40   C     C_R   0.459516 0.547082 0.812508 -0.141076
C41   C     C_R   0.540460 0.452897 0.187489 -0.141049
C42   C     C_R   0.457667 0.547462 0.904732 0.006286
C43   C     C_R   0.542311 0.452519 0.095264 0.006286
C44   C     C_R   0.501113 0.499772 0.953289 0.032371
C45   C     C_R   0.743819 0.458713 0.436785 0.198926
C46   C     C_R   0.498873 0.500218 0.046707 0.032369
C47   C     C_R   0.546901 0.451907 0.908617 0.039420
C48   C     C_R   0.453092 0.548090 0.091379 0.039428
C49   C     C_R   0.412565 0.594630 0.948946 -0.105853
C50   C     C_R   0.587404 0.405343 0.051050 -0.105844
C51   C     C_R   0.256178 0.541296 0.563200 0.198927
C52   C     C_R   0.256022 0.459334 0.435650 0.208679
C53   C     C_R   0.743980 0.540661 0.564349 0.208693
C54   C     C_R   0.815557 0.458950 0.437219 -0.078048
Cl1   Cl    Cl    0.608963 0.397669 0.757090 -0.557343
Cl2   Cl    Cl    0.391084 0.602397 0.242906 -0.557404
Cl3   Cl    Cl    0.701405 0.408638 0.353010 -0.593854
Cl4   Cl    Cl    0.298587 0.591389 0.646963 -0.593858
Cl5   Cl    Cl    0.298287 0.410221 0.351158 -0.534869
Cl6   Cl    Cl    0.701719 0.589755 0.648860 -0.534793
Cu1   Cu    Cu3+1 0.500000 0.573360 0.500000 1.070092
Cu2   Cu    Cu3+1 0.500000 0.426640 0.500000 1.070069
F1    F     F_    0.410203 0.834124 0.390022 -0.598396
F2    F     F_    0.589828 0.165879 0.609945 -0.598425
F3    F     F_    0.589493 0.833009 0.610469 -0.600016
F4    F     F_    0.410475 0.166988 0.389577 -0.600027
H1    H     H_    0.610455 0.932611 0.486714 0.173196
H2    H     H_    0.625362 0.367456 0.927500 0.196935
H3    H     H_    0.842936 0.428217 0.386994 0.165283
H4    H     H_    0.157058 0.571790 0.612987 0.165281
H5    H     H_    0.156731 0.429014 0.385634 0.166783
H6    H     H_    0.843274 0.570987 0.614352 0.166783
H7    H     H_    0.937102 0.617578 0.520314 0.129922
H8    H     H_    0.062897 0.382429 0.479658 0.129923
H9    H     H_    0.062832 0.617836 0.519657 0.132441
H10   H     H_    0.937167 0.382171 0.480314 0.132439
H11   H     H_    0.420141 0.691229 0.404680 0.214307
H12   H     H_    0.389546 0.067386 0.513297 0.173226
H13   H     H_    0.579885 0.308774 0.595286 0.214273
H14   H     H_    0.579329 0.690221 0.596124 0.209310
H15   H     H_    0.420642 0.309776 0.403916 0.209330
H16   H     H_    0.389495 0.932370 0.513441 0.175094
H17   H     H_    0.610506 0.067627 0.486563 0.175119
H18   H     H_    0.425668 0.583284 0.775031 0.180695
H19   H     H_    0.574295 0.416681 0.224966 0.180696
H20   H     H_    0.378956 0.631372 0.912012 0.153524
H21   H     H_    0.621000 0.368584 0.087984 0.153519
H22   H     H_    0.374613 0.632522 0.072495 0.196946
N1    N     N_R   0.500000 0.683620 0.500000 -0.322648
N2    N     N_R   0.500000 0.316380 0.500000 -0.322648
O1    O     O_R   0.400190 0.561980 0.499990 -0.461963
O2    O     O_R   0.599810 0.438020 0.500010 -0.461973
O3    O     O_R   0.599810 0.561980 0.500010 -0.488640
O4    O     O_R   0.400190 0.438020 0.499990 -0.488649
O5    O     O_R   0.499980 0.561960 0.370260 -0.475033
O6    O     O_R   0.500020 0.438040 0.629740 -0.475056
O7    O     O_R   0.500020 0.561960 0.629740 -0.492733
O8    O     O_R   0.499980 0.438040 0.370260 -0.492730

loop_
_geom_bond_atom_site_label_1
_geom_bond_atom_site_label_2
_ccdc_geom_bond_type
C28   O7    A    
C21   C26   A    
C27   O8    A    
Cu2   O6    S    
C4    C53   A    
C1    C8    S    
C40   H18   S    
C27   O5    A    
C3    C6    A    
Cu1   N1    S    
C39   C41   A    
C45   Cl3   S    
C31   H16   S    
C9    H7    S    
C7    C45   A    
C24   C26   A    
C29   C32   A    
C30   C31   A    
C11   C14   A    
Cu1   O3    S    
C23   C49   A    
C20   C25   A    
C17   H13   S    
C36   C47   A    
C16   H11   S    
C21   F2    S    
C29   H1    S    
C37   Cl2   S    
C27   C39   S    
C1    O4    A    
C22   C25   A    
Cu2   O2    S    
C8    C52   A    
C44   C47   A    
C24   F4    S    
C40   C42   A    
C16   N1    A    
C1    O1    A    
Cu2   O8    S    
C41   C43   A    
C2    C6    A    
C42   C44   A    
C53   Cl6   S    
C44   C46   A    
C7    C12   S    
C46   C48   A    
C34   C50   A    
C5    C54   A    
C10   C14   A    
C34   H2    S    
C17   C21   A    
C3    H5    S    
C22   F3    S    
C52   Cl5   S    
C6    C14   S    
C26   C33   S    
C13   H10   S    
C28   C38   S    
C16   C20   A    
C51   Cl4   S    
C37   C48   A    
C9    C11   A    
C8    C51   A    
C50   H21   S    
C25   C35   S    
C45   C54   A    
C23   H22   S    
C13   C15   A    
C31   C35   A    
C12   O3    A    
C7    C53   A    
C4    H6    S    
C32   H17   S    
C23   C48   A    
C30   C33   A    
C18   C22   A    
C18   N1    A    
C49   H20   S    
C12   O2    A    
Cu1   O7    S    
C17   N2    A    
C4    C5    A    
C10   C13   A    
C3    C52   A    
Cu1   O5    S    
C43   C50   A    
C41   H19   S    
C29   C35   A    
C28   O6    A    
C32   C33   A    
C20   F1    S    
Cu2   O4    S    
C19   C24   A    
C9    C15   A    
C37   C39   A    
C36   Cl1   S    
C11   H9    S    
C38   C40   A    
C10   H8    S    
C54   H3    S    
C2    H4    S    
Cu2   N2    S    
C36   C38   A    
Cu1   Cu2   S    
C43   C46   A    
C5    C15   S    
C2    C51   A    
C42   C49   A    
C30   H12   S    
C18   H14   S    
C19   N2    A    
C34   C47   A    
C19   H15   S    
Cu1   O1    S    
