data_mof_unit_56119.cif
_audit_creation_date              2012-10-26T19:46:54-0400
_audit_creation_method            fapswitch 2.2
_symmetry_space_group_name_H-M    P1
_symmetry_Int_Tables_number       1
_space_group_crystal_system       triclinic
_cell_length_a                    10.897809
_cell_length_b                    9.648463
_cell_length_c                    15.972933
_cell_angle_alpha                 90.322197
_cell_angle_beta                  95.194903
_cell_angle_gamma                 90.763551
_cell_volume                      1672.4211843

loop_
_atom_site_label
_atom_site_type_symbol
_atom_type_description
_atom_site_fract_x
_atom_site_fract_y
_atom_site_fract_z
_atom_type_partial_charge
C1    C     C_R   0.871022 0.503367 0.486477 0.010086
C2    C     C_R   0.524341 0.377111 0.956795 0.236890
C3    C     C_R   0.500906 0.500898 0.912522 -0.043332
C4    C     C_R   0.499094 0.499102 0.087478 -0.043331
C5    C     C_1   0.500096 0.501222 0.822684 0.022750
C6    C     C_1   0.499904 0.498778 0.177316 0.022753
C7    C     C_1   0.499851 0.498932 0.252412 -0.017308
C8    C     C_1   0.500148 0.501068 0.747588 -0.017309
C9    C     C_R   0.426161 0.072883 0.440715 0.119416
C10   C     C_R   0.573839 0.927117 0.559285 0.119415
C11   C     C_R   0.575585 0.075712 0.558324 0.129261
C12   C     C_R   0.128978 0.496633 0.513524 0.010086
C13   C     C_R   0.424415 0.924288 0.441676 0.129261
C14   C     C_R   0.059977 0.371162 0.501799 -0.013886
C15   C     C_R   0.940024 0.628838 0.498202 -0.013886
C16   C     C_R   0.933103 0.376772 0.478533 -0.012745
C17   C     C_R   0.066897 0.623228 0.521468 -0.012745
C18   C     C_3   0.353328 0.145504 0.368350 -0.347027
C19   C     C_3   0.646669 0.854495 0.631651 -0.347028
C20   C     C_3   0.665380 0.149384 0.622648 -0.336817
C21   C     C_3   0.334620 0.850616 0.377352 -0.336817
C22   C     C_3   0.328536 0.760557 0.089283 -0.109997
C23   C     C_R   0.263296 0.498899 0.506546 0.543546
C24   C     C_3   0.671466 0.239445 0.910718 -0.109997
C25   C     C_3   0.566096 0.821362 0.908631 -0.095585
C26   C     C_3   0.433906 0.178635 0.091366 -0.095583
C27   C     C_3   0.116373 0.230961 0.522317 -0.373151
C28   C     C_3   0.883627 0.769040 0.477685 -0.373151
C29   C     C_3   0.868807 0.251262 0.435546 -0.367857
C30   C     C_3   0.131194 0.748738 0.564455 -0.367857
C31   C     C_R   0.736704 0.501100 0.493454 0.543546
C32   C     C_R   0.499513 0.499649 0.341526 0.531992
C33   C     C_R   0.500487 0.500351 0.658474 0.531993
C34   C     C_R   0.479996 0.624631 0.955553 0.234359
C35   C     C_R   0.520005 0.375369 0.044447 0.234358
C36   C     C_R   0.475659 0.622889 0.043205 0.236891
Cu1   Cu    Cu3+1 0.500000 0.640660 0.500000 0.896197
Cu2   Cu    Cu3+1 0.500000 0.359340 0.500000 0.896198
H1    H     H_    0.325339 0.250023 0.383217 0.195242
H2    H     H_    0.328345 0.738763 0.380737 0.202553
H3    H     H_    0.239231 0.883177 0.385557 0.072917
H4    H     H_    0.357817 0.875739 0.312807 0.106078
H5    H     H_    0.287451 0.672682 0.122550 0.097542
H6    H     H_    0.280588 0.771987 0.025214 0.152661
H7    H     H_    0.313049 0.856549 0.125164 0.113850
H8    H     H_    0.719415 0.228017 0.974787 0.152661
H9    H     H_    0.712551 0.327321 0.877449 0.097542
H10   H     H_    0.686954 0.143453 0.874836 0.113852
H11   H     H_    0.635206 0.761469 0.876660 0.084864
H12   H     H_    0.407978 0.147930 0.312973 0.130571
H13   H     H_    0.604888 0.853837 0.972695 0.162353
H14   H     H_    0.546533 0.916793 0.871661 0.155818
H15   H     H_    0.395124 0.146151 0.027302 0.162361
H16   H     H_    0.364790 0.238528 0.123330 0.084861
H17   H     H_    0.453468 0.083209 0.128341 0.155815
H18   H     H_    0.185509 0.238739 0.577695 0.163806
H19   H     H_    0.046515 0.154943 0.540782 0.108926
H20   H     H_    0.158021 0.188588 0.467158 0.138238
H21   H     H_    0.814492 0.761262 0.422307 0.163806
H22   H     H_    0.841978 0.811411 0.532845 0.138237
H23   H     H_    0.263374 0.095449 0.349162 0.059761
H24   H     H_    0.953485 0.845058 0.459221 0.108926
H25   H     H_    0.794419 0.283240 0.387696 0.162302
H26   H     H_    0.933551 0.190834 0.400312 0.112925
H27   H     H_    0.830726 0.182419 0.482395 0.145380
H28   H     H_    0.205582 0.716760 0.612304 0.162302
H29   H     H_    0.169274 0.817581 0.517606 0.145380
H30   H     H_    0.066450 0.809165 0.599689 0.112925
H31   H     H_    0.674662 0.749978 0.616783 0.195240
H32   H     H_    0.736621 0.904553 0.650844 0.059760
H33   H     H_    0.592015 0.852064 0.687026 0.130576
H34   H     H_    0.671655 0.261237 0.619263 0.202553
H35   H     H_    0.642182 0.124262 0.687193 0.106079
H36   H     H_    0.760769 0.116822 0.614444 0.072917
N1    N     N_R   0.500000 0.852070 0.500000 -0.224942
N2    N     N_R   0.500000 0.147930 0.500000 -0.224942
O1    O     O_R   0.319640 0.618740 0.499990 -0.517716
O2    O     O_3   0.543588 0.255472 0.913920 -0.549494
O3    O     O_3   0.455096 0.745508 0.911412 -0.549352
O4    O     O_3   0.544905 0.254493 0.088588 -0.549352
O5    O     O_R   0.680360 0.381260 0.500010 -0.517716
O6    O     O_R   0.680360 0.618740 0.500010 -0.518817
O7    O     O_R   0.319640 0.381260 0.499990 -0.518817
O8    O     O_R   0.499970 0.618750 0.380310 -0.503570
O9    O     O_R   0.500030 0.381250 0.619690 -0.503570
O10   O     O_R   0.500030 0.618750 0.619690 -0.508695
O11   O     O_R   0.499970 0.381250 0.380310 -0.508694
O12   O     O_3   0.456414 0.744529 0.086080 -0.549492

loop_
_geom_bond_atom_site_label_1
_geom_bond_atom_site_label_2
_ccdc_geom_bond_type
C2    C35   A    
C29   H25   S    
Cu2   O7    S    
C19   H33   S    
C33   O10   A    
C26   H17   S    
C4    C36   A    
Cu2   N2    S    
C36   O12   S    
C12   C23   S    
C31   O6    A    
C23   O7    A    
C11   N2    A    
C35   O4    S    
C1    C31   S    
C33   O9    A    
C9    C13   A    
C22   H6    S    
C13   N1    A    
C12   C17   A    
Cu1   O8    S    
C1    C15   A    
C9    N2    A    
C22   O12   S    
C14   C27   S    
C30   H29   S    
Cu1   N1    S    
C4    C35   A    
C17   C30   S    
C26   H16   S    
C28   H22   S    
C32   O8    A    
C11   C20   S    
Cu2   O9    S    
C20   H36   S    
C24   H10   S    
Cu1   O10   S    
C4    C6    S    
C27   H19   S    
C27   H18   S    
C3    C34   A    
C16   C29   S    
C32   O11   A    
Cu1   O1    S    
C26   O4    S    
C18   H1    S    
C25   H13   S    
Cu1   Cu2   S    
C2    O2    S    
C34   O3    S    
C10   N1    A    
C22   H5    S    
C10   C19   S    
C13   C21   S    
C1    C16   A    
C23   O1    A    
C30   H28   S    
C21   H3    S    
C24   O2    S    
C12   C14   A    
Cu2   O5    S    
C29   H27   S    
Cu1   O6    S    
C19   H31   S    
C26   H15   S    
C18   H12   S    
C28   H21   S    
C15   C17   A    
C7    C32   S    
C14   C16   A    
C25   O3    S    
C24   H9    S    
C3    C5    S    
C27   H20   S    
C5    C8    T    
C18   H23   S    
C6    C7    T    
C31   O5    A    
Cu2   O11   S    
C24   H8    S    
C2    C3    A    
C25   H14   S    
C15   C28   S    
C21   H2    S    
C20   H35   S    
C34   C36   A    
C8    C33   S    
C25   H11   S    
C29   H26   S    
C10   C11   A    
C21   H4    S    
C9    C18   S    
C22   H7    S    
C20   H34   S    
C19   H32   S    
C30   H30   S    
C28   H24   S    
