data_mof_unit_24982.cif
_audit_creation_date              2012-12-10T17:22:56-0500
_audit_creation_method            fapswitch 2.2
_symmetry_space_group_name_H-M    P1
_symmetry_Int_Tables_number       1
_space_group_crystal_system       triclinic
_cell_length_a                    10.175488
_cell_length_b                    10.50426
_cell_length_c                    10.536693
_cell_angle_alpha                 89.913768
_cell_angle_beta                  94.971622
_cell_angle_gamma                 81.526868
_cell_volume                      1109.62465581

loop_
_atom_site_label
_atom_site_type_symbol
_atom_type_description
_atom_site_fract_x
_atom_site_fract_y
_atom_site_fract_z
_atom_type_partial_charge
C1    C     C_R   0.444162 0.503755 0.265562 0.827158
C2    C     C_3   0.498239 0.122998 0.500319 -0.026868
C3    C     C_3   0.625625 0.941898 0.486472 -0.182928
C4    C     C_3   0.374549 0.058092 0.513940 -0.189686
C5    C     C_2   0.412154 0.485583 0.130039 0.071795
C6    C     C_2   0.586622 0.466420 0.871552 0.058335
C7    C     C_2   0.501360 0.407666 0.068344 -0.188916
C8    C     C_2   0.497508 0.410680 0.930896 -0.218088
C9    C     C_2   0.068268 0.507936 0.475435 -0.059608
C10   C     C_2   0.923276 0.523197 0.497628 -0.059252
C11   C     C_3   0.324589 0.932682 0.294013 -0.937977
C12   C     C_R   0.555835 0.489738 0.734759 0.879288
C13   C     C_3   0.675452 0.067337 0.706478 -0.926051
C14   C     C_3   0.783049 0.584133 0.878227 -0.769070
C15   C     C_3   0.185154 0.482921 0.043500 -0.797957
C16   C     C_3   0.854390 0.285034 0.292974 -0.709118
C17   C     C_3   0.102240 0.732933 0.677980 -0.739199
C18   C     C_R   0.499304 0.257661 0.499950 0.870506
C19   C     C_R   0.500758 0.742329 0.500252 0.888110
C20   C     C_3   0.540231 0.037317 0.388902 -0.221525
C21   C     C_3   0.459940 0.962674 0.611495 -0.235542
C22   C     C_3   0.417777 0.970183 0.403810 0.247308
C23   C     C_3   0.582383 0.029824 0.596596 0.241922
C24   C     C_3   0.501917 0.876993 0.500073 -0.034324
H1    H     H_    0.571511 0.072234 0.298292 0.138996
H2    H     H_    0.381669 0.864819 0.231031 0.234540
H3    H     H_    0.244962 0.885691 0.331792 0.253382
H4    H     H_    0.721688 0.979902 0.762101 0.238237
H5    H     H_    0.755032 0.114453 0.668777 0.258814
H6    H     H_    0.618254 0.135099 0.769480 0.232858
H7    H     H_    0.748441 0.447132 0.012123 0.230687
H8    H     H_    0.849223 0.626336 0.950648 0.227622
H9    H     H_    0.721491 0.664640 0.822140 0.237668
H10   H     H_    0.846591 0.521738 0.815597 0.254281
H11   H     H_    0.265471 0.643782 0.105329 0.223098
H12   H     H_    0.428673 0.927841 0.702134 0.143927
H13   H     H_    0.101537 0.541813 0.985640 0.235016
H14   H     H_    0.149757 0.457476 0.135831 0.237175
H15   H     H_    0.215703 0.393508 0.990808 0.242757
H16   H     H_    0.995485 0.291967 0.449015 0.199938
H17   H     H_    0.903955 0.185944 0.275575 0.203293
H18   H     H_    0.881545 0.351609 0.220885 0.207657
H19   H     H_    0.745439 0.284367 0.283909 0.258420
H20   H     H_    0.182148 0.550268 0.741954 0.256186
H21   H     H_    0.062749 0.761416 0.770420 0.217043
H22   H     H_    0.030213 0.778423 0.599846 0.226706
H23   H     H_    0.727898 0.891202 0.476532 0.149020
H24   H     H_    0.199471 0.768078 0.673295 0.256085
H25   H     H_    0.272280 0.108752 0.523948 0.149858
H26   H     H_    0.411062 0.380512 0.878112 0.167030
H27   H     H_    0.589797 0.354751 0.119201 0.133388
H28   H     H_    0.881175 0.607251 0.548183 0.157437
H29   H     H_    0.100249 0.459549 0.390020 0.129365
H30   H     H_    0.278417 0.020089 0.238330 0.239983
N1    N     N_2   0.157310 0.552180 0.551120 -0.027545
N2    N     N_2   0.842690 0.447820 0.448880 -0.019684
N3    N     N_2   0.699094 0.509085 0.941783 -0.299272
N4    N     N_2   0.294858 0.555833 0.065088 -0.288219
N5    N     N_2   0.896723 0.323614 0.419331 -0.217846
N6    N     N_2   0.118966 0.594494 0.667933 -0.252399
O1    O     O_R   0.568940 0.489500 0.307530 -0.608989
O2    O     O_R   0.431060 0.510500 0.692470 -0.625029
O3    O     O_R   0.348880 0.522990 0.340350 -0.609322
O4    O     O_R   0.651120 0.477010 0.659650 -0.600195
O5    O     O_R   0.610000 0.297210 0.483560 -0.596153
O6    O     O_R   0.390000 0.702790 0.516440 -0.605504
O7    O     O_R   0.389940 0.330700 0.516390 -0.632102
O8    O     O_R   0.610060 0.669300 0.483610 -0.630297
Zn1   Zn    Zn3+2 0.646930 0.477640 0.478080 0.951063
Zn2   Zn    Zn3+2 0.353070 0.522360 0.521920 0.932712

loop_
_geom_bond_atom_site_label_1
_geom_bond_atom_site_label_2
_ccdc_geom_bond_type
C14   H10   S    
C2    C4    S    
N2    N5    S    
C15   H14   S    
C19   O8    A    
C9    N1    D    
C16   H18   S    
C2    C18   S    
C4    C22   S    
C9    C10   S    
C11   C22   S    
C3    C23   S    
C6    N3    S    
C17   H24   S    
C11   H3    S    
C4    H25   S    
O7    Zn2   S    
C10   H28   S    
H7    N3    S    
C14   H9    S    
C19   C24   S    
C7    H27   S    
C3    C20   S    
C13   H4    S    
C21   H12   S    
O1    Zn1   S    
N1    N6    S    
C18   O5    A    
C4    C21   S    
C16   H19   S    
C15   H15   S    
C3    C24   S    
O6    Zn2   S    
C11   H30   S    
C5    N4    S    
H20   N6    S    
H11   N4    S    
O5    Zn1   S    
C1    O3    A    
C3    H23   S    
C10   N2    D    
C17   H21   S    
C22   C24   S    
C21   C23   S    
C6    C12   S    
C12   O4    A    
C15   N4    S    
C1    C5    S    
N1    Zn2   S    
C9    H29   S    
C20   H1    S    
C20   C22   S    
O3    Zn2   S    
C2    C20   S    
C8    H26   S    
C13   H6    S    
C7    C8    S    
C12   O2    A    
C17   H22   S    
C13   C23   S    
C19   O6    A    
N2    Zn1   S    
C21   C24   S    
C13   H5    S    
C2    C23   S    
C5    C7    D    
C14   N3    S    
C15   H13   S    
O2    Zn2   S    
C6    C8    D    
C17   N6    S    
C11   H2    S    
H16   N5    S    
C18   O7    A    
O4    Zn1   S    
C16   H17   S    
C14   H8    S    
O8    Zn1   S    
C16   N5    S    
C1    O1    A    
