data_mof_unit_10697.cif
_audit_creation_date              2012-12-10T20:46:50-0500
_audit_creation_method            fapswitch 2.2
_symmetry_space_group_name_H-M    P1
_symmetry_Int_Tables_number       1
_space_group_crystal_system       triclinic
_cell_length_a                    12.89618
_cell_length_b                    8.935507
_cell_length_c                    8.112964
_cell_angle_alpha                 89.993006
_cell_angle_beta                  97.297983
_cell_angle_gamma                 89.992943
_cell_volume                      927.314908932

loop_
_atom_site_label
_atom_site_type_symbol
_atom_type_description
_atom_site_fract_x
_atom_site_fract_y
_atom_site_fract_z
_atom_type_partial_charge
C1    C     C_R   0.499991 0.218010 0.500004 0.938529
C2    C     C_R   0.870133 0.555734 0.699002 -0.237590
C3    C     C_R   0.135594 0.543133 0.580307 -0.261705
C4    C     C_R   0.864298 0.454100 0.420140 -0.287283
C5    C     C_R   0.028684 0.527465 0.573715 0.143025
C6    C     C_R   0.971364 0.467985 0.427102 0.102384
C7    C     C_1   0.500000 0.065191 0.500008 -0.190872
C8    C     C_1   0.500008 0.934810 0.499993 -0.190593
C9    C     C_R   0.500014 0.781990 0.499997 0.939406
C10   C     C_R   0.297686 0.500725 0.467479 0.893173
C11   C     C_R   0.702319 0.499090 0.532537 0.889088
C12   C     C_R   0.814227 0.500690 0.553093 -0.068345
C13   C     C_R   0.185822 0.497665 0.447120 -0.106156
C14   C     C_R   0.022690 0.425501 0.290294 0.086880
C15   C     C_R   0.978192 0.569782 0.711004 0.109904
C16   C     C_R   0.130111 0.441401 0.301700 -0.188678
H1    H     H_    0.818509 0.409144 0.310219 0.164030
H2    H     H_    0.180892 0.589314 0.690216 0.185835
H3    H     H_    0.829496 0.591200 0.801316 0.154564
H4    H     H_    0.170273 0.405645 0.198936 0.169421
H5    H     H_    0.930433 0.265925 0.169522 0.193173
H6    H     H_    0.912862 0.441325 0.088512 0.180345
H7    H     H_    0.985921 0.667513 0.941840 0.189613
H8    H     H_    0.079275 0.541232 0.919510 0.196503
N1    N     N_1   0.500020 0.500000 0.073640 -0.037269
N2    N     N_1   0.499980 0.500000 0.926360 -0.037250
N3    N     N_3   0.968465 0.363897 0.140288 -0.472662
N4    N     N_3   0.036357 0.629313 0.859720 -0.464669
O1    O     O_R   0.499990 0.285340 0.636850 -0.613474
O2    O     O_R   0.500010 0.714660 0.363150 -0.613261
O3    O     O_R   0.500010 0.285340 0.363150 -0.617161
O4    O     O_R   0.499990 0.714660 0.636850 -0.616413
O5    O     O_R   0.346350 0.500000 0.614250 -0.623089
O6    O     O_R   0.653650 0.500000 0.385750 -0.625809
O7    O     O_R   0.346360 0.500000 0.340500 -0.626471
O8    O     O_R   0.653640 0.500000 0.659500 -0.628375
Zn1   Zn    Zn3+2 0.499990 0.500000 0.682780 0.985909
Zn2   Zn    Zn3+2 0.500010 0.500000 0.317220 0.985341

loop_
_geom_bond_atom_site_label_1
_geom_bond_atom_site_label_2
_ccdc_geom_bond_type
C11   C12   S    
N2    Zn1   S    
C10   O7    A    
N1    Zn2   S    
C4    C12   A    
C3    C13   A    
O3    Zn2   S    
C16   H4    S    
C2    C12   A    
C1    O1    A    
H5    N3    S    
C7    C8    T    
C1    C7    S    
O4    Zn1   S    
C2    C15   A    
C15   N4    S    
C9    O2    A    
C4    H1    S    
C11   O8    A    
N1    N2    T    
C10   O5    A    
H6    N3    S    
C5    C6    A    
C14   N3    S    
C14   C16   A    
C5    C15   A    
C6    C14   A    
H7    N4    S    
C1    O3    A    
O7    Zn2   S    
O2    Zn2   S    
C3    H2    S    
C4    C6    A    
C13   C16   A    
O1    Zn1   S    
O8    Zn1   S    
C9    O4    A    
C2    H3    S    
O6    Zn2   S    
C11   O6    A    
O5    Zn1   S    
H8    N4    S    
C8    C9    S    
C3    C5    A    
C10   C13   S    
