data_mof_unit_32015.cif
_audit_creation_date              2012-12-11T16:08:21-0500
_audit_creation_method            fapswitch 2.2
_symmetry_space_group_name_H-M    P1
_symmetry_Int_Tables_number       1
_space_group_crystal_system       triclinic
_cell_length_a                    19.835676
_cell_length_b                    19.991557
_cell_length_c                    20.344069
_cell_angle_alpha                 111.377348
_cell_angle_beta                  107.379039
_cell_angle_gamma                 110.065275
_cell_volume                      6172.96564867

loop_
_atom_site_label
_atom_site_type_symbol
_atom_type_description
_atom_site_fract_x
_atom_site_fract_y
_atom_site_fract_z
_atom_type_partial_charge
C1    C     C_R   0.657533 0.931722 0.925245 0.593928
C2    C     C_R   0.331524 0.068750 0.026995 0.375600
C3    C     C_R   0.481617 0.003668 0.239377 -0.355376
C4    C     C_R   0.493549 0.007850 0.762781 -0.341561
C5    C     C_R   0.743676 0.210186 0.238745 -0.171690
C6    C     C_R   0.270102 0.725095 0.766678 -0.187646
C7    C     C_R   0.523943 0.779492 0.023053 -0.314728
C8    C     C_R   0.541022 0.273599 0.040190 -0.337426
C9    C     C_3   0.661243 0.596082 0.152080 0.356367
C10   C     C_3   0.521134 0.543656 0.025585 0.310633
C11   C     C_3   0.656184 0.612513 0.082455 0.289664
C12   C     C_3   0.526303 0.528173 0.095049 0.272549
C13   C     C_1   0.558484 0.740646 0.056483 0.034743
C14   C     C_1   0.565412 0.357445 0.063088 0.058757
C15   C     C_3   0.595568 0.619771 0.157259 0.349024
C16   C     C_3   0.586696 0.521161 0.020470 0.350831
C17   C     C_3   0.590521 0.635813 0.087792 -0.443372
C18   C     C_3   0.591675 0.504705 0.089501 -0.450217
C19   C     C_1   0.579262 0.699075 0.076825 0.303787
C20   C     C_1   0.582027 0.426424 0.079243 0.333604
C21   C     C_3   0.529383 0.008602 0.536914 0.318887
C22   C     C_3   0.407409 0.032007 0.466123 0.247100
C23   C     C_R   0.512970 0.071412 0.232713 0.429123
C24   C     C_R   0.467071 0.934766 0.763840 0.558185
C25   C     C_3   0.455892 0.946106 0.451366 0.322763
C26   C     C_3   0.481114 0.094649 0.552314 0.321875
C27   C     C_1   0.475910 0.009006 0.308178 0.255259
C28   C     C_1   0.479344 0.014630 0.694214 0.215611
C29   C     C_3   0.541094 0.081191 0.522651 0.332645
C30   C     C_3   0.395798 0.959321 0.480696 0.330644
C31   C     C_3   0.467746 0.018677 0.436522 -0.382833
C32   C     C_3   0.469090 0.021905 0.566814 -0.392434
C33   C     C_1   0.471375 0.014254 0.366282 0.372316
C34   C     C_1   0.471906 0.019817 0.636746 0.341321
C35   C     C_3   0.010558 0.443681 0.455071 0.558404
C36   C     C_3   0.035691 0.414679 0.574761 0.574532
C37   C     C_3   0.013099 0.496432 0.534085 -0.564725
C38   C     C_3   0.032326 0.360778 0.494530 -0.575303
C39   C     C_1   0.212194 0.640829 0.704155 0.084088
C40   C     C_1   0.817508 0.256153 0.312810 0.139329
C41   C     C_3   0.086624 0.442641 0.500807 0.416378
C42   C     C_3   0.959337 0.415562 0.528473 0.500976
C43   C     C_3   0.089846 0.494770 0.580201 -0.198044
C44   C     C_3   0.955886 0.363201 0.448939 -0.236430
C45   C     C_R   0.737662 0.202701 0.166747 0.509752
C46   C     C_R   0.274590 0.765527 0.840121 0.511765
C47   C     C_1   0.159428 0.572304 0.649631 0.216390
C48   C     C_1   0.880332 0.300166 0.374811 0.223278
C49   C     C_3   0.021608 0.003380 0.966840 0.309240
C50   C     C_3   0.929861 0.988968 0.829991 0.358454
C51   C     C_3   0.996914 0.066861 0.961802 0.310535
C52   C     C_3   0.955672 0.925257 0.835246 0.307314
C53   C     C_1   0.789448 0.996738 0.928336 0.117392
C54   C     C_1   0.182609 0.999612 0.932547 0.057272
C55   C     C_3   0.934553 0.929941 0.903156 0.224097
C56   C     C_3   0.018409 0.062643 0.894207 0.336051
C57   C     C_3   0.908557 0.993463 0.898113 -0.339375
C58   C     C_3   0.043810 0.998645 0.899069 -0.371082
C59   C     C_1   0.840322 0.994140 0.909441 0.284069
C60   C     C_1   0.119773 0.999739 0.911287 0.301824
C61   C     C_R   0.468044 0.800996 0.036513 0.523544
C62   C     C_R   0.561596 0.224060 0.992705 0.522583
C63   C     C_R   0.667417 0.185360 0.232538 -0.115371
C64   C     C_R   0.343210 0.770247 0.773752 0.004655
C65   C     C_R   0.539206 0.802080 0.969981 0.520962
C66   C     C_R   0.509330 0.233646 0.075936 0.605297
C67   C     C_R   0.433505 0.934243 0.162527 0.559092
C68   C     C_R   0.551769 0.073004 0.838525 0.459450
C69   C     C_R   0.730406 0.070176 0.002495 0.509171
C70   C     C_R   0.263705 0.929763 0.955002 0.598987
C71   C     C_R   0.732350 0.000148 0.956509 -0.333715
C72   C     C_R   0.256206 0.999045 0.966726 -0.329099
H1    H     H_    0.005918 0.552029 0.551420 0.211286
H2    H     H_    0.038925 0.304860 0.476759 0.209809
H3    H     H_    0.655649 0.188742 0.281235 0.202365
H4    H     H_    0.368623 0.742546 0.740530 0.224140
N1    N     N_R   0.613530 0.956740 0.956480 -0.157057
N2    N     N_R   0.386470 0.043260 0.043520 -0.125592
N3    N     N_R   0.499750 0.043260 0.156770 -0.140811
N4    N     N_R   0.500250 0.956740 0.843230 -0.138349
N5    N     N_R   0.656790 0.157020 0.113500 -0.116078
N6    N     N_R   0.343210 0.842980 0.886500 -0.125518
N7    N     N_R   0.456490 0.842980 0.999750 -0.124659
N8    N     N_R   0.543510 0.157020 0.000250 -0.146062
N9    N     N_R   0.613500 0.157010 0.156770 -0.077010
N10   N     N_R   0.386500 0.842990 0.843230 -0.107983
N11   N     N_R   0.499770 0.842990 0.956480 -0.133521
N12   N     N_R   0.500230 0.157010 0.043520 -0.160794
N13   N     N_R   0.456470 0.956710 0.113500 -0.143712
N14   N     N_R   0.543530 0.043290 0.886500 -0.142265
N15   N     N_R   0.656800 0.043290 0.999750 -0.141600
N16   N     N_R   0.343200 0.956710 0.000250 -0.106973
Ni1   Ni    Ni4+2 0.500010 0.900760 0.900750 0.283646
Ni2   Ni    Ni4+2 0.499990 0.099240 0.099250 0.301867
Ni3   Ni    Ni4+2 0.599260 0.099260 0.000000 0.309355
Ni4   Ni    Ni4+2 0.400740 0.900740 0.000000 0.333598
S1    S     S_3+6 0.612547 0.844990 0.827926 0.019463
O1    O     O_2   0.663584 0.804186 0.827883 -0.244583
O2    O     O_2   0.526751 0.783513 0.802386 -0.289955
O3    O     O_3   0.611376 0.879104 0.763476 -0.461306
H5    H     H_    0.604077 0.833608 0.715415 0.403755
S2    S     S_3+6 0.337197 0.159931 0.093689 0.069706
O4    O     O_2   0.257025 0.137865 0.094273 -0.259289
O5    O     O_2   0.402281 0.198546 0.178144 -0.124592
O6    O     O_3   0.355305 0.228839 0.063205 -0.436250
H6    H     H_    0.310646 0.197929 0.006890 0.356574
S3    S     S_3+6 0.752575 0.625359 0.234771 0.034279
O7    O     O_2   0.731159 0.576851 0.274308 -0.329761
O8    O     O_2   0.808237 0.606748 0.204525 -0.201536
O9    O     O_3   0.800236 0.727986 0.302004 -0.464127
H7    H     H_    0.849973 0.739934 0.345738 0.373556
S4    S     S_3+6 0.426492 0.504235 0.939900 0.015588
O10   O     O_2   0.365306 0.512149 0.966566 -0.231984
O11   O     O_2   0.440054 0.551929 0.898154 -0.362816
O12   O     O_3   0.389806 0.403066 0.875497 -0.455207
H8    H     H_    0.337744 0.384914 0.830043 0.385885
O13   O     O_3   0.578620 0.462078 0.949455 -0.606857
C73   C     C_3   0.589111 0.495070 0.900402 0.071402
H9    H     H_    0.654232 0.523386 0.914565 0.171647
H10   H     H_    0.568939 0.541336 0.905455 0.126434
H11   H     H_    0.551998 0.443037 0.836534 0.136661
O14   O     O_3   0.603680 0.679880 0.227602 -0.575987
C74   C     C_3   0.593191 0.648263 0.277624 0.099405
H12   H     H_    0.612626 0.601551 0.273144 0.142026
H13   H     H_    0.528211 0.620922 0.263954 0.161919
H14   H     H_    0.630865 0.700908 0.341220 0.132626
O15   O     O_3   0.440755 0.870521 0.391053 -0.605891
C75   C     C_3   0.439451 0.815647 0.419343 0.022777
H15   H     H_    0.396975 0.750734 0.367306 0.132260
H16   H     H_    0.417676 0.823091 0.464618 0.162747
H17   H     H_    0.501242 0.823219 0.444540 0.191572
O16   O     O_3   0.496253 0.170224 0.612523 -0.609237
C76   C     C_3   0.498041 0.225149 0.584164 -0.011338
H18   H     H_    0.436656 0.218653 0.559896 0.209364
H19   H     H_    0.518677 0.216719 0.537938 0.144510
H20   H     H_    0.541541 0.290025 0.636004 0.126037
S5    S     S_3+6 0.610619 0.995316 0.586765 0.013475
O17   O     O_2   0.675468 0.074662 0.665535 -0.249547
O18   O     O_2   0.577283 0.926690 0.602781 -0.252315
O19   O     O_3   0.652129 0.970553 0.527291 -0.505101
H21   H     H_    0.694567 0.961704 0.556991 0.372718
S6    S     S_3+6 0.326986 0.046180 0.416574 0.033836
O20   O     O_2   0.361262 0.114060 0.399991 -0.229866
O21   O     O_2   0.260906 0.967203 0.338036 -0.257705
O22   O     O_3   0.286479 0.073459 0.476387 -0.475058
H22   H     H_    0.270336 0.029114 0.489244 0.360795
O23   O     O_3   0.321607 0.899183 0.467327 -0.599750
C77   C     C_3   0.271140 0.836545 0.384781 0.042724
H23   H     H_    0.288403 0.852837 0.343093 0.153563
H24   H     H_    0.207287 0.823081 0.367273 0.158459
H25   H     H_    0.271543 0.778514 0.375602 0.123339
O24   O     O_3   0.615293 0.141042 0.535689 -0.580422
C78   C     C_3   0.665718 0.204458 0.617972 0.134309
H26   H     H_    0.729666 0.218166 0.635668 0.161499
H27   H     H_    0.648633 0.188875 0.660054 0.147955
H28   H     H_    0.665021 0.262169 0.626286 0.100509
O25   O     O_3   0.994604 0.451717 0.386706 -0.558916
C79   C     C_3   0.028825 0.536593 0.411089 -0.000284
H29   H     H_    0.094198 0.574568 0.458998 0.132232
H30   H     H_    0.992184 0.561719 0.431673 0.118500
H31   H     H_    0.026510 0.542210 0.358297 0.168791
O26   O     O_3   0.052556 0.407653 0.643648 -0.566435
C80   C     C_3   0.017944 0.322921 0.619857 0.002162
H32   H     H_    0.053368 0.296752 0.597963 0.118185
H33   H     H_    0.952142 0.285371 0.573098 0.137683
H34   H     H_    0.021553 0.317997 0.673231 0.171653
S7    S     S_3+6 0.873636 0.397006 0.545952 0.003437
O27   O     O_2   0.819142 0.417805 0.498276 -0.244601
O28   O     O_2   0.826140 0.306843 0.519932 -0.289287
O29   O     O_3   0.907538 0.457801 0.644841 -0.492102
H35   H     H_    0.857411 0.443432 0.650511 0.380100
S8    S     S_3+6 0.172307 0.461813 0.483263 0.035597
O30   O     O_2   0.220667 0.552586 0.511685 -0.260083
O31   O     O_2   0.226382 0.439226 0.528836 -0.231149
O32   O     O_3   0.139135 0.404071 0.384065 -0.448071
H36   H     H_    0.101738 0.346334 0.367944 0.343089
O33   O     O_3   0.010383 0.139466 0.024878 -0.645971
C81   C     C_3   0.093085 0.189165 0.086248 0.086021
H37   H     H_    0.114276 0.255110 0.103690 0.167492
H38   H     H_    0.136021 0.172797 0.069258 0.186725
H39   H     H_    0.097348 0.184983 0.140084 0.109170
O34   O     O_3   0.942241 0.852570 0.772404 -0.623154
C82   C     C_3   0.860289 0.804942 0.709630 0.028559
H40   H     H_    0.816291 0.817858 0.727683 0.163597
H41   H     H_    0.839218 0.737928 0.686606 0.161164
H42   H     H_    0.857567 0.815342 0.659181 0.113670
O35   O     O_3   0.076182 0.013226 0.037592 -0.592137
C83   C     C_3   0.041315 0.010682 0.088351 0.061168
H43   H     H_    0.013690 0.946963 0.078292 0.202300
H44   H     H_    0.994909 0.030625 0.081183 0.098996
H45   H     H_    0.091119 0.053383 0.151908 0.147650
O36   O     O_3   0.873288 0.978452 0.760086 -0.590703
C84   C     C_3   0.908262 0.986633 0.710548 -0.008048
H46   H     H_    0.953424 0.965121 0.713698 0.127883
H47   H     H_    0.937074 0.052317 0.725806 0.200461
H48   H     H_    0.858370 0.948048 0.647011 0.125828
S9    S     S_3+6 0.524571 0.167211 0.297035 0.005102
O37   O     O_2   0.589365 0.203735 0.381512 -0.268302
O38   O     O_2   0.548702 0.227355 0.269719 -0.276521
O39   O     O_3   0.435011 0.149184 0.296261 -0.433732
H49   H     H_    0.446512 0.203917 0.336326 0.399533
S10   S     S_3+6 0.409467 0.835508 0.671563 0.002197
O40   O     O_2   0.417518 0.846280 0.604498 -0.269496
O41   O     O_2   0.438370 0.776623 0.676411 -0.218559
O42   O     O_3   0.309279 0.793361 0.644984 -0.567164
H50   H     H_    0.281805 0.738123 0.595349 0.388086
S11   S     S_3+6 0.078606 0.150082 0.890676 -0.004663
O43   O     O_2   0.158801 0.209265 0.967786 -0.255001
O44   O     O_2   0.095485 0.120408 0.821421 -0.307118
O45   O     O_3   0.026573 0.199393 0.878240 -0.495114
H51   H     H_    0.061759 0.245059 0.874121 0.387041
S12   S     S_3+6 0.878199 0.841793 0.908068 0.030863
O46   O     O_2   0.854592 0.868773 0.972584 -0.239768
O47   O     O_2   0.801606 0.776272 0.828841 -0.235115
O48   O     O_3   0.937066 0.801263 0.930273 -0.482682
H52   H     H_    0.952737 0.787884 0.887312 0.342770
S13   S     S_3+6 0.803784 0.293279 0.172898 0.010858
O49   O     O_2   0.887189 0.302511 0.195772 -0.284594
O50   O     O_2   0.770007 0.290757 0.095016 -0.183282
O51   O     O_3   0.812840 0.376494 0.245623 -0.522824
H53   H     H_    0.851088 0.425289 0.247285 0.392062
S14   S     S_3+6 0.236434 0.703033 0.877841 0.028140
O52   O     O_2   0.249316 0.629905 0.850121 -0.283801
O53   O     O_2   0.281582 0.752003 0.967466 -0.178242
O54   O     O_3   0.135533 0.666511 0.844151 -0.465019
H54   H     H_    0.109563 0.631170 0.784748 0.353467
O55   O     O_3   0.429103 0.783519 0.079345 -0.629220
C85   C     C_3   0.399464 0.699586 0.058966 0.181977
H55   H     H_    0.446116 0.694733 0.100338 0.107823
H56   H     H_    0.378877 0.656217 0.994623 0.153576
H57   H     H_    0.345144 0.677740 0.067431 0.191379
O56   O     O_3   0.611775 0.247725 0.961188 -0.561751
C86   C     C_3   0.586372 0.284623 0.918845 0.004104
H58   H     H_    0.622046 0.353422 0.959041 0.178558
H59   H     H_    0.519106 0.260890 0.891306 0.091308
H60   H     H_    0.600958 0.270542 0.868780 0.190791
O57   O     O_3   0.591508 0.790940 0.940943 -0.613459
C87   C     C_3   0.562644 0.704706 0.894949 0.181031
H61   H     H_    0.495196 0.667405 0.853091 0.116500
H62   H     H_    0.579782 0.680397 0.934099 0.111265
H63   H     H_    0.592830 0.695100 0.857361 0.191431
O58   O     O_3   0.514771 0.273476 0.150844 -0.533292
C88   C     C_3   0.594467 0.342793 0.209414 0.138227
H64   H     H_    0.600859 0.399771 0.208779 0.122670
H65   H     H_    0.643860 0.331162 0.202957 0.101997
H66   H     H_    0.603476 0.356914 0.270311 0.189507
S15   S     S_3+6 0.329020 0.871105 0.135352 0.044725
O59   O     O_2   0.272133 0.866785 0.064294 -0.252838
O60   O     O_2   0.309702 0.784997 0.117194 -0.231336
O61   O     O_3   0.309199 0.912092 0.210455 -0.504263
H67   H     H_    0.251200 0.871972 0.190409 0.395697
S16   S     S_3+6 0.649674 0.132995 0.851070 0.032465
O62   O     O_2   0.642425 0.171319 0.799917 -0.304730
O63   O     O_2   0.710785 0.200298 0.936985 -0.163961
O64   O     O_3   0.683942 0.067818 0.819683 -0.462924
H68   H     H_    0.739764 0.103953 0.830833 0.387436
O65   O     O_3   0.780850 0.153105 0.028973 -0.568005
C89   C     C_3   0.858920 0.172517 0.035900 0.145642
H69   H     H_    0.855342 0.152317 0.975821 0.113481
H70   H     H_    0.888150 0.147411 0.068440 0.080536
H71   H     H_    0.899419 0.241209 0.071305 0.194982
O66   O     O_3   0.202312 0.846416 0.908010 -0.617178
C90   C     C_3   0.130469 0.834165 0.914385 0.056614
H72   H     H_    0.087564 0.835101 0.865547 0.103179
H73   H     H_    0.142949 0.879437 0.974762 0.142750
H74   H     H_    0.098609 0.771613 0.905713 0.206876
S17   S     S_3+6 0.743814 0.673537 0.078988 0.041853
O67   O     O_2   0.717576 0.691633 0.013267 -0.307184
O68   O     O_2   0.800546 0.754371 0.158646 -0.186091
O69   O     O_3   0.792774 0.620725 0.061067 -0.476479
H75   H     H_    0.840302 0.657967 0.060213 0.391561
S18   S     S_3+6 0.440459 0.467425 0.101141 0.044622
O70   O     O_2   0.383103 0.385585 0.022483 -0.172659
O71   O     O_2   0.469800 0.451219 0.167753 -0.284002
O72   O     O_3   0.391029 0.519541 0.119795 -0.505721
H76   H     H_    0.343947 0.481913 0.120884 0.389590

loop_
_geom_bond_atom_site_label_1
_geom_bond_atom_site_label_2
_ccdc_geom_bond_type
C25   C31   S    
C90   H74   S    
N7    N11   A    
C26   C32   S    
O25   C79   S    
C15   O14   S    
O13   C73   S    
C1    N1    A    
O6    H6    S    
C36   C42   S    
O72   H76   S    
C77   H25   S    
C21   S5    S    
C82   H40   S    
C75   H15   S    
C45   N5    A    
C85   H56   S    
O22   H22   S    
C53   C59   T    
C90   H72   S    
S7    O28   D    
S2    O4    D    
C54   C60   T    
O42   H50   S    
C27   C33   T    
S13   O51   S    
C8    C66   A    
S5    O18   D    
C87   H63   S    
C24   S10   S    
C61   O55   S    
S10   O41   D    
C83   H45   S    
C83   H44   S    
C80   H33   S    
C52   O34   S    
C51   C56   S    
C69   O65   S    
C82   H41   S    
C66   N12   A    
N5    Ni3   S    
S17   O69   S    
C74   H13   S    
O29   H35   S    
C2    S2    S    
C10   C17   S    
C58   C60   S    
O12   H8    S    
S1    O1    D    
C67   N13   A    
C45   S13   S    
C5    C63   A    
S2    O6    S    
C40   C48   T    
O65   C89   S    
C11   C16   S    
C6    C64   A    
C37   C42   S    
C69   C71   A    
C3    C23   A    
C73   H9    S    
C7    C61   A    
C62   N8    A    
C79   H31   S    
C4    C28   S    
C55   S12   S    
C46   N6    A    
C90   H73   S    
C67   S15   S    
C24   N4    A    
C11   C17   S    
O23   C77   S    
C8    C62   A    
O39   H49   S    
C88   H65   S    
S10   O42   S    
C88   H64   S    
S11   O45   S    
C68   N14   A    
S3    O7    D    
S12   O48   S    
O15   C75   S    
C10   S4    S    
C26   C29   S    
C51   C57   S    
C78   H27   S    
C50   O36   S    
C86   H58   S    
C18   C20   S    
S8    O32   S    
C68   S16   S    
C28   C34   T    
N1    Ni1   S    
S4    O12   S    
O57   C87   S    
C63   N9    A    
C79   H30   S    
C41   C43   S    
S6    O22   S    
C65   O57   S    
S9    O37   D    
C42   C44   S    
C2    C72   A    
C10   C12   S    
C64   N10   A    
O51   H53   S    
S1    O2    D    
S8    O31   D    
C81   H37   S    
S7    O29   S    
C87   H62   S    
S15   O60   D    
N16   Ni4   S    
C41   S8    S    
C70   N16   A    
N6    Ni4   S    
S10   O40   D    
C13   C19   T    
S11   O43   D    
C81   H39   S    
C14   C20   T    
C74   H12   S    
C80   H34   S    
O19   H21   S    
C38   C41   S    
C22   C31   S    
C82   H42   S    
C1    S1    S    
S7    O27   D    
C4    C68   A    
S18   O70   D    
C74   H14   S    
S5    O19   S    
C66   O58   S    
S14   O54   S    
C49   C51   S    
O61   H67   S    
N6    N10   A    
C39   C47   T    
C5    C45   A    
C70   C72   A    
C50   C56   S    
C49   C58   S    
O9    H7    S    
C83   H43   S    
C78   H28   S    
N8    Ni3   S    
C32   C34   S    
C37   C43   S    
S9    O39   S    
C89   H70   S    
O48   H52   S    
C35   O25   S    
C38   C44   S    
C2    N2    A    
N10   Ni1   S    
C7    C65   A    
C76   H18   S    
C86   H59   S    
N9    Ni2   S    
C9    C18   S    
C50   C52   S    
O55   C85   S    
C49   O35   S    
C12   C15   S    
C4    C24   A    
S17   O67   D    
C84   H48   S    
C6    C39   S    
C22   S6    S    
C84   H47   S    
O58   C88   S    
C64   H4    S    
C55   C57   S    
C1    C71   A    
C77   H23   S    
S9    O38   D    
S14   O53   D    
C35   C44   S    
C9    C11   S    
C35   C41   S    
C52   C58   S    
N3    Ni2   S    
C76   H20   S    
S4    O11   D    
C16   C18   S    
S13   O49   D    
S12   O47   D    
O45   H51   S    
C69   N15   A    
C62   O56   S    
S16   O64   S    
C56   S11   S    
C61   N7    A    
C79   H29   S    
S3    O9    S    
S6    O21   D    
C89   H71   S    
C9    S3    S    
O64   H68   S    
C53   C71   S    
C75   H17   S    
C65   N11   A    
S1    O3    S    
C26   O16   S    
S8    O30   D    
C63   H3    S    
S16   O63   D    
O26   C80   S    
C38   H2    S    
S15   O61   S    
C25   C30   S    
C70   O66   S    
C21   C25   S    
C87   H61   S    
N1    N15   A    
C31   C33   S    
C8    C14   S    
N4    Ni1   S    
C6    C46   A    
C35   C37   S    
S6    O20   D    
C50   C57   S    
C3    C67   A    
C12   S18   S    
C77   H24   S    
C75   H16   S    
C81   H38   S    
S15   O59   D    
C52   C55   S    
C15   C17   S    
O66   C90   S    
N2    Ni2   S    
S13   O50   D    
S5    O17   D    
C23   S9    S    
C37   H1    S    
C46   S14   S    
S2    O5    D    
N2    N16   A    
O36   C84   S    
N13   Ni4   S    
C3    C27   S    
C89   H69   S    
O14   C74   S    
C30   O23   S    
O35   C83   S    
C29   C31   S    
O32   H36   S    
C49   C55   S    
C16   O13   S    
C29   O24   S    
C30   C32   S    
S17   O68   D    
C76   H19   S    
S3    O8    D    
N8    N12   A    
C21   C29   S    
C36   O26   S    
S18   O72   S    
C88   H66   S    
N7    Ni4   S    
N11   Ni1   S    
C36   C38   S    
O3    H5    S    
C17   C19   S    
C56   C58   S    
O16   C76   S    
S4    O10   D    
C85   H57   S    
C25   O15   S    
S14   O52   D    
C22   C30   S    
C86   H60   S    
C73   H10   S    
N3    N13   A    
C80   H32   S    
C57   C59   S    
O33   C81   S    
C85   H55   S    
C21   C32   S    
C44   C48   S    
C42   S7    S    
C7    C13   S    
C54   C72   S    
S12   O46   D    
N15   Ni3   S    
S18   O71   D    
C84   H46   S    
C22   C26   S    
C5    C40   S    
C12   C18   S    
S11   O44   D    
N12   Ni2   S    
C11   S17   S    
O69   H75   S    
C36   C43   S    
C10   C16   S    
O24   C78   S    
C23   N3    A    
C78   H26   S    
C51   O33   S    
C43   C47   S    
N4    N14   A    
C73   H11   S    
N14   Ni3   S    
N5    N9    A    
O34   C82   S    
C9    C15   S    
O56   C86   S    
S16   O62   D    
O54   H54   S    
