data_mof_unit_30204.cif
_audit_creation_date              2012-12-10T16:44:45-0500
_audit_creation_method            fapswitch 2.2
_symmetry_space_group_name_H-M    P1
_symmetry_Int_Tables_number       1
_space_group_crystal_system       triclinic
_cell_length_a                    14.972696
_cell_length_b                    8.766885
_cell_length_c                    7.537729
_cell_angle_alpha                 103.055105
_cell_angle_beta                  94.993141
_cell_angle_gamma                 94.429323
_cell_volume                      955.402854037

loop_
_atom_site_label
_atom_site_type_symbol
_atom_type_description
_atom_site_fract_x
_atom_site_fract_y
_atom_site_fract_z
_atom_type_partial_charge
C1    C     C_R   0.496657 0.200434 0.454056 0.835280
C2    C     C_R   0.174884 0.346620 0.425991 0.120845
C3    C     C_R   0.767757 0.504463 0.502148 -0.088757
C4    C     C_R   0.231765 0.485352 0.507464 -0.094543
C5    C     C_R   0.802574 0.361330 0.445737 -0.194027
C6    C     C_R   0.197922 0.615774 0.611740 -0.191203
C7    C     C_R   0.895030 0.354700 0.456234 0.077923
C8    C     C_R   0.105944 0.617579 0.621156 0.081136
C9    C     C_R   0.953558 0.491438 0.535100 0.015941
C10   C     C_R   0.047240 0.482883 0.536760 0.018948
C11   C     C_R   0.918561 0.636514 0.609561 0.015212
C12   C     C_R   0.503097 0.799539 0.546018 0.844170
C13   C     C_R   0.082145 0.340339 0.453645 0.008427
C14   C     C_R   0.929302 0.210654 0.397668 -0.158183
C15   C     C_R   0.072409 0.752528 0.716542 -0.164427
C16   C     C_R   0.021764 0.200615 0.402029 0.203425
C17   C     C_R   0.980015 0.764018 0.713281 0.205514
C18   C     C_2   0.484989 0.033234 0.431609 0.113107
C19   C     C_2   0.514579 0.966783 0.568866 0.115863
C20   C     C_R   0.328811 0.493941 0.500650 0.804416
C21   C     C_R   0.670905 0.502715 0.499843 0.811511
C22   C     C_R   0.824397 0.644229 0.576647 0.124652
Cl1   Cl    Cl    0.420200 0.929177 0.224357 -0.512659
Cl2   Cl    Cl    0.579196 0.070562 0.776685 -0.506572
Cu1   Cu    Cu3+1 0.510010 0.517380 0.684380 1.119254
Cu2   Cu    Cu3+1 0.489990 0.482620 0.315620 1.123711
H1    H     H_    0.757123 0.255008 0.392013 0.167086
H2    H     H_    0.243392 0.719330 0.678514 0.171885
H3    H     H_    0.883659 0.103801 0.353497 0.195811
H4    H     H_    0.118783 0.851613 0.792299 0.195108
I1    I     I_    0.763929 0.858311 0.579876 -0.245545
I2    I     I_    0.229523 0.168393 0.235124 -0.191777
I3    I     I_    0.055949 0.966294 0.380961 -0.284543
I4    I     I_    0.949246 0.971016 0.897813 -0.248268
I5    I     I_    0.373946 0.286486 0.894460 -0.051837
I6    I     I_    0.627360 0.713131 0.099428 -0.038321
N1    N     N_2   0.474890 0.456420 0.038520 0.022868
N2    N     N_2   0.525110 0.543580 0.961480 0.021580
O1    O     O_R   0.506510 0.286130 0.619770 -0.560572
O2    O     O_R   0.493490 0.713870 0.380230 -0.557387
O3    O     O_R   0.489600 0.256770 0.308360 -0.527983
O4    O     O_R   0.510400 0.743230 0.691640 -0.529769
O5    O     O_R   0.378710 0.514640 0.655720 -0.582845
O6    O     O_R   0.621290 0.485360 0.344280 -0.574817
O7    O     O_R   0.361800 0.485290 0.344300 -0.551828
O8    O     O_R   0.638200 0.514710 0.655700 -0.557810

loop_
_geom_bond_atom_site_label_1
_geom_bond_atom_site_label_2
_ccdc_geom_bond_type
Cu1   O4    S    
C12   O2    A    
C2    C4    A    
C8    C10   A    
Cu2   N1    S    
C15   C17   A    
N1    N2    D    
Cu1   N2    S    
C21   O6    A    
C9    C10   A    
C11   C22   A    
C20   O7    A    
Cu1   O5    S    
I6    N2    S    
C19   Cl2   S    
Cu2   O6    S    
Cu1   O1    S    
C9    C11   A    
Cu2   O2    S    
C1    C18   S    
C12   C19   S    
C1    O3    A    
I5    N1    S    
C21   O8    A    
C8    C15   A    
C16   I3    S    
C14   C16   A    
C3    C21   S    
C4    C6    A    
C17   I4    S    
C1    O1    A    
C14   H3    S    
C12   O4    A    
C18   Cl1   S    
C4    C20   S    
C7    C9    A    
C20   O5    A    
C15   H4    S    
C2    I2    S    
C18   C19   D    
C22   I1    S    
C13   C16   A    
C5    C7    A    
C2    C13   A    
C11   C17   A    
C3    C22   A    
C6    C8    A    
Cu2   O7    S    
Cu1   Cu2   S    
C5    H1    S    
Cu1   O8    S    
C7    C14   A    
C6    H2    S    
Cu2   O3    S    
C3    C5    A    
C10   C13   A    
