data_mof_unit_42310.cif
_audit_creation_date              2012-12-11T16:07:32-0500
_audit_creation_method            fapswitch 2.2
_symmetry_space_group_name_H-M    P1
_symmetry_Int_Tables_number       1
_space_group_crystal_system       triclinic
_cell_length_a                    6.98501
_cell_length_b                    14.415613
_cell_length_c                    15.932784
_cell_angle_alpha                 90.245663
_cell_angle_beta                  90.231356
_cell_angle_gamma                 89.936579
_cell_volume                      1604.29424314

loop_
_atom_site_label
_atom_site_type_symbol
_atom_type_description
_atom_site_fract_x
_atom_site_fract_y
_atom_site_fract_z
_atom_type_partial_charge
O1    O     O_R   0.494320 0.415010 0.412140 -0.543827
O2    O     O_R   0.824010 0.404260 0.587250 -0.543173
O3    O     O_R   0.994320 0.584990 0.587860 -0.534408
C1    C     C_R   0.653256 0.375724 0.610369 0.683164
O4    O     O_R   0.824040 0.403870 0.412760 -0.542501
O5    O     O_R   0.994350 0.584590 0.412130 -0.538255
C2    C     C_R   0.655669 0.384021 0.381937 0.709054
O6    O     O_R   0.494300 0.415410 0.587870 -0.535569
O7    O     O_3   0.660800 0.559290 0.500000 -0.364795
V1    V     V_3+5 0.935650 0.489000 0.500000 1.373637
O8    O     O_R   0.324060 0.595740 0.412750 -0.542503
C3    C     C_R   0.154283 0.615979 0.381932 0.656519
O9    O     O_R   0.324040 0.596130 0.587240 -0.537769
C4    C     C_R   0.155399 0.617990 0.616389 0.691266
V2    V     V_3+5 0.435660 0.511000 0.500000 1.380111
O10   O     O_3   0.160640 0.440710 0.500000 -0.371799
C5    C     C_3   0.003221 0.681907 0.760886 -0.132521
C6    C     C_3   0.168060 0.707624 0.822466 -0.187355
H1    H     H_    0.197444 0.673161 0.883352 0.105113
H2    H     H_    0.895528 0.626399 0.770527 0.100850
C7    C     C_3   0.120751 0.811425 0.811121 -0.009468
C8    C     C_3   0.958623 0.786042 0.749947 0.223410
C9    C     C_3   0.097450 0.791710 0.675158 -0.146847
C10   C     C_3   0.261586 0.817331 0.736923 -0.165658
C11   C     C_3   0.309405 0.712810 0.747747 -0.117386
C12   C     C_3   0.144700 0.688062 0.686935 -0.041016
H3    H     H_    0.067485 0.826216 0.614331 0.108605
H4    H     H_    0.365100 0.874513 0.727058 0.116986
H5    H     H_    0.454176 0.681048 0.746794 0.117392
C13   C     C_3   0.335054 0.788040 0.210346 -0.318844
H6    H     H_    0.418113 0.764603 0.154652 0.140039
H7    H     H_    0.404994 0.852079 0.234736 0.207539
C14   C     C_3   0.342902 0.711824 0.278347 -0.385135
H8    H     H_    0.432752 0.737092 0.331577 0.168549
H9    H     H_    0.412161 0.648773 0.251854 0.143632
H10   H     H_    0.117856 0.686451 0.104327 0.106505
H11   H     H_    0.098678 0.580811 0.210034 0.113858
C15   C     C_3   0.033044 0.716621 0.156804 -0.325088
C16   C     C_3   0.019353 0.845217 0.264824 -0.256950
C17   C     C_3   0.124463 0.809485 0.185117 0.038098
H12   H     H_    0.864575 0.855518 0.250815 0.182569
H13   H     H_    0.079609 0.913390 0.283940 0.218385
C18   C     C_3   0.139333 0.685310 0.309457 0.101204
C19   C     C_3   0.026273 0.645722 0.230852 0.057573
C20   C     C_3   0.042187 0.776598 0.339109 -0.331078
H14   H     H_    0.131136 0.809403 0.389175 0.144905
H15   H     H_    0.900381 0.762683 0.367746 0.154187
H16   H     H_    0.887687 0.730311 0.130637 0.149645
C21   C     C_3   0.452881 0.239324 0.675095 -0.002799
H17   H     H_    0.490283 0.180247 0.632547 0.126374
C22   C     C_3   0.418225 0.194141 0.763206 0.056195
H18   H     H_    0.364414 0.122341 0.751846 0.090127
H19   H     H_    0.521763 0.399227 0.775369 0.145241
C23   C     C_3   0.651294 0.355848 0.766250 -0.318635
C24   C     C_3   0.804578 0.233240 0.679158 -0.423591
C25   C     C_3   0.636915 0.303739 0.680026 0.066859
H20   H     H_    0.932642 0.271840 0.698502 0.181263
H21   H     H_    0.827300 0.203854 0.615327 0.152562
C26   C     C_3   0.616533 0.186675 0.810749 0.080559
C27   C     C_3   0.683599 0.286100 0.839799 0.017311
C28   C     C_3   0.765297 0.153342 0.743304 -0.454416
H22   H     H_    0.707728 0.091745 0.709277 0.140259
H23   H     H_    0.899652 0.128040 0.771790 0.166428
H24   H     H_    0.773919 0.405164 0.765654 0.108996
H25   H     H_    0.840526 0.281498 0.851411 0.147135
C29   C     C_3   0.436384 0.298958 0.281552 -0.414366
H26   H     H_    0.345946 0.273676 0.333847 0.156858
H27   H     H_    0.377191 0.367661 0.263214 0.188125
C30   C     C_3   0.422485 0.230089 0.206986 0.223745
H28   H     H_    0.321172 0.174076 0.224213 0.202234
C31   C     C_3   0.724851 0.215775 0.341546 -0.043091
C32   C     C_3   0.760608 0.345380 0.231529 -0.041126
C33   C     C_3   0.646792 0.312302 0.311458 -0.016018
H29   H     H_    0.685461 0.407498 0.206074 0.162462
C34   C     C_3   0.623509 0.187374 0.186840 -0.130748
C35   C     C_3   0.705323 0.140851 0.269208 0.608880
C36   C     C_3   0.757221 0.268816 0.162323 -0.337125
H30   H     H_    0.710236 0.300495 0.102430 0.174993
H31   H     H_    0.903225 0.241545 0.149660 0.241345
H32   H     H_    0.879206 0.226061 0.355690 0.175011
O11   O     O_R   0.771990 0.083520 0.910980 -0.547375
O12   O     O_R   0.442180 0.095020 0.086060 -0.506128
O13   O     O_R   0.271950 0.914280 0.086680 -0.536463
C37   C     C_R   0.611314 0.117326 0.115013 0.830316
O14   O     O_R   0.442270 0.094630 0.911580 -0.543738
O15   O     O_R   0.272040 0.913890 0.910940 -0.547862
C38   C     C_R   0.610169 0.116509 0.882289 0.647762
O16   O     O_R   0.771900 0.083910 0.086710 -0.512615
O17   O     O_3   0.605520 0.939610 0.998840 -0.383485
V3    V     V_3+5 0.330640 0.009880 0.998810 1.498544
O18   O     O_R   0.942330 0.902710 0.911540 -0.545046
C39   C     C_R   0.110811 0.881190 0.882096 0.652171
O19   O     O_R   0.942240 0.903100 0.086030 -0.535726
C40   C     C_R   0.111938 0.880830 0.114951 0.722517
V4    V     V_3+5 0.830640 0.987830 0.998780 1.464198
O20   O     O_3   0.105630 0.058150 0.998800 -0.347975
C41   C     C_3   0.815088 0.620822 0.247394 -0.812364
H33   H     H_    0.796594 0.566114 0.294736 0.220712
H34   H     H_    0.734883 0.683232 0.267279 0.221048
H35   H     H_    0.748250 0.593877 0.188774 0.197063
C42   C     C_3   0.272172 0.273068 0.630381 -0.738158
H36   H     H_    0.168162 0.215345 0.630553 0.187816
H37   H     H_    0.213770 0.337013 0.659662 0.227465
H38   H     H_    0.299993 0.284508 0.562669 0.220852
C43   C     C_3   0.262459 0.245120 0.814589 -0.723143
H39   H     H_    0.262246 0.320970 0.804929 0.197222
H40   H     H_    0.122965 0.220212 0.794762 0.180288
H41   H     H_    0.269950 0.231273 0.882665 0.241928
C44   C     C_3   0.602714 0.323565 0.923199 -0.757999
H42   H     H_    0.460650 0.356652 0.916086 0.235804
H43   H     H_    0.592962 0.267888 0.970537 0.221505
H44   H     H_    0.700253 0.377816 0.948500 0.202911
C45   C     C_3   0.759707 0.828319 0.748611 -0.812707
H45   H     H_    0.680117 0.801178 0.693377 0.206720
H46   H     H_    0.682703 0.810036 0.807025 0.217240
H47   H     H_    0.770380 0.904926 0.743751 0.196601
Cl1   Cl    Cl    0.318770 0.286863 0.117102 -0.750519
C46   C     C_3   0.641407 0.184165 0.426630 -0.731626
H48   H     H_    0.484490 0.173257 0.423304 0.240292
H49   H     H_    0.710675 0.118387 0.446503 0.252578
H50   H     H_    0.671473 0.235861 0.476636 0.161648
Cl2   Cl    Cl    0.555954 0.043396 0.296729 -0.707201
C47   C     C_3   0.968420 0.376080 0.246532 -0.761638
H51   H     H_    0.052275 0.318653 0.273741 0.241419
H52   H     H_    0.032888 0.396728 0.185924 0.253810
H53   H     H_    0.980344 0.437745 0.287250 0.206987
Cl3   Cl    Cl    0.939098 0.091666 0.252673 -0.697543

loop_
_geom_bond_atom_site_label_1
_geom_bond_atom_site_label_2
_ccdc_geom_bond_type
C29   H27   S    
C24   C25   S    
O19   C40   A    
C6    C7    S    
V4    O20   S    
C1    O6    A    
C41   H33   S    
C47   H51   S    
C2    C33   S    
C23   C27   S    
H19   C23   S    
C43   H40   S    
C42   H36   S    
C5    C12   S    
C3    C18   S    
C44   H43   S    
O5    C3    A    
C31   C35   S    
O11   V4    S    
C34   C37   S    
C47   H52   S    
C29   C30   S    
V2    O10   S    
C5    H2    S    
C6    H1    S    
C9    C12   S    
C30   Cl1   S    
C28   H23   S    
C46   H48   S    
C27   C44   S    
O8    V2    S    
C8    C45   S    
C21   C22   S    
C9    C10   S    
O1    V2    S    
C9    H3    S    
C13   H7    S    
O7    V1    S    
C15   H16   S    
C31   C46   S    
C16   C20   S    
C45   H47   S    
O14   C38   A    
C29   H26   S    
O16   V4    S    
C26   C27   S    
C42   H37   S    
O9    C4    A    
C1    C25   S    
C30   H28   S    
C6    C11   S    
C31   H32   S    
C41   H34   S    
C14   H8    S    
C16   H13   S    
C46   H49   S    
C36   H31   S    
C11   H5    S    
C43   H41   S    
C23   C25   S    
C26   C28   S    
C22   H18   S    
C14   C18   S    
O8    C3    A    
C37   O16   A    
C10   C11   S    
C16   H12   S    
O15   V3    S    
C44   H44   S    
C16   C17   S    
O4    C2    A    
C47   H53   S    
C11   C12   S    
C36   H30   S    
O13   C40   A    
C46   H50   S    
O17   V4    S    
O2    C1    A    
C34   C35   S    
C15   C19   S    
C32   C36   S    
C18   C20   S    
C19   C41   S    
C22   C43   S    
C5    C6    S    
C13   C17   S    
C4    C12   S    
C34   C36   S    
O11   C38   A    
O3    C4    A    
C32   H29   S    
C27   H25   S    
C42   H38   S    
O12   C37   A    
O9    V2    S    
C32   C47   S    
C7    C10   S    
C22   C26   S    
O2    V1    S    
O18   C39   A    
C41   H35   S    
C31   C33   S    
C45   H45   S    
O13   V3    S    
C13   C14   S    
O1    C2    A    
C10   H4    S    
C17   C40   S    
C32   C33   S    
O5    V1    S    
O14   V3    S    
V3    O20   S    
O6    V2    S    
C21   C25   S    
C43   H39   S    
C5    C8    S    
O12   V3    S    
C35   Cl2   S    
H11   C19   S    
C24   H20   S    
O7    V2    S    
O4    V1    S    
O3    V1    S    
V1    O10   S    
C44   H42   S    
C15   C17   S    
C29   C33   S    
C13   H6    S    
C23   H24   S    
C18   C19   S    
C24   C28   S    
H10   C15   S    
C14   H9    S    
C30   C34   S    
C28   H22   S    
C26   C38   S    
O18   V4    S    
C20   H14   S    
C20   H15   S    
O19   V4    S    
C21   H17   S    
C24   H21   S    
C35   Cl3   S    
C8    C9    S    
O15   C39   A    
O17   V3    S    
C7    C8    S    
C21   C42   S    
C45   H46   S    
C7    C39   S    
