data_mof_unit_8102.cif
_audit_creation_date              2013-03-05T15:46:06-0500
_audit_creation_method            fapswitch 2.2
_symmetry_space_group_name_H-M    P1
_symmetry_Int_Tables_number       1
_space_group_crystal_system       triclinic
_cell_length_a                    6.936053
_cell_length_b                    23.084533
_cell_length_c                    23.571419
_cell_angle_alpha                 112.10966
_cell_angle_beta                  89.414782
_cell_angle_gamma                 90.236188
_cell_volume                      3496.43657735

loop_
_atom_site_label
_atom_site_type_symbol
_atom_site_description
_atom_site_fract_x
_atom_site_fract_y
_atom_site_fract_z
_atom_type_partial_charge
O1    O     O_R   0.494720 0.434890 0.424760 -0.615667
O2    O     O_R   0.819720 0.445970 0.545570 -0.544127
O3    O     O_R   0.993930 0.565110 0.575240 -0.555115
C1    C     C_R   0.650667 0.431932 0.560727 1.097466
O4    O     O_R   0.824180 0.427610 0.423390 -0.609183
O5    O     O_R   0.998420 0.546620 0.452190 -0.602062
C2    C     C_R   0.657631 0.409262 0.399101 0.905253
O6    O     O_R   0.490230 0.453380 0.547810 -0.583625
O7    O     O_3   0.662090 0.539070 0.509590 -0.245420
V1    V     V_3+5 0.935410 0.492750 0.498220 1.267242
O8    O     O_R   0.328360 0.554030 0.454430 -0.599467
C3    C     C_R   0.160274 0.565003 0.436473 1.014404
O9    O     O_R   0.323900 0.572390 0.576610 -0.565087
C4    C     C_R   0.155199 0.590836 0.600512 1.239983
V2    V     V_3+5 0.435890 0.507250 0.501780 1.260090
O10   O     O_3   0.159350 0.460930 0.490410 -0.280239
C5    C     C_R   0.083589 0.854703 0.840706 -0.326243
C6    C     C_R   0.152800 0.644893 0.660689 -0.566805
C7    C     C_R   0.310826 0.695802 0.759574 0.459468
C8    C     C_R   0.262823 0.640887 0.709287 0.284199
C9    C     C_R   0.067213 0.702889 0.667609 0.402473
C10   C     C_R   0.068922 0.752589 0.726159 -0.105301
C11   C     C_R   0.195189 0.750053 0.772511 -0.226940
C12   C     C_R   0.195101 0.800290 0.831164 0.622375
C13   C     C_R   0.958114 0.855260 0.794966 -0.168734
C14   C     C_R   0.946720 0.804618 0.739633 0.073538
H1    H     H_    0.863572 0.894853 0.802774 0.144992
H2    H     H_    0.834871 0.806009 0.708702 0.179239
C15   C     C_R   0.260076 0.880691 0.120840 -0.139899
H3    H     H_    0.393715 0.897921 0.108907 0.131059
C16   C     C_R   0.268215 0.844770 0.157307 -0.118705
H4    H     H_    0.407738 0.835462 0.172233 0.117268
C17   C     C_R   0.098815 0.821488 0.174448 0.124323
C18   C     C_R   0.921081 0.834957 0.153748 -0.117913
H5    H     H_    0.787446 0.817927 0.165898 0.120014
C19   C     C_R   0.912892 0.870936 0.117325 -0.138971
H6    H     H_    0.773298 0.880442 0.102588 0.131276
C20   C     C_R   0.082245 0.894491 0.100439 -0.131839
N1    N     N_R   0.943324 0.760966 0.229964 -0.059121
N2    N     N_R   0.949917 0.728267 0.266039 -0.020779
C21   C     C_R   0.120051 0.717432 0.288350 0.238593
N3    N     N_R   0.284255 0.739535 0.271672 -0.030452
N4    N     N_R   0.277811 0.772232 0.235528 -0.064396
C22   C     C_R   0.106991 0.783993 0.214063 0.093107
C23   C     C_R   0.282492 0.638926 0.321164 -0.090624
H7    H     H_    0.393206 0.634000 0.286931 0.156770
C24   C     C_R   0.295776 0.602482 0.356932 -0.148992
H8    H     H_    0.417165 0.571118 0.350069 0.124513
C25   C     C_R   0.150615 0.604858 0.399552 -0.184993
C26   C     C_R   0.995146 0.645976 0.407092 -0.197757
H9    H     H_    0.884339 0.648918 0.440769 0.217450
C27   C     C_R   0.985188 0.685346 0.373853 0.530563
C28   C     C_R   0.127803 0.680564 0.328553 -0.097714
C29   C     C_R   0.481915 0.389579 0.631682 -0.147130
H10   H     H_    0.361258 0.419879 0.634293 0.232678
C30   C     C_R   0.477843 0.353508 0.667761 -0.115320
H11   H     H_    0.356160 0.358455 0.698398 0.182281
C31   C     C_R   0.628582 0.312165 0.665193 -0.131271
C32   C     C_R   0.782454 0.305451 0.622987 0.388605
C33   C     C_R   0.796422 0.347357 0.591598 0.398036
C34   C     C_R   0.642747 0.388898 0.594946 -0.302234
N5    N     N_R   0.785783 0.266935 0.733255 -0.015311
N6    N     N_R   0.780356 0.235456 0.770490 -0.056416
C35   C     C_R   0.610672 0.213739 0.784083 0.092472
N7    N     N_R   0.446495 0.225681 0.759327 -0.055058
N8    N     N_R   0.452059 0.257047 0.721984 -0.023442
C36   C     C_R   0.622196 0.277614 0.707430 0.273423
C37   C     C_R   0.427514 0.158484 0.841636 -0.121952
H12   H     H_    0.292877 0.171082 0.826460 0.120970
C38   C     C_R   0.421171 0.123097 0.878535 -0.151660
H13   H     H_    0.281650 0.109493 0.890441 0.128431
C39   C     C_R   0.591944 0.105029 0.899209 -0.132561
C40   C     C_R   0.769440 0.123855 0.882257 -0.161487
H14   H     H_    0.903835 0.110902 0.897267 0.128194
C41   C     C_R   0.775735 0.159552 0.845480 -0.116081
H15   H     H_    0.914961 0.172923 0.833137 0.118234
C42   C     C_R   0.604757 0.177122 0.824436 0.127360
C43   C     C_R   0.570791 0.145767 0.160383 -0.133648
C44   C     C_R   0.662813 0.354219 0.339716 -0.118888
C45   C     C_R   0.854834 0.286993 0.251858 -0.230987
C46   C     C_R   0.834603 0.341263 0.304447 -0.140821
C47   C     C_R   0.509086 0.311584 0.320078 -0.274400
C48   C     C_R   0.529500 0.256276 0.267214 0.212137
C49   C     C_R   0.704135 0.243678 0.232929 0.221030
C50   C     C_R   0.724542 0.188384 0.180056 -0.282651
C51   C     C_R   0.399011 0.158704 0.195659 -0.141985
C52   C     C_R   0.378804 0.212956 0.248276 -0.217299
H16   H     H_    0.857056 0.179603 0.153372 0.138477
H17   H     H_    0.277682 0.126885 0.182123 0.139304
H18   H     H_    0.989425 0.278699 0.226293 0.128088
H19   H     H_    0.244219 0.221242 0.273845 0.139512
H20   H     H_    0.955932 0.373084 0.317961 0.129665
H21   H     H_    0.376587 0.320372 0.346771 0.146347
O11   O     O_R   0.743670 0.046700 0.952260 -0.597628
O12   O     O_R   0.409540 0.072400 0.076630 -0.602474
O13   O     O_R   0.235480 0.953360 0.047790 -0.598011
C53   C     C_R   0.576036 0.090757 0.100966 0.930808
O14   O     O_R   0.414170 0.054050 0.954440 -0.598583
O15   O     O_R   0.240140 0.934880 0.924740 -0.582583
C54   C     C_R   0.583319 0.066182 0.937425 0.930574
O16   O     O_R   0.739000 0.065180 0.075310 -0.593826
O17   O     O_3   0.571870 0.960980 0.990450 -0.252846
V3    V     V_3+5 0.298470 0.007240 0.001770 1.163693
O18   O     O_R   0.910180 0.927540 0.923320 -0.569181
C55   C     C_R   0.078973 0.909168 0.899735 0.942328
O19   O     O_R   0.905550 0.945890 0.045500 -0.593848
C56   C     C_R   0.073789 0.933698 0.062482 0.919625
V4    V     V_3+5 0.798010 0.992650 0.998130 1.182075
O20   O     O_3   0.074480 0.039020 0.009550 -0.281479
O21   O     O_3   0.287124 0.792045 0.879385 -0.671825
H22   H     H_    0.241904 0.823145 0.919004 0.300830
S1    S     S_3+6 0.802435 0.743207 0.394325 -0.001134
O22   O     O_2   0.647482 0.723696 0.346791 -0.332016
O23   O     O_2   0.715407 0.751285 0.455528 -0.208162
O24   O     O_3   0.897146 0.811734 0.398076 -0.497677
H23   H     H_    0.784921 0.839717 0.403221 0.387446
S2    S     S_3+6 0.941569 0.240172 0.602500 -0.022914
O25   O     O_2   0.111243 0.257340 0.644691 -0.324659
O26   O     O_2   0.840325 0.184681 0.607783 -0.246496
O27   O     O_3   0.020069 0.220137 0.529821 -0.498024
H24   H     H_    0.122265 0.188651 0.524627 0.386557
O28   O     O_3   0.955825 0.347282 0.556032 -0.692632
H25   H     H_    0.070523 0.336491 0.574742 0.355689
S3    S     S_3+6 0.537173 0.699463 0.796388 0.059896
O29   O     O_2   0.619555 0.764320 0.815671 -0.291059
O30   O     O_2   0.509753 0.683056 0.851901 -0.183140
O31   O     O_3   0.696050 0.649539 0.748338 -0.486141
H26   H     H_    0.818613 0.656995 0.771215 0.358431
S4    S     S_3+6 0.323033 0.566211 0.709637 0.009843
O32   O     O_2   0.507019 0.543654 0.674226 -0.249833
O33   O     O_2   0.348597 0.569013 0.773837 -0.212830
O34   O     O_3   0.145482 0.515149 0.676507 -0.572719
H27   H     H_    0.029375 0.532471 0.702073 0.357570
S5    S     S_3+6 0.981702 0.714595 0.601453 -0.008044
O35   O     O_2   0.786478 0.684887 0.584955 -0.239218
O36   O     O_2   0.968319 0.782532 0.610684 -0.251562
O37   O     O_3   0.135121 0.680842 0.542884 -0.562438
H28   H     H_    0.260342 0.701915 0.556868 0.363491

loop_
_geom_bond_atom_site_label_1
_geom_bond_atom_site_label_2
_geom_bond_distance
_ccdc_geom_bond_type
C48   C52   1.398825 A    
C52   H19   1.083710 S    
C6    C9    1.418315 A    
C40   H14   1.082688 S    
C4    C6    1.495586 S    
O15   V3    1.994255 S    
C7    C8    1.412936 A    
C8    S4    1.778439 S    
C1    O6    1.304261 A    
S5    O37   1.677041 S    
S1    O23   1.503652 D    
C3    C25   1.487560 S    
C24   C25   1.401539 A    
C23   H7    1.082916 S    
V4    O20   2.161532 S    
O11   V4    1.973733 S    
C15   H3    1.082755 S    
N5    C36   1.359470 A    
C2    C44   1.495217 S    
C19   H6    1.082723 S    
S2    O26   1.503477 D    
O5    C3    1.297508 A    
C45   C46   1.398085 A    
O19   C56   1.303149 A    
C27   S1    1.771997 S    
V2    O10   2.161514 S    
C30   H11   1.083104 S    
C18   H5    1.082606 S    
C21   N3    1.359815 A    
C20   C56   1.494716 S    
O21   H22   0.988492 S    
O18   C55   1.293413 A    
C46   H20   1.083283 S    
O8    V2    1.974605 S    
C24   H8    1.083204 S    
C37   H12   1.082588 S    
C15   C20   1.408823 A    
C26   C27   1.407904 A    
C11   C12   1.431553 A    
C16   C17   1.407554 A    
O17   V4    1.710038 S    
C38   H13   1.082663 S    
O1    V2    1.990066 S    
O7    V1    2.144692 S    
C18   C19   1.402958 A    
C45   C49   1.398761 A    
S4    O34   1.682436 S    
C43   C51   1.412790 A    
O16   V4    1.994505 S    
N8    C36   1.358466 A    
C23   C28   1.408572 A    
C32   C33   1.424502 A    
C32   S2    1.782431 S    
C47   H21   1.084097 S    
O9    C4    1.295363 A    
C45   H18   1.083707 S    
C40   C41   1.403255 A    
C10   C11   1.425592 A    
S1    O22   1.501362 D    
O12   V3    1.997487 S    
C17   C18   1.408590 A    
O4    C2    1.291742 A    
C23   C24   1.401171 A    
O15   C55   1.301514 A    
C29   C30   1.396348 A    
C7    S3    1.787855 S    
C5    C12   1.420705 A    
C12   O21   1.383569 S    
C49   C50   1.415254 A    
S2    O27   1.682796 S    
N1    N2    1.333858 A    
C44   C46   1.412774 A    
C51   C52   1.398214 A    
O34   H27   0.991439 S    
S5    O36   1.503154 D    
C31   C32   1.420006 A    
C1    C34   1.497428 S    
C33   C34   1.418351 A    
O2    C1    1.297308 A    
C41   H15   1.082511 S    
N5    N6    1.333793 A    
C5    C55   1.483357 S    
C48   C49   1.418046 A    
O11   C54   1.300762 A    
C43   C53   1.495320 S    
C26   H9    1.082978 S    
C33   O28   1.380294 S    
C41   C42   1.408673 A    
C21   C28   1.494587 S    
N1    C22   1.359431 A    
O3    C4    1.304057 A    
S3    O31   1.681594 S    
C43   C50   1.406477 A    
N2    C21   1.358598 A    
O13   C56   1.299966 A    
C47   C48   1.415337 A    
O6    V2    1.973221 S    
O14   C54   1.299227 A    
O9    V2    1.990171 S    
N4    C22   1.360809 A    
N3    N4    1.335162 A    
O31   H26   0.990654 S    
O2    V1    1.984341 S    
C9    S5    1.787161 S    
O18   V4    1.990080 S    
C27   C28   1.421782 A    
C7    C11   1.421431 A    
S3    O30   1.503064 D    
S4    O32   1.500973 D    
C39   C54   1.491883 S    
C50   H16   1.084090 S    
C37   C42   1.406263 A    
C29   H10   1.079254 S    
O1    C2    1.309507 A    
C17   C22   1.494742 S    
C16   H4    1.082608 S    
O14   V3    1.984531 S    
C39   C40   1.407299 A    
C51   H17   1.083276 S    
O5    V1    1.978930 S    
C44   C47   1.406522 A    
O8    C3    1.302208 A    
O12   C53   1.291806 A    
S5    O35   1.502472 D    
C29   C34   1.401666 A    
C13   H1    1.084023 S    
O37   H28   0.990614 S    
C14   H2    1.078810 S    
V3    O20   1.699363 S    
C5    C13   1.396327 A    
C35   N7    1.360327 A    
C19   C20   1.407818 A    
C13   C14   1.388379 A    
O4    V1    1.997300 S    
C15   C16   1.402706 A    
O3    V1    1.994390 S    
V1    O10   1.699366 S    
S2    O25   1.501506 D    
O19   V4    1.974645 S    
C30   C31   1.403956 A    
C6    C8    1.414680 A    
N7    N8    1.333953 A    
O7    V2    1.711612 S    
O17   V3    2.144637 S    
N6    C35   1.359235 A    
C31   C36   1.491925 S    
C37   C38   1.399817 A    
C25   C26   1.404601 A    
C10   C14   1.406269 A    
O13   V3    1.978909 S    
C35   C42   1.491674 S    
O27   H24   0.990561 S    
C38   C39   1.408313 A    
O28   H25   0.990427 S    
C9    C10   1.424585 A    
S1    O24   1.682013 S    
C53   O16   1.309478 A    
O24   H23   0.990521 S    
S3    O29   1.503556 D    
S4    O33   1.502460 D    
