data_mof_unit_18164.cif
_audit_creation_date              2013-03-05T15:41:40-0500
_audit_creation_method            fapswitch 2.2
_symmetry_space_group_name_H-M    P1
_symmetry_Int_Tables_number       1
_space_group_crystal_system       triclinic
_cell_length_a                    17.267821
_cell_length_b                    8.773155
_cell_length_c                    7.507869
_cell_angle_alpha                 103.288065
_cell_angle_beta                  90.834926
_cell_angle_gamma                 93.890576
_cell_volume                      1103.85584783

loop_
_atom_site_label
_atom_site_type_symbol
_atom_site_description
_atom_site_fract_x
_atom_site_fract_y
_atom_site_fract_z
_atom_type_partial_charge
O1    O     O_R   0.505650 0.286040 0.618880 -0.565384
O2    O     O_R   0.494350 0.713960 0.381120 -0.565386
O3    O     O_R   0.490960 0.256910 0.309800 -0.579469
O4    O     O_R   0.509040 0.743090 0.690200 -0.579469
C1    C     C_R   0.496578 0.200504 0.454399 0.797602
C2    C     C_R   0.503422 0.799496 0.545601 0.797599
O5    O     O_R   0.394600 0.516230 0.672450 -0.547336
O6    O     O_R   0.605400 0.483770 0.327550 -0.547331
O7    O     O_R   0.379910 0.487100 0.363380 -0.562341
O8    O     O_R   0.620090 0.512900 0.636620 -0.562342
C3    C     C_R   0.351487 0.496923 0.523869 0.784885
C4    C     C_R   0.648513 0.503077 0.476131 0.784884
Cu1   Cu    Cu3+1 0.508700 0.517250 0.683000 1.117302
Cu2   Cu    Cu3+1 0.491300 0.482750 0.317000 1.117302
C5    C     C_R   0.267415 0.493978 0.533664 -0.091321
C6    C     C_R   0.732585 0.506022 0.466336 -0.091320
C7    C     C_R   0.220159 0.388638 0.398072 -0.149024
C8    C     C_R   0.779841 0.611363 0.601928 -0.149025
C9    C     C_R   0.140941 0.411075 0.382383 0.321674
C10   C     C_R   0.859058 0.588927 0.617618 0.321674
C11   C     C_R   0.109309 0.534074 0.509565 0.015334
C12   C     C_R   0.890691 0.465927 0.490438 0.015336
C13   C     C_R   0.156134 0.632813 0.648276 -0.128826
C14   C     C_R   0.843866 0.367187 0.351726 -0.128827
C15   C     C_R   0.234818 0.612641 0.660782 -0.136159
C16   C     C_R   0.765182 0.387359 0.339220 -0.136160
C17   C     C_2   0.026788 0.559558 0.505097 -0.065660
C18   C     C_2   0.973212 0.440444 0.494906 -0.065661
H1    H     H_    0.729069 0.305590 0.235892 0.188312
H2    H     H_    0.270931 0.694409 0.764111 0.188312
H3    H     H_    0.989945 0.321106 0.480294 0.186211
H4    H     H_    0.010055 0.678895 0.519709 0.186211
H5    H     H_    0.131658 0.726595 0.746278 0.200415
H6    H     H_    0.868342 0.273404 0.253726 0.200415
C19   C     C_2   0.486540 0.033777 0.433870 -0.239432
C20   C     C_2   0.513459 0.966223 0.566130 -0.239434
N1    N     N_2   0.478180 0.456750 0.041980 0.023712
N2    N     N_2   0.521820 0.543250 0.958020 0.023717
C21   C     C_1   0.253148 0.260639 0.271366 0.409067
N3    N     N_1   0.279402 0.158266 0.170389 -0.193031
C22   C     C_1   0.746851 0.739364 0.728632 0.409062
N4    N     N_1   0.720597 0.841737 0.829607 -0.193034
N5    N     N_R   0.905771 0.683277 0.768616 0.105460
O9    O     O_R   0.908424 0.835820 0.801683 -0.329012
O10   O     O_R   0.945636 0.616611 0.874013 -0.298704
N6    N     N_R   0.094229 0.316726 0.231384 0.105461
O11   O     O_R   0.054364 0.383394 0.125989 -0.298704
O12   O     O_R   0.091575 0.164184 0.198315 -0.329012
C23   C     C_1   0.440121 0.948592 0.273798 0.369914
N7    N     N_1   0.403298 0.881368 0.146301 -0.203449
C24   C     C_1   0.559877 0.051408 0.726204 0.369920
N8    N     N_1   0.596699 0.118632 0.853703 -0.203446
N9    N     N_R   0.405307 0.406905 0.962195 0.259772
O13   O     O_R   0.390765 0.259910 0.880364 -0.354858
O14   O     O_R   0.347488 0.493852 0.009267 -0.335660
N10   N     N_R   0.594691 0.593091 0.037798 0.259780
O15   O     O_R   0.609235 0.740079 0.119618 -0.354858
O16   O     O_R   0.652506 0.506138 0.990739 -0.335659

loop_
_geom_bond_atom_site_label_1
_geom_bond_atom_site_label_2
_geom_bond_distance
_ccdc_geom_bond_type
C19   C23   1.457084 S    
O7    Cu2   1.961069 S    
N1    N2    1.302789 D    
O3    Cu2   1.969214 S    
N5    O10   1.301398 A    
C22   N4    1.157232 T    
C19   C20   1.359340 D    
O5    Cu1   1.970025 S    
O6    C4    1.303514 A    
C17   C18   1.335575 D    
N1    N9    1.384357 S    
O3    C1    1.297417 A    
C13   C15   1.386643 A    
C11   C17   1.458391 S    
C9    N6    1.439580 S    
C12   C18   1.458393 S    
N9    O13   1.300367 A    
Cu2   N1    2.032155 S    
O5    C3    1.303515 A    
O7    C3    1.294376 A    
Cu1   N2    2.032155 S    
O2    C2    1.290375 A    
C20   C24   1.457085 S    
O8    C4    1.294376 A    
O1    C1    1.290375 A    
C1    C19   1.433366 S    
C6    C8    1.413238 A    
C7    C9    1.402258 A    
C2    C20   1.433365 S    
C8    C10   1.402256 A    
N9    O14   1.301272 A    
N5    O9    1.301282 A    
C6    C16   1.396384 A    
O2    Cu2   1.971032 S    
C12   C14   1.398015 A    
C5    C15   1.396384 A    
O1    Cu1   1.971032 S    
C10   C12   1.412831 A    
C24   N8    1.157707 T    
N6    O12   1.301281 A    
C4    C6    1.453456 S    
C21   N3    1.157232 T    
C10   N5    1.439581 S    
N2    N10   1.384302 S    
N10   O15   1.300297 A    
C16   H1    1.083826 S    
O4    C2    1.297417 A    
C23   N7    1.157705 T    
C7    C21   1.449834 S    
C8    C22   1.449834 S    
O4    Cu1   1.969214 S    
C5    C7    1.413237 A    
N6    O11   1.301395 A    
C15   H2    1.083826 S    
O6    Cu2   1.970029 S    
C9    C11   1.412830 A    
C17   H4    1.086667 S    
Cu1   Cu2   2.704441 S    
C3    C5    1.453456 S    
C11   C13   1.398015 A    
C18   H3    1.086666 S    
C14   H6    1.083931 S    
C14   C16   1.386643 A    
N10   O16   1.301228 A    
C13   H5    1.083930 S    
O8    Cu1   1.961069 S    
