data_mof_unit_13718.cif
_audit_creation_date              2012-12-11T16:32:20-0500
_audit_creation_method            fapswitch 2.2
_symmetry_space_group_name_H-M    P1
_symmetry_Int_Tables_number       1
_space_group_crystal_system       triclinic
_cell_length_a                    6.942733
_cell_length_b                    14.420934
_cell_length_c                    15.881234
_cell_angle_alpha                 90.043579
_cell_angle_beta                  89.79988
_cell_angle_gamma                 90.090132
_cell_volume                      1590.02805619

loop_
_atom_site_label
_atom_site_type_symbol
_atom_type_description
_atom_site_fract_x
_atom_site_fract_y
_atom_site_fract_z
_atom_type_partial_charge
O1    O     O_R   0.361630 0.167340 0.164570 -0.535377
O2    O     O_R   0.638370 0.832660 0.835430 -0.536110
O3    O     O_R   0.690860 0.157560 0.338690 -0.540271
O4    O     O_R   0.309140 0.842440 0.661310 -0.540440
O5    O     O_R   0.861260 0.336420 0.339380 -0.537766
O6    O     O_R   0.138740 0.663580 0.660620 -0.537435
C1    C     C_R   0.521520 0.134562 0.367892 0.663864
C2    C     C_R   0.478477 0.865421 0.632093 0.663448
O7    O     O_R   0.691330 0.156310 0.165190 -0.540063
O8    O     O_R   0.308670 0.843690 0.834810 -0.539271
O9    O     O_R   0.861730 0.335160 0.164640 -0.536793
O10   O     O_R   0.138270 0.664840 0.835360 -0.533359
C3    C     C_R   0.522643 0.134048 0.136527 0.700802
C4    C     C_R   0.477299 0.866030 0.863414 0.699803
O11   O     O_R   0.361150 0.168600 0.339320 -0.537300
O12   O     O_R   0.638850 0.831400 0.660680 -0.537309
O13   O     O_3   0.527950 0.310560 0.252000 -0.365141
O14   O     O_3   0.472050 0.689440 0.748000 -0.364875
V1    V     V_3+5 0.802770 0.240990 0.251980 1.407504
V2    V     V_3+5 0.197230 0.759010 0.748020 1.412636
O15   O     O_R   0.191450 0.346190 0.165260 -0.537349
O16   O     O_R   0.808550 0.653810 0.834740 -0.540177
C5    C     C_R   0.022913 0.367806 0.136516 0.704378
C6    C     C_R   0.977164 0.632134 0.863429 0.705018
O17   O     O_R   0.190980 0.347440 0.338770 -0.543216
O18   O     O_R   0.809020 0.652560 0.661230 -0.543757
C7    C     C_R   0.022112 0.369558 0.367640 0.669325
C8    C     C_R   0.977886 0.630455 0.632349 0.669698
V3    V     V_3+5 0.302780 0.262760 0.251980 1.413814
V4    V     V_3+5 0.697220 0.737240 0.748020 1.410417
O19   O     O_3   0.027730 0.193200 0.251960 -0.367507
O20   O     O_3   0.972270 0.806800 0.748040 -0.367800
C9    C     C_3   0.919175 0.419751 0.524330 -0.142523
C10   C     C_3   0.080816 0.580277 0.475646 -0.142622
C11   C     C_3   0.093179 0.467146 0.567624 -0.148360
C12   C     C_3   0.906811 0.532882 0.432351 -0.147134
H1    H     H_    0.169484 0.440521 0.623955 0.108104
H2    H     H_    0.830508 0.559507 0.376017 0.098092
H3    H     H_    0.852630 0.353080 0.543925 0.093100
H4    H     H_    0.147362 0.646949 0.456050 0.092329
C13   C     C_3   0.988321 0.560849 0.562110 -0.002816
C14   C     C_3   0.011671 0.439178 0.437866 -0.001543
C15   C     C_3   0.814085 0.514284 0.519629 -0.113179
C16   C     C_3   0.185906 0.485744 0.480346 -0.113265
H5    H     H_    0.660737 0.526362 0.536291 0.106188
H6    H     H_    0.339253 0.473667 0.463684 0.106304
H7    H     H_    0.903351 0.316228 0.753498 0.101609
H8    H     H_    0.097623 0.683682 0.246385 0.102650
C17   C     C_R   0.037889 0.691992 0.034582 -0.151259
C18   C     C_R   0.961220 0.307980 0.965389 -0.133842
C19   C     C_R   0.065234 0.722822 0.116880 -0.079931
C20   C     C_R   0.932993 0.277169 0.883149 -0.074200
C21   C     C_R   0.076477 0.659401 0.182554 -0.107588
C22   C     C_R   0.924237 0.340517 0.817345 -0.118640
C23   C     C_R   0.060645 0.564683 0.166385 -0.132179
C24   C     C_R   0.941192 0.435203 0.833446 -0.126806
C25   C     C_R   0.032302 0.531381 0.083450 0.069910
C26   C     C_R   0.968829 0.468514 0.916415 0.073219
C27   C     C_R   0.020039 0.596206 0.016349 0.052624
C28   C     C_R   0.980479 0.403708 0.983544 0.053688
C29   C     C_R   0.012996 0.435299 0.066834 -0.185444
C30   C     C_R   0.987500 0.564612 0.933068 -0.182273
H9    H     H_    0.028849 0.744093 0.985761 0.108187
H10   H     H_    0.969236 0.255906 0.014270 0.105210
H11   H     H_    0.077577 0.796330 0.129737 0.121675
H12   H     H_    0.919044 0.203707 0.870382 0.118636
H13   H     H_    0.069578 0.518093 0.219604 0.091052
H14   H     H_    0.933283 0.481769 0.780176 0.089502
C31   C     C_3   0.321483 0.026084 0.478405 -0.108270
C32   C     C_3   0.678513 0.973875 0.521557 -0.108930
C33   C     C_3   0.400546 0.925674 0.473437 -0.140107
C34   C     C_3   0.599449 0.074285 0.526525 -0.139772
H15   H     H_    0.318142 0.864315 0.451353 0.092994
H16   H     H_    0.681860 0.135643 0.548605 0.093271
H17   H     H_    0.173345 0.047385 0.460840 0.107764
H18   H     H_    0.826651 0.952573 0.539121 0.107749
C35   C     C_3   0.490095 0.937253 0.561612 -0.011268
C36   C     C_3   0.509900 0.062708 0.438353 -0.010875
C37   C     C_3   0.411091 0.037010 0.567207 -0.142655
C38   C     C_3   0.588904 0.962950 0.432753 -0.143181
H19   H     H_    0.337060 0.067741 0.622612 0.095409
H20   H     H_    0.662917 0.932218 0.377340 0.095566
H21   H     H_    0.582794 0.819370 0.248481 0.104507
H22   H     H_    0.393522 0.180568 0.752901 0.116750
C39   C     C_R   0.461996 0.191813 0.964429 -0.188992
C40   C     C_R   0.523803 0.808064 0.036237 -0.157688
C41   C     C_R   0.430151 0.222408 0.881850 0.266546
C42   C     C_R   0.547723 0.777147 0.118956 0.266781
C43   C     C_R   0.418336 0.157621 0.816864 -0.143700
C44   C     C_R   0.564871 0.842030 0.183992 -0.175501
C45   C     C_R   0.438265 0.063237 0.833411 -0.207159
C46   C     C_R   0.555664 0.936692 0.166816 -0.189489
C47   C     C_R   0.468606 0.030706 0.916261 0.074187
C48   C     C_R   0.528903 0.969364 0.083759 0.071343
C49   C     C_R   0.481015 0.096240 0.983072 0.022423
C50   C     C_R   0.514432 0.903812 0.017061 0.006501
C51   C     C_R   0.486755 0.934555 0.933156 -0.158935
C52   C     C_R   0.512635 0.065576 0.066764 -0.159056
H23   H     H_    0.471264 0.243489 0.013696 0.107148
H24   H     H_    0.509447 0.755977 0.987519 0.120091
H25   H     H_    0.428770 0.016116 0.780531 0.106877
H26   H     H_    0.567298 0.983865 0.219576 0.105757
N1    N     N_3   0.405864 0.319082 0.863162 -0.658825
H27   H     H_    0.517587 0.339074 0.822828 0.224429
H28   H     H_    0.419728 0.358970 0.917838 0.233054
N2    N     N_3   0.546835 0.679398 0.136081 -0.656038
H29   H     H_    0.569411 0.667324 0.200203 0.217474
H30   H     H_    0.662963 0.649719 0.104075 0.235956

loop_
_geom_bond_atom_site_label_1
_geom_bond_atom_site_label_2
_ccdc_geom_bond_type
C26   C30   A    
C17   H9    S    
C18   H10   S    
C12   C14   S    
O4    C2    A    
V1    O19   S    
C49   C52   A    
O9    V1    S    
C9    H3    S    
C10   H4    S    
C9    C14   S    
C11   H1    S    
C34   C37   S    
O3    C1    A    
C40   C42   A    
C25   C27   A    
N2    H29   S    
C48   C52   A    
O12   V4    S    
C8    C13   S    
O13   V3    S    
C19   H11   S    
C3    C52   S    
C31   C33   S    
O7    C3    A    
C34   C36   S    
C9    C11   S    
O5    C7    A    
O7    V1    S    
O6    C8    A    
C16   H6    S    
C17   C19   A    
C18   C20   A    
O3    V1    S    
O14   V4    S    
C43   C45   A    
C40   H24   S    
O14   V2    S    
C46   H26   S    
C21   C23   A    
C2    O12   A    
C32   C35   S    
C13   C15   S    
C31   C36   S    
C10   C13   S    
C14   C16   S    
C45   H25   S    
C11   C13   S    
O1    V3    S    
C33   C38   S    
C20   C22   A    
O11   V3    S    
C35   C37   S    
O17   V3    S    
H8    C21   S    
C22   C24   A    
C39   C41   A    
C32   C38   S    
C9    C15   S    
C10   C16   S    
C38   H20   S    
O8    C4    A    
O8    V2    S    
C37   H19   S    
C1    O11   A    
C24   H14   S    
O15   V3    S    
C28   C29   A    
C19   C21   A    
C39   H23   S    
C45   C47   A    
C42   N2    S    
C44   C46   A    
C50   C51   A    
O10   V2    S    
C46   C48   A    
N1    H28   S    
C23   C25   A    
C48   C50   A    
C11   C16   S    
C15   H5    S    
C40   C50   A    
C1    C36   S    
C41   N1    S    
C34   H16   S    
C42   C44   A    
O18   V4    S    
H7    C22   S    
C32   H18   S    
C2    C35   S    
O16   C6    A    
C31   C37   S    
O1    C3    A    
H22   C43   S    
C12   H2    S    
C47   C51   A    
C33   C35   S    
C20   H12   S    
C4    C51   S    
C33   H15   S    
V2    O20   S    
H21   C44   S    
C27   C30   A    
C6    C30   S    
O16   V4    S    
C23   H13   S    
C25   C29   A    
O5    V1    S    
O17   C7    A    
O6    V2    S    
O10   C6    A    
O18   C8    A    
C17   C27   A    
O2    V4    S    
C18   C28   A    
O15   C5    A    
V3    O19   S    
V4    O20   S    
C39   C49   A    
C7    C14   S    
N2    H30   S    
O9    C5    A    
O13   V1    S    
C10   C12   S    
C24   C26   A    
C31   H17   S    
C36   C38   S    
O2    C4    A    
O4    V2    S    
C5    C29   S    
C47   C49   A    
N1    H27   S    
C41   C43   A    
C12   C15   S    
C32   C34   S    
C26   C28   A    
