data_mof_unit_40823.cif
_audit_creation_date              2012-12-11T16:26:23-0500
_audit_creation_method            fapswitch 2.2
_symmetry_space_group_name_H-M    P1
_symmetry_Int_Tables_number       1
_space_group_crystal_system       triclinic
_cell_length_a                    6.927738
_cell_length_b                    17.497138
_cell_length_c                    19.574988
_cell_angle_alpha                 108.695345
_cell_angle_beta                  89.237248
_cell_angle_gamma                 90.873954
_cell_volume                      2247.24601998

loop_
_atom_site_label
_atom_site_type_symbol
_atom_type_description
_atom_site_fract_x
_atom_site_fract_y
_atom_site_fract_z
_atom_type_partial_charge
O1    O     O_R   0.494330 0.415720 0.413720 -0.528638
O2    O     O_R   0.819330 0.430070 0.560210 -0.468454
O3    O     O_R   0.994320 0.584280 0.586280 -0.523337
C1    C     C_R   0.650331 0.417583 0.583991 0.805854
O4    O     O_R   0.823730 0.406300 0.412670 -0.546533
O5    O     O_R   0.998760 0.560340 0.437690 -0.560639
C2    C     C_R   0.654558 0.381638 0.386301 0.777467
O6    O     O_R   0.489890 0.439660 0.562310 -0.534718
O7    O     O_3   0.662340 0.550560 0.508380 -0.392832
V1    V     V_3+5 0.935370 0.490620 0.498450 1.595799
O8    O     O_R   0.328750 0.569930 0.439790 -0.519631
C3    C     C_R   0.161500 0.584972 0.418151 0.729286
O9    O     O_R   0.324340 0.593700 0.587330 -0.560960
C4    C     C_R   0.155264 0.615581 0.615686 0.794491
V2    V     V_3+5 0.435940 0.509380 0.501550 1.527092
O10   O     O_3   0.159100 0.449440 0.491620 -0.346708
H1    H     H_    0.364276 0.863151 0.572043 0.159937
C5    C     C_R   0.017226 0.592906 0.751031 0.547331
C6    C     C_R   0.953118 0.581633 0.814910 -0.183199
C7    C     C_R   0.945913 0.646253 0.878925 0.153299
C8    C     C_R   0.003002 0.722859 0.878581 -0.163516
C9    C     C_R   0.065292 0.737091 0.814404 -0.053547
C10   C     C_R   0.074767 0.670756 0.749054 -0.057351
C11   C     C_R   0.120972 0.815973 0.815468 -0.146636
C12   C     C_R   0.188200 0.829052 0.750941 -0.065497
C13   C     C_R   0.199501 0.762551 0.685702 0.000592
C14   C     C_R   0.143943 0.683679 0.684642 -0.142139
C15   C     C_R   0.241694 0.907277 0.748692 0.631614
C16   C     C_R   0.305870 0.918442 0.684763 -0.104249
C17   C     C_R   0.316067 0.853695 0.621599 -0.232360
C18   C     C_R   0.262514 0.776846 0.621617 -0.166168
H2    H     H_    0.910226 0.521640 0.814376 0.194304
H3    H     H_    0.998751 0.770825 0.929756 0.128156
H4    H     H_    0.346389 0.978235 0.684121 0.196891
H5    H     H_    0.269770 0.729126 0.570382 0.112036
C19   C     C_R   0.302520 0.632625 0.319350 0.586382
C20   C     C_R   0.155151 0.635745 0.370238 -0.189965
C21   C     C_R   0.999030 0.687465 0.375306 -0.289108
C22   C     C_R   0.987458 0.736590 0.330709 0.055646
C23   C     C_R   0.134026 0.732143 0.278758 -0.042700
C24   C     C_R   0.292290 0.680089 0.273426 -0.064079
C25   C     C_R   0.833451 0.790623 0.337525 0.132082
C26   C     C_R   0.823484 0.838668 0.292032 0.232331
C27   C     C_R   0.966784 0.832775 0.237664 0.101899
C28   C     C_R   0.123464 0.779595 0.232117 -0.100997
C29   C     C_R   0.271475 0.773856 0.180161 0.001854
C30   C     C_R   0.428187 0.722365 0.175952 0.606871
C31   C     C_R   0.438303 0.676331 0.222198 -0.186891
C32   C     C_R   0.958931 0.878393 0.188884 0.224363
C33   C     C_R   0.106257 0.870598 0.135714 -0.159643
C34   C     C_R   0.261715 0.819488 0.133142 -0.172706
H6    H     H_    0.888030 0.689590 0.415251 0.161610
H7    H     H_    0.374851 0.814376 0.093168 0.181680
H8    H     H_    0.561614 0.637697 0.217783 0.190426
C35   C     C_R   0.471816 0.185730 0.868782 -0.104419
C36   C     C_R   0.624323 0.133602 0.868457 -0.266495
C37   C     C_R   0.780365 0.128035 0.820427 0.694799
C38   C     C_R   0.783447 0.173817 0.772717 -0.138694
C39   C     C_R   0.630386 0.227225 0.774545 -0.117325
C40   C     C_R   0.474531 0.233084 0.823004 -0.025589
C41   C     C_R   0.935738 0.167274 0.723003 0.571263
C42   C     C_R   0.936177 0.212477 0.675792 0.593746
C43   C     C_R   0.786012 0.266704 0.677832 -0.140174
C44   C     C_R   0.633310 0.274958 0.728071 -0.168126
C45   C     C_R   0.484851 0.331392 0.732659 -0.061829
C46   C     C_R   0.327535 0.334396 0.780305 0.572596
C47   C     C_R   0.322959 0.285832 0.824653 0.570721
C48   C     C_R   0.784975 0.312010 0.630152 0.679192
C49   C     C_R   0.642254 0.370410 0.635411 -0.270970
C50   C     C_R   0.499236 0.384304 0.690743 0.198597
H9    H     H_    0.351420 0.190230 0.905748 0.211651
C51   C     C_R   0.768657 0.405305 0.254532 -0.245142
C52   C     C_R   0.824597 0.422095 0.192092 0.145930
C53   C     C_R   0.810935 0.361763 0.125907 0.654237
C54   C     C_R   0.741200 0.284501 0.120964 0.023928
C55   C     C_R   0.688083 0.265138 0.184585 0.001701
C56   C     C_R   0.701225 0.327610 0.252520 -0.034472
C57   C     C_R   0.619129 0.186959 0.182623 -0.099828
C58   C     C_R   0.560845 0.172688 0.247471 -0.005171
C59   C     C_R   0.575168 0.234937 0.315541 0.021268
C60   C     C_R   0.644787 0.313079 0.317499 -0.111038
C61   C     C_R   0.489786 0.095532 0.245236 -0.181372
C62   C     C_R   0.433422 0.079164 0.307220 -0.180141
C63   C     C_R   0.449643 0.138183 0.374073 0.204164
C64   C     C_R   0.521749 0.215496 0.379236 0.197119
H10   H     H_    0.778257 0.454495 0.304696 0.161909
H11   H     H_    0.476678 0.046016 0.195435 0.129013
H12   H     H_    0.378642 0.019580 0.303295 0.144618
O11   O     O_R   0.775200 0.060470 0.937800 -0.499447
O12   O     O_R   0.441110 0.093720 0.087350 -0.549731
O13   O     O_R   0.266330 0.939630 0.062280 -0.555629
C65   C     C_R   0.610096 0.118297 0.113872 0.749241
O14   O     O_R   0.445750 0.069950 0.939820 -0.514002
O15   O     O_R   0.271000 0.915700 0.913700 -0.522194
C66   C     C_R   0.615200 0.083873 0.917279 0.825544
O16   O     O_R   0.770530 0.084400 0.086380 -0.541452
O17   O     O_3   0.602830 0.949510 0.991680 -0.390848
V3    V     V_3+5 0.329710 0.009370 0.001550 1.531874
O18   O     O_R   0.940990 0.906170 0.912570 -0.541982
C67   C     C_R   0.110071 0.884130 0.884399 0.836329
O19   O     O_R   0.936350 0.929940 0.060100 -0.553625
C68   C     C_R   0.102880 0.916890 0.083526 0.668662
V4    V     V_3+5 0.829160 0.990450 0.998310 1.505778
O20   O     O_3   0.105910 0.050480 0.008320 -0.353548
N1    N     N_3   0.684961 0.799040 0.391281 -0.692396
H13   H     H_    0.615975 0.743267 0.382564 0.251849
H14   H     H_    0.748474 0.817224 0.442212 0.235749
N2    N     N_3   0.667181 0.894346 0.302515 -0.616129
H15   H     H_    0.674558 0.935047 0.354894 0.244020
H16   H     H_    0.536550 0.862418 0.297334 0.241751
N3    N     N_3   0.804549 0.934089 0.194971 -0.622701
H17   H     H_    0.861558 0.990901 0.198517 0.216689
H18   H     H_    0.714957 0.912803 0.150164 0.253439
F1    F     F_    0.573235 0.716846 0.127266 -0.688599
F2    F     F_    0.925754 0.076351 0.818897 -0.590725
F3    F     F_    0.085507 0.116895 0.719446 -0.607669
F4    F     F_    0.023267 0.526021 0.692141 -0.666217
F5    F     F_    0.087010 0.203728 0.628949 -0.595095
F6    F     F_    0.923553 0.299067 0.577931 -0.615999
N4    N     N_3   0.379307 0.454913 0.709041 -0.477540
H19   H     H_    0.392503 0.484282 0.764485 0.238967
H20   H     H_    0.434853 0.498104 0.687598 0.206881
F7    F     F_    0.172556 0.381767 0.782494 -0.635434
F8    F     F_    0.168951 0.290624 0.869505 -0.632332
N5    N     N_3   0.394602 0.119719 0.437912 -0.621958
H21   H     H_    0.476860 0.070988 0.440186 0.235035
H22   H     H_    0.249641 0.101395 0.433180 0.258254
N6    N     N_3   0.895791 0.500646 0.195041 -0.574478
H23   H     H_    0.796843 0.525296 0.168322 0.273699
H24   H     H_    0.900093 0.539132 0.248335 0.235688
F9    F     F_    0.863112 0.378572 0.065031 -0.631578
N7    N     N_3   0.720229 0.227540 0.050315 -0.659733
H25   H     H_    0.626266 0.251612 0.021364 0.250485
H26   H     H_    0.855079 0.220012 0.024488 0.277038
N8    N     N_3   0.544757 0.272525 0.449818 -0.667621
H27   H     H_    0.410193 0.281217 0.475860 0.279019
H28   H     H_    0.637787 0.248039 0.478718 0.265623
N9    N     N_3   0.883693 0.635108 0.945376 -0.588754
H29   H     H_    0.849969 0.574386 0.937241 0.266076
H30   H     H_    0.755623 0.667056 0.961412 0.257457
F10   F     F_    0.230507 0.974436 0.807182 -0.635331
F11   F     F_    0.453377 0.581926 0.313224 -0.714159

loop_
_geom_bond_atom_site_label_1
_geom_bond_atom_site_label_2
_ccdc_geom_bond_type
C27   C32   A    
C36   C66   S    
O18   V4    S    
C35   C36   A    
O19   C68   A    
C30   F1    S    
C52   C53   A    
N3    H17   S    
C1    O6    A    
N6    H23   S    
O17   V3    S    
N8    H27   S    
C37   F2    S    
C28   C29   A    
C36   C37   A    
C12   C15   A    
C31   H8    S    
N1    H14   S    
C13   C14   A    
C59   C64   A    
C8    C9    A    
C19   C20   A    
C20   C21   A    
C55   C57   A    
C48   F6    S    
O5    C3    A    
C17   C18   A    
C59   C60   A    
C8    H3    S    
O15   V3    S    
C61   H11   S    
C65   O16   A    
N2    H15   S    
C5    C6    A    
C7    N9    S    
C3    C20   S    
C32   C33   A    
C19   F11   S    
C54   N7    S    
C51   C56   A    
C43   C48   A    
O8    V2    S    
C42   C43   A    
C62   C63   A    
C40   C47   A    
C50   N4    S    
N7    H25   S    
O1    V2    S    
C10   C14   A    
C4    C14   S    
O7    V1    S    
C32   N3    S    
C35   C40   A    
C38   C41   A    
C62   H12   S    
C13   C18   A    
O14   C66   A    
O1    C2    A    
O9    C4    A    
O11   V4    S    
H1    C17   S    
C19   C24   A    
C41   C42   A    
C6    H2    S    
C1    C49   S    
C25   N1    S    
N4    H20   S    
C22   C25   A    
C55   C56   A    
C23   C28   A    
C53   C54   A    
C5    C10   A    
C11   C12   A    
C22   C23   A    
O4    C2    A    
C57   C58   A    
C48   C49   A    
C57   C65   S    
C38   C39   A    
C29   C34   A    
C58   C59   A    
C34   H7    S    
O11   C66   A    
O2    C1    A    
C54   C55   A    
C16   C17   A    
O12   C65   A    
C30   C31   A    
O15   C67   A    
C41   F3    S    
C33   C34   A    
C39   C44   A    
N3    H18   S    
C63   C64   A    
C5    F4    S    
O17   V4    S    
O3    C4    A    
N9    H30   S    
C64   N8    S    
C23   C24   A    
C2    C60   S    
C45   C46   A    
O6    V2    S    
O9    V2    S    
C26   C27   A    
N5    H21   S    
C18   H5    S    
C25   C26   A    
O13   C68   A    
O2    V1    S    
N4    H19   S    
O19   V4    S    
C63   N5    S    
N8    H28   S    
C29   C30   A    
C15   C16   A    
C11   C67   S    
C27   C28   A    
C51   C52   A    
N6    H24   S    
O5    V1    S    
C58   C61   A    
C51   H10   S    
O8    C3    A    
C33   C68   S    
C52   N6    S    
N1    H13   S    
O18   C67   A    
C44   C45   A    
C6    C7    A    
C12   C13   A    
O4    V1    S    
O3    V1    S    
V1    O10   S    
C37   C38   A    
C21   C22   A    
V3    O20   S    
C16   H4    S    
C24   C31   A    
N2    H16   S    
C46   C47   A    
C9    C11   A    
C26   N2    S    
O13   V3    S    
O7    V2    S    
C49   C50   A    
C56   C60   A    
C42   F5    S    
N9    H29   S    
C43   C44   A    
C46   F7    S    
C39   C40   A    
C21   H6    S    
C7    C8    A    
N7    H26   S    
C61   C62   A    
O16   V4    S    
V4    O20   S    
N5    H22   S    
C9    C10   A    
C15   F10   S    
C45   C50   A    
C53   F9    S    
O14   V3    S    
O12   V3    S    
C35   H9    S    
V2    O10   S    
C47   F8    S    
