data_mof_unit_59702.cif
_audit_creation_date              2012-12-10T20:43:37-0500
_audit_creation_method            fapswitch 2.2
_symmetry_space_group_name_H-M    P1
_symmetry_Int_Tables_number       1
_space_group_crystal_system       triclinic
_cell_length_a                    10.891022
_cell_length_b                    19.152471
_cell_length_c                    19.19567
_cell_angle_alpha                 94.705376
_cell_angle_beta                  92.417119
_cell_angle_gamma                 95.858367
_cell_volume                      3964.52536799

loop_
_atom_site_label
_atom_site_type_symbol
_atom_type_description
_atom_site_fract_x
_atom_site_fract_y
_atom_site_fract_z
_atom_type_partial_charge
C1    C     C_R   0.510408 0.689565 0.506989 0.505308
C2    C     C_R   0.492369 0.763200 0.498176 0.016235
C3    C     C_R   0.516077 0.813263 0.556319 0.098905
C4    C     C_R   0.488926 0.308919 0.492072 0.492836
C5    C     C_R   0.487067 0.882495 0.551351 0.186126
C6    C     C_R   0.474702 0.504715 0.765729 -0.002038
C7    C     C_R   0.578927 0.497502 0.810857 -0.050854
C8    C     C_R   0.561254 0.489434 0.882541 0.157941
C9    C     C_R   0.444918 0.497332 0.910317 0.197653
C10   C     C_R   0.342294 0.505248 0.865994 -0.000051
C11   C     C_R   0.355762 0.505493 0.793465 0.099156
C12   C     C_R   0.602132 0.202280 0.517915 -0.030143
C13   C     C_R   0.396724 0.495588 0.123224 -0.100876
C14   C     C_R   0.400013 0.481742 0.193703 0.086109
C15   C     C_R   0.504626 0.521934 0.092524 0.177944
C16   C     C_R   0.513617 0.492232 0.310952 0.511080
C17   C     C_R   0.513418 0.493106 0.234035 0.049349
C18   C     C_R   0.623657 0.514479 0.201070 -0.051337
C19   C     C_R   0.615248 0.534179 0.132596 -0.115313
C20   C     C_R   0.487082 0.506775 0.689300 0.504549
C21   C     C_R   0.834045 0.515201 0.515853 0.540811
C22   C     C_R   0.163605 0.485068 0.485766 0.516270
C23   C     C_R   0.612031 0.129212 0.507604 0.151439
C24   C     C_2   0.028117 0.481629 0.480211 0.115144
C25   C     C_2   0.966064 0.522486 0.525244 0.006596
C26   C     C_R   0.495445 0.230589 0.488220 -0.000438
C27   C     C_3   0.997506 0.369648 0.401068 -0.300405
C28   C     C_3   0.700267 0.245591 0.567598 -0.228804
C29   C     C_3   0.801458 0.286439 0.529213 -0.267398
C30   C     C_3   0.895639 0.328273 0.581973 -0.441461
C31   C     C_3   0.259730 0.382091 0.216601 -0.281056
C32   C     C_3   0.217642 0.515534 0.895783 -0.222228
C33   C     C_3   0.195799 0.593619 0.899066 -0.287237
C34   C     C_R   0.512434 0.083377 0.478458 0.217749
C35   C     C_3   0.065857 0.604797 0.921023 -0.472287
C36   C     C_3   0.205230 0.435773 0.712464 -0.301607
C37   C     C_3   0.751767 0.511631 0.234699 -0.243815
C38   C     C_3   0.828382 0.465284 0.187972 -0.311706
C39   C     C_3   0.942691 0.446286 0.227511 -0.468226
C40   C     C_3   0.760395 0.511703 0.952967 -0.292353
C41   C     C_3   0.709441 0.503196 0.784582 -0.214374
C42   C     C_3   0.757296 0.430930 0.770100 -0.276798
C43   C     C_3   0.892490 0.439109 0.751891 -0.469168
C44   C     C_3   0.024080 0.572146 0.587392 -0.266975
C45   C     C_R   0.406690 0.109925 0.451902 -0.129782
C46   C     C_3   0.931943 0.609543 0.632127 -0.314553
C47   C     C_3   0.997646 0.652452 0.695986 -0.470465
C48   C     C_3   0.396973 0.725081 0.375010 -0.237372
C49   C     C_3   0.496966 0.720367 0.321221 -0.288849
C50   C     C_3   0.447047 0.674876 0.255142 -0.447470
C51   C     C_3   0.354718 0.876617 0.362674 -0.238672
C52   C     C_3   0.216245 0.882807 0.369165 -0.296545
C53   C     C_3   0.160117 0.910357 0.303978 -0.462014
C54   C     C_3   0.277590 0.209503 0.427050 -0.234068
C55   C     C_3   0.169594 0.153056 0.403380 -0.319764
C56   C     C_R   0.396145 0.182792 0.455326 -0.057047
C57   C     C_3   0.053924 0.186497 0.382210 -0.463572
C58   C     C_3   0.483188 0.775593 0.673018 -0.289807
C59   C     C_3   0.725168 0.066917 0.591991 -0.284390
C60   C     C_3   0.402696 0.954197 0.644011 -0.306748
C61   C     C_R   0.411151 0.852212 0.429319 -0.016442
C62   C     C_R   0.436560 0.781509 0.434721 -0.050761
C63   C     C_R   0.438597 0.902040 0.487435 0.203832
H1    H     H_    0.309703 0.486126 0.092753 0.122532
H2    H     H_    0.967667 0.358857 0.554697 0.150471
H3    H     H_    0.849497 0.249067 0.495655 0.129491
H4    H     H_    0.761800 0.323067 0.494757 0.204890
H5    H     H_    0.657692 0.279653 0.607139 0.166439
H6    H     H_    0.746239 0.211347 0.602008 0.134980
H7    H     H_    0.214178 0.483379 0.208308 0.232313
H8    H     H_    0.237755 0.363272 0.160708 0.117179
H9    H     H_    0.178616 0.367062 0.247317 0.127958
H10   H     H_    0.338861 0.355863 0.236629 0.170763
H11   H     H_    0.996615 0.579284 0.880279 0.140411
H12   H     H_    0.697597 0.554825 0.108428 0.110464
H13   H     H_    0.048182 0.582654 0.971805 0.145006
H14   H     H_    0.055811 0.662058 0.926895 0.139475
H15   H     H_    0.264254 0.624357 0.937381 0.166259
H16   H     H_    0.208406 0.614219 0.847069 0.168758
H17   H     H_    0.143078 0.482884 0.863150 0.156936
H18   H     H_    0.211028 0.497330 0.949077 0.145650
H19   H     H_    0.241440 0.546264 0.720027 0.271331
H20   H     H_    0.118170 0.439096 0.681489 0.124138
H21   H     H_    0.187539 0.395740 0.750580 0.140082
H22   H     H_    0.274789 0.418678 0.675919 0.150178
H23   H     H_    0.333489 0.072421 0.427733 0.132153
H24   H     H_    0.998186 0.494443 0.252408 0.159366
H25   H     H_    0.914608 0.410690 0.268030 0.150612
H26   H     H_    0.000060 0.418164 0.190406 0.138216
H27   H     H_    0.771274 0.415611 0.168035 0.170880
H28   H     H_    0.858886 0.493543 0.142401 0.147130
H29   H     H_    0.799848 0.565888 0.243521 0.143173
H30   H     H_    0.746743 0.489050 0.285972 0.167642
H31   H     H_    0.663895 0.411427 0.920086 0.236168
H32   H     H_    0.843477 0.497413 0.925945 0.118133
H33   H     H_    0.777069 0.505236 0.009229 0.141054
H34   H     H_    0.912354 0.462800 0.388338 0.248277
H35   H     H_    0.746427 0.567587 0.946704 0.150136
H36   H     H_    0.903272 0.466313 0.703359 0.160691
H37   H     H_    0.949887 0.469947 0.795161 0.154725
H38   H     H_    0.925828 0.386323 0.743616 0.127822
H39   H     H_    0.749745 0.400273 0.816401 0.153819
H40   H     H_    0.701824 0.399854 0.726160 0.185271
H41   H     H_    0.715309 0.532142 0.736977 0.143311
H42   H     H_    0.772658 0.537345 0.822645 0.132171
H43   H     H_    0.042181 0.617300 0.730303 0.154491
H44   H     H_    0.068943 0.692614 0.679472 0.151806
H45   H     H_    0.914713 0.333495 0.381804 0.118903
H46   H     H_    0.929385 0.679709 0.726450 0.138586
H47   H     H_    0.883986 0.645357 0.600104 0.164125
H48   H     H_    0.861544 0.570401 0.650872 0.166017
H49   H     H_    0.076574 0.541130 0.622326 0.160615
H50   H     H_    0.087483 0.614267 0.567320 0.174929
H51   H     H_    0.406717 0.622455 0.268673 0.168461
H52   H     H_    0.374552 0.700693 0.227651 0.140123
H53   H     H_    0.523108 0.667617 0.219369 0.149767
H54   H     H_    0.531149 0.773554 0.306588 0.150424
H55   H     H_    0.576966 0.697019 0.344125 0.202942
H56   H     H_    0.044313 0.345815 0.444271 0.157781
H57   H     H_    0.375356 0.672526 0.394672 0.145285
H58   H     H_    0.308069 0.735474 0.349500 0.132921
H59   H     H_    0.205454 0.963683 0.296508 0.146461
H60   H     H_    0.171380 0.874139 0.256982 0.147777
H61   H     H_    0.059952 0.913910 0.310065 0.143840
H62   H     H_    0.167458 0.830276 0.376583 0.155204
H63   H     H_    0.201419 0.919393 0.415314 0.176071
H64   H     H_    0.403018 0.928418 0.352232 0.165630
H65   H     H_    0.368040 0.841280 0.315665 0.134741
H66   H     H_    0.021505 0.217217 0.428069 0.138132
H67   H     H_    0.060490 0.375376 0.357478 0.164041
H68   H     H_    0.073300 0.221657 0.339856 0.144540
H69   H     H_    0.979306 0.144611 0.363010 0.148149
H70   H     H_    0.195394 0.119406 0.357448 0.154111
H71   H     H_    0.146986 0.119697 0.446816 0.163386
H72   H     H_    0.244134 0.245446 0.468905 0.159265
H73   H     H_    0.300085 0.239585 0.381323 0.173511
H74   H     H_    0.638899 0.761676 0.615220 0.243160
H75   H     H_    0.510349 0.808793 0.722441 0.134136
H76   H     H_    0.485574 0.719382 0.682965 0.152042
H77   H     H_    0.386623 0.783449 0.656856 0.148374
H78   H     H_    0.848796 0.365572 0.616170 0.181121
H79   H     H_    0.805105 0.128574 0.516593 0.240734
H80   H     H_    0.798771 0.094851 0.628930 0.099305
H81   H     H_    0.745469 0.011574 0.581219 0.176407
H82   H     H_    0.635507 0.067364 0.617591 0.172853
H83   H     H_    0.581156 0.925111 0.644679 0.261933
H84   H     H_    0.430791 0.997089 0.685836 0.123510
H85   H     H_    0.355464 0.908673 0.668051 0.125805
H86   H     H_    0.337069 0.973970 0.606424 0.172114
H87   H     H_    0.941234 0.292248 0.614768 0.123704
N1    N     N_2   0.521698 0.010016 0.478980 -0.192495
N2    N     N_2   0.723188 0.100297 0.526910 -0.509090
N3    N     N_2   0.511108 0.933960 0.609720 -0.492659
N4    N     N_2   0.420907 0.973351 0.481027 -0.273171
N5    N     N_2   0.428807 0.492655 0.982784 -0.250730
N6    N     N_2   0.509220 0.531118 0.020181 -0.217236
N7    N     N_2   0.959496 0.437483 0.424717 -0.536060
N8    N     N_2   0.288190 0.457887 0.224024 -0.494665
N9    N     N_2   0.246895 0.503735 0.749073 -0.524267
N10   N     N_2   0.653940 0.464455 0.925979 -0.482831
N11   N     N_2   0.569317 0.794192 0.620306 -0.530061
O1    O     O_3   0.500000 0.500000 0.500000 -0.420586
O2    O     O_R   0.783160 0.551820 0.473170 -0.547960
O3    O     O_R   0.222430 0.530340 0.530340 -0.579904
O4    O     O_R   0.771990 0.472690 0.551320 -0.557615
O5    O     O_R   0.222420 0.445150 0.445160 -0.532629
O6    O     O_R   0.435070 0.449940 0.339290 -0.513078
O7    O     O_R   0.419380 0.543640 0.654290 -0.550157
O8    O     O_R   0.586230 0.658380 0.469080 -0.553616
O9    O     O_R   0.559310 0.348040 0.537340 -0.557170
O10   O     O_R   0.435110 0.654980 0.544320 -0.543821
O11   O     O_R   0.419350 0.338590 0.449260 -0.559501
O12   O     O_R   0.586210 0.538520 0.349230 -0.564438
O13   O     O_R   0.559330 0.467910 0.657200 -0.560124
Zn1   Zn    Zn3+2 0.396020 0.434560 0.434560 0.913618
Zn2   Zn    Zn3+2 0.611960 0.561120 0.448760 0.900882
Zn3   Zn    Zn3+2 0.595990 0.448060 0.560420 0.885514
Zn4   Zn    Zn3+2 0.396040 0.556260 0.556260 0.890404

loop_
_geom_bond_atom_site_label_1
_geom_bond_atom_site_label_2
_ccdc_geom_bond_type
C58   H76   S    
C16   O12   A    
C23   N2    S    
C35   H11   S    
C21   O2    A    
O4    Zn3   S    
C41   C42   S    
C57   H69   S    
C28   H6    S    
C51   C61   S    
C39   H24   S    
C60   H85   S    
C42   H40   S    
C11   N9    S    
C7    C8    A    
C48   H57   S    
C59   N2    S    
C15   C19   A    
C32   H18   S    
H83   N3    S    
C12   C23   A    
O5    Zn1   S    
C37   C38   S    
C30   H78   S    
C4    O9    A    
C12   C28   S    
C51   H65   S    
C57   H66   S    
C28   C29   S    
C28   H5    S    
C18   C37   S    
C43   H36   S    
C1    C2    S    
C53   H59   S    
C40   H35   S    
C38   C39   S    
C5    N3    S    
C33   H15   S    
C31   H10   S    
O1    Zn2   S    
C16   O6    A    
C21   O4    A    
C5    C63   A    
C50   H52   S    
C46   C47   S    
N1    N4    D    
H79   N2    S    
C61   C63   A    
C60   N3    S    
O1    Zn3   S    
C36   N9    S    
C29   H4    S    
C49   H54   S    
C45   C56   A    
C16   C17   S    
O10   Zn4   S    
C60   H84   S    
C9    C10   A    
O11   Zn1   S    
C58   H75   S    
C31   H8    S    
C59   H80   S    
C46   H48   S    
C14   C17   A    
C39   H25   S    
C40   H33   S    
O2    Zn2   S    
C42   H39   S    
C25   C44   S    
C44   C46   S    
C20   O7    A    
C54   C56   S    
C35   H13   S    
O9    Zn3   S    
C51   C52   S    
C30   H2    S    
C24   C25   D    
C53   H60   S    
C6    C11   A    
C52   H63   S    
C24   N7    S    
C18   C19   A    
O1    Zn1   S    
C1    O8    A    
C47   H46   S    
C38   H28   S    
C35   H14   S    
C12   C26   A    
C50   H51   S    
H34   N7    S    
C43   H38   S    
C29   C30   S    
C32   H17   S    
C22   O3    A    
C48   C62   S    
C49   H55   S    
C34   N1    S    
C47   H43   S    
C54   H73   S    
C40   N10   S    
C17   C18   A    
C8    C9    A    
C37   H30   S    
C34   C45   A    
C43   H37   S    
O13   Zn3   S    
C15   N6    S    
C41   H42   S    
C59   H82   S    
C31   H9    S    
C14   N8    S    
C44   H50   S    
C47   H44   S    
C13   C15   A    
C22   C24   S    
C42   C43   S    
C40   H32   S    
C8    N10   S    
C44   H49   S    
C48   H58   S    
O3    Zn4   S    
C52   C53   S    
O6    Zn1   S    
O12   Zn2   S    
C58   H77   S    
C21   C25   S    
C54   C55   S    
C48   C49   S    
C23   C34   A    
H31   N10   S    
C4    O11   A    
C37   H29   S    
C57   H68   S    
C33   H16   S    
C63   N4    S    
C3    C5    A    
C53   H61   S    
C26   C56   A    
C59   H81   S    
C4    C26   S    
C52   H62   S    
C6    C7    A    
C27   H56   S    
C36   H22   S    
C27   N7    S    
C55   H71   S    
C6    C20   S    
C38   H27   S    
C41   H41   S    
C51   H64   S    
C32   C33   S    
C55   C57   S    
C2    C3    A    
C46   H47   S    
C55   H70   S    
H74   N11   S    
H19   N9    S    
C13   H1    S    
C27   H45   S    
C36   H21   S    
O7    Zn4   S    
C54   H72   S    
C19   H12   S    
C33   C35   S    
O8    Zn2   S    
C1    O10   A    
C45   H23   S    
C50   H53   S    
C60   H86   S    
C7    C41   S    
C61   C62   A    
C20   O13   A    
O1    Zn4   S    
C31   N8    S    
C30   H87   S    
C10   C11   A    
C3    N11   S    
C29   H3    S    
C22   O5    A    
C10   C32   S    
C9    N5    S    
C49   C50   S    
N5    N6    D    
C27   H67   S    
C36   H20   S    
H7    N8    S    
C13   C14   A    
C58   N11   S    
C39   H26   S    
C2    C62   A    
