data_mof_unit_60330.cif
_audit_creation_date              2013-03-05T16:24:36-0500
_audit_creation_method            fapswitch 2.2
_symmetry_space_group_name_H-M    P1
_symmetry_Int_Tables_number       1
_space_group_crystal_system       triclinic
_cell_length_a                    27.683101
_cell_length_b                    15.74512
_cell_length_c                    14.922916
_cell_angle_alpha                 90.035018
_cell_angle_beta                  89.235167
_cell_angle_gamma                 89.918604
_cell_volume                      6503.91994507

loop_
_atom_site_label
_atom_site_type_symbol
_atom_site_description
_atom_site_fract_x
_atom_site_fract_y
_atom_site_fract_z
_atom_type_partial_charge
O1    O     O_R   0.500000 0.376780 0.574460 -0.603115
O2    O     O_R   0.500000 0.623220 0.425540 -0.603111
O3    O     O_R   0.500010 0.376780 0.425520 -0.607231
O4    O     O_R   0.499990 0.623220 0.574480 -0.607220
C1    C     C_R   0.499999 0.337491 0.499976 0.911531
C2    C     C_R   0.500001 0.662509 0.500024 0.911576
O5    O     O_R   0.428750 0.500010 0.574460 -0.591681
O6    O     O_R   0.571250 0.499990 0.425540 -0.591697
O7    O     O_R   0.428760 0.500020 0.425520 -0.616680
O8    O     O_R   0.571240 0.499980 0.574480 -0.616669
C3    C     C_R   0.405844 0.497465 0.500728 0.912405
C4    C     C_R   0.594156 0.502518 0.499273 0.912424
Zn1   Zn    Zn3+2 0.499990 0.500000 0.599450 1.021988
Zn2   Zn    Zn3+2 0.500010 0.500000 0.400550 1.021973
C5    C     C_R   0.177206 0.420293 0.475107 0.565887
C6    C     C_R   0.822801 0.579382 0.524998 0.565839
O9    O     O_2   0.202826 0.356759 0.436999 -0.489112
O10   O     O_2   0.797183 0.642935 0.563072 -0.489145
N1    N     N_R   0.201182 0.488982 0.508205 -0.350857
N2    N     N_R   0.798820 0.510709 0.491874 -0.350853
C7    C     C_R   0.177622 0.555358 0.547944 0.567686
C8    C     C_R   0.822378 0.444312 0.452172 0.567727
C9    C     C_R   0.277233 0.533365 0.436228 0.230574
C10   C     C_R   0.722741 0.466330 0.563748 0.230584
C11   C     C_R   0.327465 0.534602 0.435401 -0.264719
C12   C     C_R   0.672509 0.465176 0.564562 -0.264738
C13   C     C_R   0.328225 0.447145 0.570149 0.151496
C14   C     C_R   0.671802 0.552774 0.429915 0.151438
C15   C     C_R   0.278032 0.446558 0.570688 -0.147896
C16   C     C_R   0.721995 0.553281 0.429388 -0.147860
C17   C     C_R   0.252613 0.489789 0.504706 0.214106
C18   C     C_R   0.747389 0.509940 0.495327 0.214078
C19   C     C_R   0.101383 0.489638 0.512274 -0.082122
C20   C     C_R   0.898621 0.509983 0.487919 -0.082115
C21   C     C_R   0.126401 0.417404 0.479065 -0.093733
C22   C     C_R   0.873608 0.582234 0.521101 -0.093725
C23   C     C_R   0.099451 0.345121 0.454418 0.234916
C24   C     C_R   0.900563 0.654496 0.545792 0.234916
C25   C     C_R   0.127258 0.556934 0.550811 -0.051452
C26   C     C_R   0.872744 0.442698 0.449366 -0.051464
C27   C     C_R   0.353260 0.492795 0.502611 -0.130747
C28   C     C_R   0.646741 0.507103 0.497400 -0.130714
H1    H     H_    0.258461 0.411999 0.622301 0.174430
H2    H     H_    0.741587 0.587870 0.377824 0.174447
C29   C     C_R   0.974356 0.434328 0.454671 0.011937
C30   C     C_R   0.025645 0.565249 0.545586 0.011945
C31   C     C_R   0.975354 0.572835 0.531721 0.027407
C32   C     C_R   0.024649 0.426748 0.468533 0.027397
C33   C     C_R   0.949579 0.505238 0.492233 0.063397
C34   C     C_R   0.050424 0.494356 0.508002 0.063399
C35   C     C_R   0.947656 0.376580 0.400972 0.122194
C36   C     C_R   0.052345 0.622988 0.599294 0.122172
C37   C     C_R   0.897483 0.378065 0.404086 -0.132193
C38   C     C_R   0.102517 0.621536 0.596140 -0.132206
O11   O     O_2   0.796945 0.379964 0.416079 -0.525942
O12   O     O_2   0.203053 0.619722 0.584015 -0.525959
C39   C     C_R   0.049341 0.350116 0.452838 -0.205001
C40   C     C_R   0.950671 0.649474 0.547422 -0.205011
H3    H     H_    0.653607 0.430542 0.616998 0.186259
H4    H     H_    0.346345 0.569210 0.382920 0.186282
H5    H     H_    0.877827 0.331269 0.365817 0.214793
H6    H     H_    0.122173 0.668328 0.634415 0.214781
H7    H     H_    0.029721 0.291874 0.442963 0.191999
H8    H     H_    0.970296 0.707702 0.557341 0.191994
C41   C     C_3   0.541448 0.971596 0.531412 0.759685
C42   C     C_3   0.458553 0.028404 0.468589 0.759678
C43   C     C_3   0.536858 0.027715 0.447436 -0.303086
C44   C     C_3   0.463143 0.972285 0.552564 -0.303091
H9    H     H_    0.567280 0.051959 0.405576 0.196326
H10   H     H_    0.432721 0.948041 0.594424 0.196323
H11   H     H_    0.488821 0.947577 0.346228 0.193714
H12   H     H_    0.511180 0.052423 0.653772 0.193716
C45   C     C_1   0.500159 0.248695 0.499991 -0.137285
C46   C     C_1   0.499841 0.751305 0.500009 -0.137291
C47   C     C_3   0.505802 0.027974 0.584829 -0.306009
C48   C     C_3   0.494199 0.972026 0.415171 -0.306009
C49   C     C_3   0.500532 0.082795 0.500339 -0.029346
C50   C     C_3   0.499469 0.917205 0.499661 -0.029346
C51   C     C_1   0.500342 0.173504 0.500137 0.067457
C52   C     C_1   0.499659 0.826496 0.499863 0.067460
C53   C     C_3   0.516833 0.425274 0.969405 -0.143289
C54   C     C_3   0.483167 0.574725 0.030595 -0.143301
C55   C     C_3   0.545206 0.488187 0.028995 -0.131775
C56   C     C_3   0.454794 0.511812 0.971005 -0.131762
H13   H     H_    0.582601 0.478432 0.052935 0.159335
H14   H     H_    0.417399 0.521567 0.947064 0.159345
H15   H     H_    0.530755 0.363452 0.944162 0.152870
H16   H     H_    0.469245 0.636547 0.055838 0.152868
H17   H     H_    0.551831 0.614916 0.943758 0.156846
H18   H     H_    0.448169 0.385083 0.056241 0.156846
N3    N     N_1   0.500020 0.500000 0.268010 -0.078556
N4    N     N_1   0.499980 0.500000 0.731990 -0.078540
C57   C     C_3   0.471637 0.437106 0.030814 -0.138264
C58   C     C_3   0.528362 0.562893 0.969186 -0.138272
C59   C     C_3   0.500011 0.500019 0.089253 0.088090
C60   C     C_3   0.499989 0.499980 0.910746 0.088087
C61   C     C_1   0.500022 0.500018 0.189657 0.088330
C62   C     C_1   0.499978 0.499981 0.810343 0.088368
I1    I     I_    0.362228 0.372130 0.669849 -0.273564
I2    I     I_    0.637833 0.627930 0.330297 -0.273477
F1    F     F_    0.584331 0.939639 0.563909 -0.622507
F2    F     F_    0.415670 0.060361 0.436092 -0.622515
I3    I     I_    0.128126 0.222031 0.425901 -0.129154
I4    I     I_    0.871907 0.777599 0.574317 -0.129157
I5    I     I_    0.760000 0.402076 0.666631 -0.231088
I6    I     I_    0.239931 0.597464 0.333294 -0.231086
I7    I     I_    0.975963 0.303016 0.291499 -0.249286
I8    I     I_    0.024037 0.696460 0.708832 -0.249294

loop_
_geom_bond_atom_site_label_1
_geom_bond_atom_site_label_2
_geom_bond_distance
_ccdc_geom_bond_type
C42   C44   1.540321 S    
C54   C58   1.551895 S    
C13   C15   1.389436 A    
C42   F2    1.382601 S    
C43   C49   1.536903 S    
C41   F1    1.382601 S    
N1    C17   1.424080 S    
N4    C62   1.169261 T    
C32   C39   1.403906 A    
C31   C33   1.414853 A    
C44   C47   1.553341 S    
C5    N1    1.365404 A    
C13   I1    2.128647 S    
C19   C25   1.406737 A    
O1    C1    1.271743 A    
N1    C7    1.362449 A    
C48   C50   1.536866 S    
H11   C48   1.110236 S    
C50   C52   1.428236 S    
C25   C38   1.395026 A    
C29   C35   1.425504 A    
C30   C36   1.425479 A    
H17   C58   1.110102 S    
C56   C60   1.542000 S    
C14   C28   1.412886 A    
O4    Zn1   1.975797 S    
C4    C28   1.457501 S    
C24   C40   1.389806 A    
C37   H5    1.083525 S    
C41   C43   1.540322 S    
C60   C62   1.498311 S    
C24   I4    2.133788 S    
C39   H7    1.077504 S    
C54   C59   1.542026 S    
C11   H4    1.083436 S    
C12   H3    1.083440 S    
C6    N2    1.365408 A    
C14   I2    2.128585 S    
C32   C34   1.414840 A    
C55   C59   1.542001 S    
C57   C59   1.542130 S    
C46   C52   1.183894 T    
C15   H1    1.083093 S    
C40   H8    1.077505 S    
C16   H2    1.083090 S    
O2    C2    1.271742 A    
H12   C47   1.110236 S    
C5    C21   1.407704 A    
C53   C55   1.552011 S    
C36   C38   1.389258 A    
C2    C46   1.398097 S    
C49   C51   1.428236 S    
C44   C50   1.536902 S    
O4    C2    1.272025 A    
C11   C27   1.402765 A    
C23   I3    2.133764 S    
C53   C60   1.542024 S    
C38   H6    1.083523 S    
C19   C34   1.414838 A    
C9    I6    2.117959 S    
C43   H9    1.110114 S    
C9    C17   1.401120 A    
O5    C3    1.277891 A    
O7    Zn2   2.002414 S    
C10   C18   1.401126 A    
C53   C57   1.551893 S    
C13   C27   1.412930 A    
C7    C25   1.394521 A    
C29   C33   1.420564 A    
O6    C4    1.277900 A    
C8    C26   1.394538 A    
C45   C51   1.183894 T    
C6    O10   1.346704 S    
N3    C61   1.169259 T    
C58   C60   1.542129 S    
C47   C49   1.536866 S    
C53   H15   1.110213 S    
O3    Zn2   1.975799 S    
O8    C4    1.282472 A    
C35   I7    2.141362 S    
C55   H13   1.110124 S    
N2    C8    1.362450 A    
C54   C56   1.552010 S    
O7    C3    1.282502 A    
Zn1   N4    1.977880 S    
C20   C26   1.406742 A    
O1    Zn1   1.975406 S    
C12   C28   1.402755 A    
H18   C57   1.110103 S    
N2    C18   1.424072 S    
C29   C32   1.415165 A    
C5    O9    1.346716 S    
C42   C49   1.524954 S    
C30   C31   1.415124 A    
C20   C33   1.414856 A    
O6    Zn2   2.011979 S    
C41   C50   1.524954 S    
C21   C23   1.412939 A    
C10   C12   1.390619 A    
O3    C1    1.272025 A    
O8    Zn1   2.002413 S    
C7    O12   1.350495 S    
C59   C61   1.498311 S    
C8    O11   1.350494 S    
C10   I5    2.117979 S    
C30   C34   1.420511 A    
C41   C47   1.540389 S    
C22   C24   1.412936 A    
C15   C17   1.394991 A    
C6    C22   1.407694 A    
C31   C40   1.403905 A    
C16   C18   1.395014 A    
C55   C58   1.551909 S    
C54   H16   1.110212 S    
C14   C16   1.389452 A    
C19   C21   1.416570 A    
C3    C27   1.457540 S    
C20   C22   1.416592 A    
C56   C57   1.551907 S    
C9    C11   1.390632 A    
C1    C45   1.398097 S    
O2    Zn2   1.975405 S    
Zn2   N3    1.977880 S    
O5    Zn1   2.011978 S    
C36   I8    2.141323 S    
C44   H10   1.110117 S    
C26   C37   1.395024 A    
C56   H14   1.110127 S    
C43   C48   1.553344 S    
C35   C37   1.389262 A    
C23   C39   1.389837 A    
C42   C48   1.540389 S    
