data_mof_unit_65073.cif
_audit_creation_date              2012-12-10T19:02:19-0500
_audit_creation_method            fapswitch 2.2
_symmetry_space_group_name_H-M    P1
_symmetry_Int_Tables_number       1
_space_group_crystal_system       triclinic
_cell_length_a                    14.343465
_cell_length_b                    10.841558
_cell_length_c                    9.557664
_cell_angle_alpha                 90.163501
_cell_angle_beta                  89.673952
_cell_angle_gamma                 90.275619
_cell_volume                      1486.22219569

loop_
_atom_site_label
_atom_site_type_symbol
_atom_type_description
_atom_site_fract_x
_atom_site_fract_y
_atom_site_fract_z
_atom_type_partial_charge
C1    C     C_R   0.497157 0.262344 0.499641 0.872731
C2    C     C_1   0.771218 0.500266 0.499153 -0.119468
C3    C     C_R   0.487285 0.064155 0.624198 -0.027804
C4    C     C_R   0.485486 0.129410 0.498818 -0.321059
C5    C     C_R   0.467557 0.063929 0.374011 0.525459
C6    C     C_R   0.467298 0.935142 0.374414 0.599225
C7    C     C_R   0.485223 0.870744 0.499579 -0.404652
C8    C     C_R   0.486635 0.937287 0.624849 0.023062
C9    C     C_3   0.551805 0.932494 0.746000 0.522339
C10   C     C_3   0.552813 0.072564 0.744604 -0.394618
C11   C     C_R   0.580917 0.516578 0.072763 0.053094
C12   C     C_R   0.331084 0.499950 0.500342 0.807488
C13   C     C_R   0.422353 0.468598 0.075376 -0.034413
C14   C     C_R   0.422243 0.467919 0.927229 0.703675
C15   C     C_R   0.581133 0.515356 0.925697 0.027758
C16   C     C_3   0.647197 0.621576 0.918426 0.362867
C17   C     C_3   0.646025 0.624288 0.077438 0.400307
C18   C     C_R   0.497105 0.737745 0.499988 0.869189
C19   C     C_R   0.668902 0.500148 0.499660 0.787435
C20   C     C_1   0.228756 0.500019 0.500881 -0.113980
C21   C     C_1   0.143342 0.500103 0.500784 0.033774
C22   C     C_1   0.042690 0.500210 0.500317 0.041086
C23   C     C_1   0.957275 0.500280 0.499824 0.041301
C24   C     C_1   0.856627 0.500309 0.499310 0.038417
Cu1   Cu    Cu3+1 0.500000 0.499980 0.640670 1.050057
Cu2   Cu    Cu3+1 0.500000 0.500020 0.359330 1.056733
H1    H     H_    0.620096 0.889349 0.721113 0.048165
N1    N     N_R   0.500540 0.500930 0.147930 -0.177135
N2    N     N_R   0.500540 0.500890 0.852020 -0.246622
O1    O     O_R   0.500000 0.319640 0.618810 -0.565252
O2    O     O_R   0.500010 0.319680 0.381230 -0.522864
O3    O     O_R   0.376050 0.499980 0.618820 -0.488942
O4    O     O_R   0.376060 0.500020 0.381230 -0.584510
O5    O     O_R   0.499990 0.680320 0.618770 -0.579686
O6    O     O_R   0.500000 0.680360 0.381190 -0.458948
O7    O     O_R   0.623940 0.499980 0.618770 -0.533093
O8    O     O_R   0.623950 0.500020 0.381180 -0.580008
F1    F     F_    0.454936 0.123081 0.250525 -0.591934
H2    H     H_    0.617792 0.704057 0.867240 0.166605
H3    H     H_    0.713986 0.602795 0.126830 0.106451
F2    F     F_    0.603658 0.729317 0.129616 -0.571658
F3    F     F_    0.453818 0.874973 0.251324 -0.523964
F4    F     F_    0.507915 0.886100 0.864155 -0.569002
H4    H     H_    0.519616 0.114915 0.838417 0.258473
H5    H     H_    0.621647 0.112401 0.714620 0.144615
H6    H     H_    0.359136 0.444097 0.130876 0.168915
F5    F     F_    0.342830 0.433342 0.861933 -0.638636
F6    F     F_    0.732959 0.586207 0.865188 -0.660975

loop_
_geom_bond_atom_site_label_1
_geom_bond_atom_site_label_2
_ccdc_geom_bond_type
C8    C9    S    
C23   C24   S    
Cu2   O8    S    
C6    C7    A    
C13   C14   A    
C19   O8    A    
C18   O6    A    
Cu2   O4    S    
Cu2   N1    S    
Cu1   O5    S    
C7    C18   S    
C16   F6    S    
C10   H5    S    
C12   O4    A    
C7    C8    A    
C13   N1    A    
C3    C10   S    
C21   C22   S    
C12   O3    A    
Cu1   N2    S    
C18   O5    A    
C12   C20   S    
C13   H6    S    
C11   C15   A    
C11   N1    A    
Cu1   O3    S    
C1    O1    A    
C15   N2    A    
C19   O7    A    
C2    C24   T    
C5    C6    A    
C17   F2    S    
C9    F4    S    
C1    C4    S    
Cu1   O7    S    
C10   H4    S    
C3    C4    A    
Cu2   O6    S    
C1    O2    A    
C20   C21   T    
C9    H1    S    
C3    C8    A    
C9    C10   S    
Cu1   O1    S    
C22   C23   T    
C16   C17   S    
C16   H2    S    
Cu1   Cu2   S    
C5    F1    S    
C14   F5    S    
Cu2   O2    S    
C11   C17   S    
C15   C16   S    
C2    C19   S    
C14   N2    A    
C4    C5    A    
C17   H3    S    
C6    F3    S    
