data_mof_unit_18901.cif
_audit_creation_date              2012-10-26T20:32:05-0400
_audit_creation_method            fapswitch 2.2
_symmetry_space_group_name_H-M    P1
_symmetry_Int_Tables_number       1
_space_group_crystal_system       triclinic
_cell_length_a                    10.635707
_cell_length_b                    10.856989
_cell_length_c                    9.546764
_cell_angle_alpha                 90.003005
_cell_angle_beta                  89.433028
_cell_angle_gamma                 90.219233
_cell_volume                      1102.31954061

loop_
_atom_site_label
_atom_site_type_symbol
_atom_type_description
_atom_site_fract_x
_atom_site_fract_y
_atom_site_fract_z
_atom_type_partial_charge
C1    C     C_R   0.501040 0.262717 0.499874 0.553538
C2    C     C_R   0.503309 0.937964 0.621116 0.006900
C3    C     C_3   0.495432 0.928518 0.776597 -0.237798
C4    C     C_R   0.259373 0.500025 0.500729 0.545403
C5    C     C_3   0.496696 0.070510 0.777071 -0.031652
C6    C     C_R   0.561709 0.590434 0.072929 0.151839
C7    C     C_R   0.429206 0.418125 0.075202 0.007700
C8    C     C_R   0.428984 0.418299 0.926316 0.013951
C9    C     C_R   0.562015 0.590196 0.925543 0.145499
C10   C     C_3   0.699322 0.618157 0.918412 -0.255495
C11   C     C_3   0.698820 0.618797 0.077277 -0.280067
C12   C     C_3   0.961714 0.495716 0.366519 -0.139534
C13   C     C_R   0.500841 0.737291 0.499832 0.561219
C14   C     C_R   0.740640 0.499601 0.499383 0.592281
C15   C     C_3   0.039081 0.502765 0.634940 -0.111471
C16   C     C_3   0.957112 0.399531 0.569881 -0.154506
C17   C     C_3   0.877387 0.498526 0.498223 0.077162
C18   C     C_3   0.958473 0.599405 0.561216 0.237138
C19   C     C_3   0.043499 0.599489 0.430545 -0.111084
C20   C     C_3   0.043352 0.396562 0.438073 -0.140618
C21   C     C_3   0.122688 0.500101 0.502369 0.005555
C22   C     C_R   0.504382 0.062002 0.621289 0.045508
C23   C     C_R   0.504393 0.130117 0.498287 0.009799
C24   C     C_R   0.507457 0.064629 0.370484 -0.156600
C25   C     C_R   0.507344 0.935457 0.370434 -0.153727
C26   C     C_R   0.503765 0.869918 0.498178 0.014687
Cu1   Cu    Cu3+1 0.499990 0.499980 0.640670 0.972337
Cu2   Cu    Cu3+1 0.500010 0.500020 0.359330 0.947741
H1    H     H_    0.918869 0.317708 0.625817 0.144173
H2    H     H_    0.072443 0.507616 0.744637 0.120554
H3    H     H_    0.080939 0.682189 0.375658 0.115709
H4    H     H_    0.929568 0.491293 0.256584 0.117893
H5    H     H_    0.081827 0.312607 0.387248 0.123751
H6    H     H_    0.508865 0.112401 0.270867 0.153575
H7    H     H_    0.508944 0.887719 0.270798 0.141687
H8    H     H_    0.404570 0.888162 0.812806 0.117378
H9    H     H_    0.983453 0.752148 0.657727 0.320400
H10   H     H_    0.580631 0.885798 0.821714 0.166753
H11   H     H_    0.406735 0.111596 0.814031 0.117130
H12   H     H_    0.373919 0.350205 0.131607 0.114536
H13   H     H_    0.373446 0.350617 0.871093 0.114886
H14   H     H_    0.755581 0.541411 0.873382 0.181564
H15   H     H_    0.719201 0.710058 0.871920 0.158720
H16   H     H_    0.754313 0.542236 0.121986 0.156126
H17   H     H_    0.717977 0.711134 0.122818 0.135162
I1    I     I_    0.663929 0.147839 0.865273 -0.431924
N1    N     N_R   0.500800 0.500930 0.147930 -0.229233
N2    N     N_R   0.500800 0.500890 0.852020 -0.225709
O1    O     O_R   0.500000 0.319640 0.618810 -0.486326
O2    O     O_R   0.500010 0.319680 0.381230 -0.515399
O3    O     O_R   0.316850 0.499950 0.618770 -0.516358
O4    O     O_R   0.316860 0.499990 0.381190 -0.506756
O5    O     O_R   0.499990 0.680320 0.618770 -0.498067
O6    O     O_R   0.500000 0.680360 0.381190 -0.510491
O7    O     O_R   0.683140 0.500010 0.618810 -0.479149
O8    O     O_R   0.683150 0.500050 0.381230 -0.513566
O9    O     O_3   0.909383 0.704924 0.625022 -0.702725

loop_
_geom_bond_atom_site_label_1
_geom_bond_atom_site_label_2
_ccdc_geom_bond_type
Cu1   N2    S    
C12   C17   S    
C15   C18   S    
C14   O8    A    
C23   C24   A    
Cu1   O5    S    
Cu2   N1    S    
C2    C22   A    
C1    O2    A    
C10   H14   S    
C9    C10   S    
C10   H15   S    
C18   O9    S    
C15   H2    S    
C17   C18   S    
C16   C20   S    
C7    H12   S    
C19   H3    S    
C12   C20   S    
C6    C9    A    
C8    N2    A    
C2    C3    S    
Cu2   O8    S    
C7    C8    A    
C2    C26   A    
C12   H4    S    
C8    H13   S    
C4    C21   S    
Cu2   O4    S    
C14   C17   S    
C15   C21   S    
C1    O1    A    
C3    H8    S    
C4    O4    A    
C20   H5    S    
C12   C19   S    
C19   C21   S    
C25   H7    S    
C14   O7    A    
C1    C23   S    
C13   O5    A    
C10   C11   S    
C5    H11   S    
H9    O9    S    
Cu1   O7    S    
C13   C26   S    
C11   H17   S    
C6    N1    A    
C4    O3    A    
C15   C16   S    
C11   H16   S    
C24   C25   A    
C16   H1    S    
C9    N2    A    
C20   C21   S    
C13   O6    A    
C5    I1    S    
C6    C11   S    
Cu2   O6    S    
C22   C23   A    
C18   C19   S    
C3    C5    S    
C25   C26   A    
Cu2   O2    S    
C24   H6    S    
C5    C22   S    
Cu1   O1    S    
C3    H10   S    
Cu1   O3    S    
C16   C17   S    
Cu1   Cu2   S    
C7    N1    A    
