data_mof_unit_27094.cif
_audit_creation_date              2012-12-11T16:45:47-0500
_audit_creation_method            fapswitch 2.2
_symmetry_space_group_name_H-M    P1
_symmetry_Int_Tables_number       1
_space_group_crystal_system       triclinic
_cell_length_a                    19.965369
_cell_length_b                    17.290257
_cell_length_c                    15.32091
_cell_angle_alpha                 90.127284
_cell_angle_beta                  53.164115
_cell_angle_gamma                 90.153529
_cell_volume                      4232.96706926

loop_
_atom_site_label
_atom_site_type_symbol
_atom_type_description
_atom_site_fract_x
_atom_site_fract_y
_atom_site_fract_z
_atom_type_partial_charge
C1    C     C_R   0.871248 0.691829 0.999674 -0.080853
C2    C     C_R   0.193711 0.336221 0.010001 -0.019375
C3    C     C_R   0.303756 0.838159 0.993883 -0.063577
C4    C     C_R   0.693182 0.835643 0.010012 -0.064677
C5    C     C_R   0.875496 0.676192 0.312526 0.150654
C6    C     C_R   0.105173 0.684963 0.698353 0.104127
C7    C     C_R   0.395655 0.185713 0.300759 0.096830
C8    C     C_R   0.678204 0.146379 0.676933 0.065747
C9    C     C_R   0.749424 0.673894 0.490368 -0.137288
C10   C     C_R   0.150497 0.711726 0.511419 -0.100140
C11   C     C_R   0.352509 0.214208 0.486291 -0.095766
C12   C     C_R   0.126928 0.692731 0.002846 -0.091811
C13   C     C_R   0.810043 0.176702 0.511553 -0.079042
C14   C     C_R   0.821862 0.714673 0.413223 -0.115597
C15   C     C_R   0.121677 0.740038 0.614349 -0.075403
C16   C     C_R   0.379796 0.241582 0.383871 -0.070902
C17   C     C_R   0.724691 0.190843 0.582158 -0.122178
C18   C     C_R   0.366826 0.321523 0.378214 0.516662
C19   C     C_R   0.688942 0.257146 0.571454 0.501502
C20   C     C_R   0.827603 0.794037 0.423912 0.532484
C21   C     C_R   0.132705 0.820575 0.620439 0.520244
C22   C     C_R   0.302619 0.360331 0.474655 -0.203910
C23   C     C_R   0.372214 0.192262 0.998487 -0.064615
C24   C     C_R   0.740954 0.304507 0.483058 -0.252501
C25   C     C_R   0.759004 0.830129 0.514814 -0.236512
C26   C     C_R   0.196011 0.860132 0.524285 -0.200545
C27   C     C_R   0.253407 0.319417 0.574014 0.104587
C28   C     C_R   0.825441 0.285956 0.410205 0.034033
C29   C     C_R   0.684670 0.788413 0.588038 -0.008438
C30   C     C_R   0.246546 0.819319 0.425068 0.101000
C31   C     C_R   0.677820 0.710875 0.571089 0.125830
C32   C     C_R   0.218234 0.747181 0.421400 -0.088120
C33   C     C_R   0.284201 0.248531 0.576909 -0.104518
C34   C     C_R   0.625861 0.192901 0.004857 -0.106837
C35   C     C_R   0.862280 0.228815 0.431767 0.137557
C36   C     C_3   0.649501 0.643515 0.647250 0.266049
C37   C     C_3   0.258512 0.674760 0.359619 0.256052
C38   C     C_3   0.247777 0.175606 0.639294 0.263152
C39   C     C_3   0.923503 0.168786 0.356118 0.258753
C40   C     C_R   0.882327 0.308837 0.218551 -0.097323
C41   C     C_R   0.145628 0.326679 0.778476 -0.058971
C42   C     C_R   0.354189 0.826757 0.221110 -0.066124
C43   C     C_R   0.616135 0.808448 0.783207 -0.115335
C44   C     C_3   0.735700 0.609231 0.565070 0.164037
C45   C     C_R   0.871958 0.326991 0.313076 -0.102109
C46   C     C_3   0.180309 0.634794 0.453686 0.226045
C47   C     C_3   0.326334 0.137257 0.543544 0.236630
C48   C     C_3   0.859122 0.109748 0.435996 0.145792
C49   C     C_2   0.696900 0.238195 0.082790 -0.052950
C50   C     C_2   0.298216 0.236126 0.924322 -0.027877
C51   C     C_2   0.198752 0.737941 0.080096 -0.018563
C52   C     C_2   0.796977 0.735249 0.926134 -0.051501
C53   C     C_2   0.233485 0.798310 0.011325 -0.102023
C54   C     C_2   0.759447 0.793259 0.998498 -0.084821
C55   C     C_2   0.733723 0.297265 0.012001 -0.075381
C56   C     C_R   0.178989 0.351956 0.673737 -0.066304
C57   C     C_2   0.262141 0.295258 0.995163 -0.095875
C58   C     C_R   0.836548 0.406575 0.939448 -0.082469
C59   C     C_R   0.161803 0.405922 0.063755 -0.117461
C60   C     C_R   0.336995 0.907045 0.938391 -0.044260
C61   C     C_R   0.660915 0.905008 0.065155 -0.079127
C62   C     C_R   0.898294 0.602081 0.308154 -0.036364
C63   C     C_R   0.086688 0.608143 0.700609 -0.126505
C64   C     C_R   0.414225 0.108944 0.298595 -0.119390
C65   C     C_R   0.634125 0.083529 0.684115 -0.038773
C66   C     C_R   0.854766 0.309026 0.020435 0.444175
C67   C     C_R   0.320452 0.852484 0.325859 -0.069095
C68   C     C_R   0.141589 0.307178 0.986535 0.425158
C69   C     C_R   0.357105 0.807840 0.014451 0.427705
C70   C     C_R   0.642324 0.807656 0.983723 0.453825
C71   C     C_R   0.889677 0.694427 0.214733 -0.078078
C72   C     C_R   0.101580 0.697570 0.790720 -0.019731
C73   C     C_R   0.398514 0.197709 0.209021 -0.023760
C74   C     C_R   0.643237 0.175935 0.779681 -0.007083
C75   C     C_R   0.901537 0.398436 0.307271 0.425068
C76   C     C_R   0.127197 0.410047 0.682163 0.443773
C77   C     C_R   0.372151 0.910676 0.317903 0.451082
C78   C     C_R   0.624799 0.823726 0.688917 -0.030418
C79   C     C_R   0.595336 0.896204 0.694876 0.436592
C80   C     C_R   0.861940 0.602435 0.901436 -0.070394
C81   C     C_R   0.136902 0.603584 0.099983 -0.022074
C82   C     C_R   0.362159 0.102799 0.901201 0.010806
C83   C     C_R   0.635982 0.103406 0.101329 -0.069543
C84   C     C_R   0.840728 0.677753 0.941878 0.137870
C85   C     C_R   0.156316 0.679632 0.062087 0.152414
C86   C     C_R   0.341872 0.178495 0.940431 0.155046
C87   C     C_R   0.655135 0.179582 0.064121 0.150270
C88   C     C_R   0.802505 0.338218 0.997171 -0.068713
H1    H     H_    0.291098 0.420975 0.471486 0.203948
H2    H     H_    0.284652 0.224088 0.866786 0.173064
H3    H     H_    0.213629 0.725070 0.136026 0.175898
H4    H     H_    0.786356 0.724954 0.865443 0.187791
H5    H     H_    0.218576 0.813520 0.956257 0.155042
H6    H     H_    0.769996 0.805346 0.058801 0.148144
H7    H     H_    0.721781 0.310411 0.953369 0.144928
H8    H     H_    0.275280 0.309164 0.052487 0.154211
H9    H     H_    0.868154 0.254719 0.198654 0.232667
H10   H     H_    0.169119 0.281665 0.801145 0.151206
H11   H     H_    0.331114 0.781297 0.197995 0.146365
H12   H     H_    0.715577 0.353024 0.466909 0.170407
H13   H     H_    0.635169 0.758520 0.803956 0.217637
H14   H     H_    0.855602 0.576656 0.842329 0.167111
H15   H     H_    0.144054 0.577943 0.158182 0.170957
H16   H     H_    0.354930 0.076909 0.843005 0.182832
H17   H     H_    0.641755 0.077520 0.160733 0.152281
H18   H     H_    0.877536 0.746553 0.028342 0.132485
H19   H     H_    0.119776 0.747199 0.974877 0.121926
H20   H     H_    0.379018 0.246915 0.026774 0.121199
H21   H     H_    0.617573 0.247864 0.979124 0.139828
H22   H     H_    0.634132 0.655180 0.728171 0.148630
H23   H     H_    0.765386 0.888522 0.534035 0.205419
H24   H     H_    0.266412 0.671403 0.282247 0.147160
H25   H     H_    0.243123 0.174439 0.714446 0.145602
H26   H     H_    0.937429 0.169568 0.274507 0.163283
H27   H     H_    0.554026 0.529193 0.545640 0.384174
H28   H     H_    0.372084 0.610603 0.466103 0.399100
H29   H     H_    0.130505 0.097480 0.543747 0.394023
H30   H     H_    0.042560 0.181137 0.467703 0.400400
H31   H     H_    0.825630 0.740035 0.613289 0.352187
H32   H     H_    0.054435 0.707989 0.422198 0.377835
H33   H     H_    0.440594 0.220056 0.585036 0.384804
H34   H     H_    0.206274 0.921169 0.527680 0.205708
H35   H     H_    0.695502 0.121004 0.432537 0.368306
H36   H     H_    0.816401 0.440075 0.899535 0.156982
H37   H     H_    0.182534 0.440219 0.102529 0.143546
H38   H     H_    0.316580 0.941443 0.899511 0.162805
H39   H     H_    0.679990 0.937991 0.106932 0.156453
H40   H     H_    0.893338 0.570091 0.370929 0.220906
H41   H     H_    0.068256 0.581742 0.654389 0.196933
H42   H     H_    0.434073 0.083410 0.343463 0.198480
H43   H     H_    0.640748 0.052005 0.618910 0.170831
H44   H     H_    0.002779 0.149923 0.918616 0.425354
H45   H     H_    0.736542 0.550699 0.534360 0.145018
H46   H     H_    0.127819 0.104053 0.925520 0.407203
H47   H     H_    0.368342 0.602214 0.064806 0.404999
H48   H     H_    0.489157 0.652675 0.083635 0.423920
H49   H     H_    0.879666 0.749173 0.190354 0.152286
H50   H     H_    0.104827 0.752417 0.821598 0.162550
H51   H     H_    0.395124 0.252401 0.178156 0.161220
H52   H     H_    0.659300 0.229019 0.800569 0.126449
H53   H     H_    0.066624 0.467363 0.288160 0.384141
H54   H     H_    0.977246 0.433391 0.626178 0.424089
H55   H     H_    0.516278 0.941101 0.384224 0.422252
H56   H     H_    0.193288 0.590071 0.493082 0.147375
H57   H     H_    0.519306 0.037901 0.616267 0.410416
H58   H     H_    0.516580 0.474564 0.221954 0.405197
H59   H     H_    0.567906 0.393030 0.612996 0.382386
H60   H     H_    0.978793 0.948463 0.344757 0.403227
H61   H     H_    0.987759 0.976450 0.778783 0.405810
H62   H     H_    0.313322 0.091476 0.505433 0.154617
H63   H     H_    0.881079 0.068247 0.469070 0.157757
H64   H     H_    0.708561 0.227041 0.142235 0.162839
N1    N     N_R   0.908660 0.628630 0.995840 -0.063691
N2    N     N_R   0.096530 0.421430 0.063580 -0.078477
N3    N     N_R   0.403470 0.921430 0.936420 -0.075044
N4    N     N_R   0.596530 0.921430 0.063580 -0.069150
N5    N     N_R   0.927500 0.575670 0.211370 -0.068939
N6    N     N_R   0.072500 0.575670 0.788630 -0.064869
N7    N     N_R   0.427500 0.075670 0.211370 -0.065934
N8    N     N_R   0.572500 0.075670 0.788630 -0.042796
N9    N     N_R   0.908660 0.365680 0.995820 -0.093111
N10   N     N_R   0.091340 0.365680 0.004180 -0.102849
N11   N     N_R   0.408660 0.865680 0.995820 -0.107140
N12   N     N_R   0.091340 0.628630 0.004160 -0.063154
N13   N     N_R   0.591340 0.865680 0.004180 -0.097345
N14   N     N_R   0.922310 0.631420 0.151980 -0.068877
N15   N     N_R   0.077690 0.631420 0.848020 -0.068452
N16   N     N_R   0.422310 0.131420 0.151980 -0.069287
N17   N     N_R   0.577690 0.131420 0.848020 -0.056277
N18   N     N_R   0.927500 0.426330 0.211360 -0.115258
N19   N     N_R   0.072500 0.426330 0.788640 -0.099591
N20   N     N_R   0.427500 0.926330 0.211360 -0.100007
N21   N     N_R   0.572500 0.926330 0.788640 -0.122938
N22   N     N_R   0.903470 0.570760 0.936440 -0.061750
N23   N     N_R   0.408660 0.128630 0.995840 -0.067963
N24   N     N_R   0.096530 0.570760 0.063560 -0.061709
N25   N     N_R   0.403470 0.070760 0.936440 -0.063436
N26   N     N_R   0.596530 0.070760 0.063560 -0.061719
N27   N     N_R   0.591340 0.128630 0.004160 -0.069137
N28   N     N_R   0.922310 0.368460 0.151950 -0.082806
N29   N     N_R   0.077690 0.368460 0.848050 -0.058738
N30   N     N_R   0.422310 0.868460 0.151950 -0.057936
N31   N     N_R   0.577690 0.868460 0.848050 -0.087210
N32   N     N_R   0.903470 0.421430 0.936420 -0.065494
Ni1   Ni    Ni4+2 0.000000 0.630300 0.000000 0.239352
Ni2   Ni    Ni4+2 0.500000 0.130300 0.000000 0.253278
Ni3   Ni    Ni4+2 1.000000 0.369700 0.000000 0.344474
Ni4   Ni    Ni4+2 0.500000 0.869700 0.000000 0.339297
Ni5   Ni    Ni4+2 0.988090 0.497570 0.863760 0.291198
Ni6   Ni    Ni4+2 0.011910 0.497570 0.136240 0.280678
Ni7   Ni    Ni4+2 0.488090 0.997570 0.863760 0.314365
Ni8   Ni    Ni4+2 0.511910 0.997570 0.136240 0.283637
O1    O     O_2   0.537288 0.527499 0.739015 -0.223778
O2    O     O_2   0.060371 0.093086 0.304868 -0.264105
O3    O     O_2   0.072505 0.233666 0.279804 -0.199736
O4    O     O_3   0.988772 0.180076 0.477592 -0.488386
O5    O     O_2   0.773782 0.556291 0.696259 -0.170740
O6    O     O_2   0.890341 0.610215 0.522076 -0.195400
O7    O     O_3   0.783929 0.705064 0.672859 -0.562604
O8    O     O_2   0.159911 0.538755 0.332820 -0.211647
O9    O     O_2   0.033694 0.572575 0.513606 -0.174441
O10   O     O_3   0.097340 0.675507 0.359818 -0.522097
O11   O     O_2   0.359884 0.038871 0.649060 -0.167880
O12   O     O_2   0.497036 0.645523 0.692336 -0.172870
O13   O     O_2   0.480202 0.089108 0.473707 -0.267295
O14   O     O_3   0.405251 0.180659 0.641691 -0.521525
O15   O     O_2   0.879954 0.036470 0.265430 -0.139666
O16   O     O_2   0.758712 0.998600 0.445965 -0.287787
O17   O     O_3   0.753945 0.130142 0.367935 -0.508590
O18   O     O_2   0.841504 0.166474 0.102405 -0.270741
O19   O     O_2   0.867164 0.173772 0.925323 -0.262092
O20   O     O_3   0.989703 0.205827 0.932179 -0.438376
O21   O     O_2   0.132618 0.170714 0.078161 -0.236969
O22   O     O_2   0.013810 0.206163 0.081295 -0.268642
O23   O     O_3   0.603644 0.553243 0.534675 -0.558468
O24   O     O_3   0.147020 0.157821 0.900594 -0.572686
O25   O     O_2   0.365159 0.676384 0.914531 -0.228307
O26   O     O_2   0.484633 0.705714 0.913006 -0.247836
O27   O     O_3   0.349819 0.655671 0.092187 -0.579308
O28   O     O_2   0.653280 0.664486 0.904037 -0.262846
O29   O     O_2   0.621765 0.673258 0.084398 -0.251665
O30   O     O_3   0.504599 0.708062 0.067673 -0.454746
O31   O     O_2   0.866818 0.455545 0.491505 -0.232683
O32   O     O_2   0.974592 0.357354 0.400790 -0.212359
O33   O     O_3   0.013641 0.494377 0.316250 -0.513477
O34   O     O_2   0.381295 0.572833 0.289535 -0.215867
O35   O     O_2   0.159363 0.454096 0.492924 -0.261769
O36   O     O_2   0.090011 0.329955 0.568312 -0.200954
O37   O     O_3   0.001740 0.454037 0.661746 -0.538327
O38   O     O_2   0.336687 0.955615 0.509075 -0.263742
O39   O     O_2   0.408011 0.832425 0.434008 -0.182799
O40   O     O_3   0.495068 0.957403 0.342949 -0.546920
O41   O     O_2   0.611919 0.924446 0.511113 -0.239169
O42   O     O_2   0.485574 0.857431 0.657513 -0.185857
O43   O     O_3   0.495602 0.004408 0.680954 -0.536807
O44   O     O_2   0.510068 0.328693 0.173823 -0.351022
O45   O     O_2   0.416201 0.707813 0.293760 -0.195283
O46   O     O_2   0.390854 0.406262 0.215852 -0.231293
O47   O     O_3   0.470654 0.451413 0.292551 -0.476594
O48   O     O_2   0.529616 0.206298 0.686479 -0.259174
O49   O     O_2   0.558309 0.314135 0.763034 -0.280876
O50   O     O_3   0.555158 0.341144 0.598872 -0.505213
O51   O     O_2   0.995583 0.793125 0.293106 -0.296646
O52   O     O_2   0.925543 0.875319 0.240237 -0.232006
O53   O     O_3   0.926844 0.920473 0.401109 -0.519386
O54   O     O_2   0.988420 0.827451 0.823699 -0.345703
O55   O     O_2   0.108630 0.901483 0.785937 -0.234493
O56   O     O_3   0.322468 0.634925 0.477668 -0.529790
O57   O     O_3   0.031966 0.952374 0.707949 -0.481227
O58   O     O_2   0.125099 0.070970 0.720193 -0.215596
O59   O     O_2   0.088764 0.203150 0.706481 -0.200717
O60   O     O_3   0.180710 0.123522 0.528658 -0.540918
S1    S     S_3+6 0.567844 0.591235 0.656672 0.030534
S2    S     S_3+6 0.106985 0.209105 0.014543 -0.025842
S3    S     S_3+6 0.391360 0.710019 0.980392 -0.004811
S4    S     S_3+6 0.607401 0.710201 0.008142 0.006941
S5    S     S_3+6 0.939006 0.426161 0.382070 0.003847
S6    S     S_3+6 0.096126 0.411791 0.596363 0.015281
S7    S     S_3+6 0.401409 0.913880 0.405784 0.016545
S8    S     S_3+6 0.547113 0.919987 0.632637 0.017836
S9    S     S_3+6 0.436186 0.376395 0.259381 -0.013849
S10   S     S_3+6 0.580266 0.278738 0.659166 -0.016318
S11   S     S_3+6 0.922154 0.845558 0.334853 0.000943
S12   S     S_3+6 0.348840 0.647461 0.351684 0.023305
S13   S     S_3+6 0.063703 0.874812 0.740193 -0.013620
S14   S     S_3+6 0.156431 0.143138 0.652252 0.021519
S15   S     S_3+6 0.015528 0.168770 0.351224 0.045806
S16   S     S_3+6 0.798833 0.618485 0.613498 0.021452
S17   S     S_3+6 0.115576 0.602491 0.415463 0.042689
S18   S     S_3+6 0.395417 0.108600 0.576108 0.006123
S19   S     S_3+6 0.812146 0.065655 0.377827 0.018037
S20   S     S_3+6 0.886251 0.210655 0.997146 0.003137

loop_
_geom_bond_atom_site_label_1
_geom_bond_atom_site_label_2
_ccdc_geom_bond_type
C83   C87   A    
C21   C26   A    
C78   C79   A    
C12   H19   S    
N25   Ni7   S    
O16   S19   D    
O22   S2    D    
N14   Ni1   S    
H32   O10   S    
C49   C87   S    
C11   C47   S    
C67   C77   A    
C80   C84   A    
C51   C85   S    
C4    C70   A    
N26   N27   A    
C34   N27   A    
C2    C57   S    
N23   N25   A    
N27   Ni2   S    
N20   Ni8   S    
C43   C78   A    
C6    C72   A    
O27   S3    S    
C12   C85   A    
H31   O7    S    
C79   S8    S    
C29   C31   A    
C42   N30   A    
C3    C69   A    
O10   S17   S    
C68   S2    S    
N17   Ni2   S    
C13   C35   A    
C2    C68   A    
C10   C15   A    
C65   N8    A    
C20   S11   S    
C66   C88   A    
N10   Ni3   S    
C39   S15   S    
C71   N14   A    
C23   N23   A    
C20   C25   A    
O20   S20   S    
N15   Ni1   S    
O28   S4    D    
O23   S1    S    
H46   O24   S    
N7    N16   A    
N19   Ni5   S    
C25   C29   A    
C58   N32   A    
O25   S3    D    
O57   S13   S    
C55   C88   S    
C52   C84   S    
C79   N21   A    
N5    Ni6   S    
C74   N17   A    
O35   S6    D    
C51   H3    S    
C6    C15   S    
C40   N28   A    
C50   H2    S    
O15   S19   D    
C29   C78   S    
H28   O56   S    
C28   C35   A    
O56   S12   S    
O43   S8    S    
C37   H24   S    
O40   S7    S    
H44   O20   S    
C10   C46   S    
N31   Ni4   S    
N8    N17   A    
N19   N29   A    
N9    Ni3   S    
C45   C75   A    
H55   O40   S    
C30   C32   A    
O54   S13   D    
H30   O4    S    
C9    C31   A    
C30   C67   S    
C49   H64   S    
C23   H20   S    
C21   S13   S    
C1    H18   S    
C39   C48   S    
O37   S6    S    
C71   H49   S    
C72   H50   S    
C76   S6    S    
N2    Ni6   S    
O29   S4    D    
O44   S9    D    
C24   H12   S    
O45   S12   D    
H53   O33   S    
C41   N29   A    
O21   S2    D    
C40   C45   A    
O51   S11   D    
H33   O14   S    
C73   N16   A    
C65   H43   S    
H29   O60   S    
C52   C54   D    
N6    N15   A    
O41   S8    D    
C31   C36   S    
N1    N22   A    
H61   O57   S    
O8    S17   D    
C54   H6    S    
C28   C45   S    
N13   Ni4   S    
N16   Ni2   S    
C53   H5    S    
C81   N24   A    
C14   C20   A    
C11   C33   A    
C66   S20   S    
C48   S19   S    
C18   S9    S    
C44   S16   S    
N12   Ni1   S    
C82   N25   A    
C70   N13   A    
C70   S4    S    
C40   H9    S    
O31   S5    D    
C38   H25   S    
C75   S5    S    
C2    C59   A    
H54   O37   S    
C46   H56   S    
C73   H51   S    
H59   O50   S    
N3    N11   A    
C49   C55   D    
C74   H52   S    
C4    C61   A    
C23   C86   A    
C27   C33   A    
C83   H17   S    
C66   N9    A    
N18   N28   A    
N11   Ni4   S    
C1    C84   A    
O1    S1    D    
C6    C63   A    
C50   C86   S    
O42   S8    D    
C9    C14   A    
C43   H13   S    
C41   C56   A    
O6    S16   D    
N28   Ni3   S    
N20   N30   A    
C12   N12   A    
N26   Ni8   S    
C11   C16   A    
N24   Ni6   S    
C33   C38   S    
C47   H62   S    
O17   S19   S    
O26   S3    D    
C39   H26   S    
H47   O27   S    
C7    C73   A    
C75   N18   A    
C8    C74   A    
O50   S10   S    
C62   N5    A    
H27   O23   S    
C61   H39   S    
O52   S11   D    
O9    S17   D    
C32   C37   S    
C27   C56   S    
C1    N1    A    
O11   S18   D    
O59   S14   D    
C59   N2    A    
C5    C14   S    
C60   H38   S    
N3    Ni7   S    
N4    Ni8   S    
C76   N19   A    
C55   H7    S    
C7    C16   S    
C64   H42   S    
C26   C30   A    
C46   S17   S    
O30   S4    S    
C22   C27   A    
H57   O43   S    
C36   H22   S    
O19   S20   D    
C72   N15   A    
N6    Ni5   S    
O53   S11   S    
C61   N4    A    
O34   S12   D    
C36   S1    S    
O3    S15   D    
O38   S7    D    
C69   S3    S    
C24   C28   A    
C81   H15   S    
O60   S14   S    
C44   H45   S    
N29   Ni3   S    
O13   S18   D    
C9    C44   S    
O24   S2    S    
C83   N26   A    
C4    C54   S    
C18   C22   A    
C50   C57   D    
N7    Ni8   S    
N2    N10   A    
C16   C18   A    
O2    S15   D    
C69   N11   A    
N8    Ni7   S    
O48   S10   D    
O4    S15   S    
C58   C88   A    
N5    N14   A    
C13   C48   S    
O39   S7    D    
O7    S16   S    
C68   N10   A    
C59   H37   S    
C26   H34   S    
N18   Ni6   S    
O58   S14   D    
C58   H36   S    
C8    C17   S    
C38   C47   S    
O49   S10   D    
N9    N32   A    
O14   S18   S    
C19   C24   A    
C38   S14   S    
C60   N3    A    
C80   N22   A    
C5    C71   A    
C56   C76   A    
C82   C86   A    
C42   H11   S    
C3    C60   A    
C19   S10   S    
C62   H40   S    
O12   S1    D    
C3    C53   S    
C47   S18   S    
C42   C67   A    
N1    Ni1   S    
N4    N13   A    
O5    S16   D    
C77   N20   A    
C35   C39   S    
H35   O17   S    
C64   N7    A    
C43   N31   A    
H60   O53   S    
C17   C19   A    
C22   H1    S    
N21   Ni7   S    
C5    C62   A    
N12   N24   A    
O36   S6    D    
C34   C87   A    
C63   H41   S    
C7    C64   A    
C37   S12   S    
C8    C65   A    
C36   C44   S    
C25   H23   S    
N22   Ni5   S    
O33   S5    S    
C13   C17   A    
O55   S13   D    
C10   C32   A    
C15   C21   A    
H48   O30   S    
H58   O47   S    
N21   N31   A    
O18   S20   D    
C77   S7    S    
C48   H63   S    
C80   H14   S    
C34   H21   S    
C82   H16   S    
C41   H10   S    
O47   S9    S    
O46   S9    D    
C57   H8    S    
C63   N6    A    
C51   C53   D    
C37   C46   S    
N30   Ni4   S    
N32   Ni5   S    
C52   H4    S    
C81   C85   A    
O32   S5    D    
N23   Ni2   S    
