data_mof_unit_56805.cif
_audit_creation_date              2012-12-11T14:15:24-0500
_audit_creation_method            fapswitch 2.2
_symmetry_space_group_name_H-M    P1
_symmetry_Int_Tables_number       1
_space_group_crystal_system       triclinic
_cell_length_a                    11.183254
_cell_length_b                    12.666065
_cell_length_c                    23.602032
_cell_angle_alpha                 90.321275
_cell_angle_beta                  96.639456
_cell_angle_gamma                 68.611589
_cell_volume                      3089.63678726

loop_
_atom_site_label
_atom_site_type_symbol
_atom_type_description
_atom_site_fract_x
_atom_site_fract_y
_atom_site_fract_z
_atom_type_partial_charge
C1    C     C_R   0.148964 0.616514 0.428736 0.544435
C2    C     C_R   0.590205 0.592590 0.326801 -0.126412
C3    C     C_R   0.667214 0.748259 0.324244 -0.115023
C4    C     C_R   0.616040 0.771556 0.266822 0.051715
C5    C     C_R   0.559340 0.699370 0.238541 0.048397
C6    C     C_R   0.529554 0.708994 0.179078 -0.019953
C7    C     C_R   0.598022 0.871288 0.177326 -0.144654
C8    C     C_R   0.629999 0.859829 0.236333 -0.123693
C9    C     C_1   0.235614 0.160734 0.123159 0.007668
C10   C     C_2   0.172672 0.228249 0.226085 -0.132561
C11   C     C_2   0.174168 0.153356 0.266911 -0.009289
C12   C     C_R   0.744931 0.606660 0.405736 0.547112
C13   C     C_1   0.141586 0.192409 0.322855 -0.048548
C14   C     C_1   0.207709 0.194234 0.169669 -0.036027
C15   C     C_1   0.119156 0.229287 0.369409 -0.002990
C16   C     C_1   0.165325 0.755062 0.123822 -0.013028
C17   C     C_2   0.124971 0.731191 0.231072 0.307060
C18   C     C_2   0.212521 0.646596 0.264628 -0.062175
C19   C     C_1   0.202612 0.636992 0.324655 0.009091
C20   C     C_1   0.146784 0.739421 0.171833 -0.054724
C21   C     C_1   0.185628 0.628838 0.373685 0.015776
C22   C     C_1   0.619282 0.763806 0.863739 -0.022968
C23   C     C_R   0.101387 0.282375 0.423443 0.548321
C24   C     C_2   0.658559 0.751210 0.754587 0.273666
C25   C     C_2   0.656738 0.658092 0.726940 0.020237
C26   C     C_1   0.676089 0.646721 0.667684 0.004885
C27   C     C_1   0.642289 0.757473 0.815058 -0.055837
C28   C     C_1   0.701749 0.631096 0.619527 0.008896
C29   C     C_R   0.196300 0.178707 0.854226 0.015560
C30   C     C_R   0.105306 0.239082 0.642857 0.022234
C31   C     C_R   0.042042 0.138319 0.712907 -0.125435
C32   C     C_R   0.040296 0.168353 0.656009 -0.129287
C33   C     C_R   0.165883 0.284603 0.686064 -0.115271
C34   C     C_R   0.147861 0.615734 0.591492 0.543153
C35   C     C_R   0.167314 0.256248 0.742465 0.041775
C36   C     C_R   0.106941 0.180889 0.756213 0.045990
C37   C     C_R   0.119336 0.144556 0.812662 -0.120365
C38   C     C_R   0.248767 0.258938 0.840950 -0.127592
C39   C     C_R   0.232976 0.298741 0.785086 -0.133039
C40   C     C_R   0.127650 0.747029 0.852615 0.010023
C41   C     C_R   0.182739 0.633917 0.651043 0.009327
C42   C     C_R   0.304264 0.563489 0.743374 -0.141679
C43   C     C_R   0.290895 0.556060 0.684149 -0.141974
C44   C     C_R   0.089877 0.719745 0.677354 -0.112374
C45   C     C_R   0.749751 0.602063 0.565839 0.541583
C46   C     C_R   0.098964 0.723858 0.735867 0.043412
C47   C     C_R   0.207802 0.646483 0.769457 0.040917
C48   C     C_R   0.220453 0.657255 0.828203 -0.123321
C49   C     C_R   0.013469 0.815570 0.819427 -0.130164
C50   C     C_R   0.999862 0.804714 0.761034 -0.129251
C51   C     C_R   0.266016 0.109489 0.069535 0.537176
C52   C     C_R   0.532815 0.798749 0.085065 0.559991
C53   C     C_R   0.188561 0.787407 0.069260 0.545201
C54   C     C_R   0.241144 0.114569 0.907761 0.545494
C55   C     C_R   0.574324 0.776752 0.918488 0.560792
C56   C     C_R   0.099493 0.280068 0.585387 0.540558
C57   C     C_R   0.164038 0.786217 0.907438 0.544014
C58   C     C_R   0.553713 0.793342 0.147882 -0.006498
C59   C     C_R   0.662070 0.653545 0.352781 0.010032
C60   C     C_R   0.541554 0.613700 0.270137 -0.128473
Cr1   Cr    Cr6+3 0.189770 0.415650 0.511620 1.028702
Cr2   Cr    Cr6+3 0.930400 0.667320 0.496770 1.036333
Cr3   Cr    Cr6+3 0.879870 0.417010 0.491650 1.031297
Cr4   Cr    Cr6+3 0.149500 0.973980 0.985330 1.023594
Cr5   Cr    Cr6+3 0.457000 0.976510 0.994660 1.024912
Cr6   Cr    Cr6+3 0.411170 0.724270 0.995270 1.050228
H1    H     H_    0.079635 0.081733 0.823208 0.126035
H2    H     H_    0.307689 0.285830 0.873196 0.129621
H3    H     H_    0.994835 0.080912 0.722986 0.106638
H4    H     H_    0.278392 0.357231 0.774770 0.111152
H5    H     H_    0.989817 0.136063 0.622493 0.118446
H6    H     H_    0.211430 0.343332 0.675750 0.128820
H7    H     H_    0.307830 0.602568 0.853888 0.132900
H8    H     H_    0.613370 0.938345 0.154546 0.136712
H9    H     H_    0.939944 0.884034 0.837760 0.130137
H10   H     H_    0.387689 0.503026 0.768797 0.137656
H11   H     H_    0.915059 0.862962 0.735324 0.138858
H12   H     H_    0.362209 0.488013 0.664529 0.133016
H13   H     H_    0.004909 0.780272 0.652617 0.142560
H14   H     H_    0.498714 0.556473 0.250737 0.114938
H15   H     H_    0.670085 0.917394 0.257886 0.112827
H16   H     H_    0.580735 0.521673 0.348778 0.140125
H17   H     H_    0.719937 0.797584 0.344975 0.133476
H18   H     H_    0.143725 0.317828 0.234943 0.127113
H19   H     H_    0.290234 0.581498 0.246692 0.068547
O1    O     O_R   0.196340 0.303200 0.448500 -0.505459
O2    O     O_R   0.811960 0.658090 0.547150 -0.492740
O3    O     O_R   0.757930 0.506140 0.547110 -0.510368
O4    O     O_R   0.988670 0.321620 0.556040 -0.497204
O5    O     O_3   0.000020 0.499990 0.500010 -0.251758
O6    O     O_R   0.113660 0.883270 0.047820 -0.510891
O7    O     O_R   0.186930 0.068530 0.043990 -0.494905
O8    O     O_R   0.377770 0.089040 0.054220 -0.518019
O9    O     O_R   0.562800 0.872960 0.056970 -0.503768
O10   O     O_R   0.555390 0.700940 0.062700 -0.492552
O11   O     O_R   0.295020 0.731920 0.049950 -0.495011
O12   O     O_R   0.199310 0.519670 0.454880 -0.499189
O13   O     O_R   0.094290 0.884230 0.921550 -0.520664
O14   O     O_R   0.168980 0.069410 0.926940 -0.500391
O15   O     O_R   0.358400 0.089990 0.927950 -0.513787
O16   O     O_R   0.544850 0.873850 0.939920 -0.492088
O17   O     O_R   0.536020 0.701900 0.936430 -0.496373
O18   O     O_R   0.277070 0.732810 0.932890 -0.504117
O19   O     O_3   0.339220 0.891590 0.991750 -0.277664
O20   O     O_R   0.045660 0.691380 0.441680 -0.496367
O21   O     O_R   0.811930 0.659460 0.430950 -0.502697
O22   O     O_R   0.757900 0.507620 0.421760 -0.518963
O23   O     O_R   0.988630 0.322990 0.439840 -0.492882
O24   O     O_R   0.196380 0.301720 0.573850 -0.518708
O25   O     O_R   0.199350 0.518300 0.571080 -0.504190
O26   O     O_R   0.045700 0.689900 0.567030 -0.521621
C61   C     C_1   0.485495 0.624845 0.150929 0.216441
N1    N     N_1   0.452416 0.556031 0.129427 -0.291247
O27   O     O_3   0.023363 0.811308 0.255617 -0.544107
C62   C     C_3   0.939465 0.896697 0.216037 -0.098534
H20   H     H_    0.891830 0.859978 0.181582 0.122723
H21   H     H_    0.991446 0.946144 0.197993 0.144289
H22   H     H_    0.862575 0.956850 0.238665 0.131084
C63   C     C_1   0.646268 0.561964 0.755963 0.163101
N2    N     N_1   0.638839 0.484845 0.779252 -0.317414
O28   O     O_3   0.675007 0.837915 0.723702 -0.571227
C64   C     C_3   0.637041 0.941899 0.751516 -0.120498
H23   H     H_    0.702809 0.936484 0.791405 0.115368
H24   H     H_    0.534721 0.969103 0.760408 0.135537
H25   H     H_    0.643933 0.008075 0.722893 0.138921
C65   C     C_1   0.216391 0.032875 0.257771 0.225607
N3    N     N_1   0.250801 0.936458 0.250480 -0.294197

loop_
_geom_bond_atom_site_label_1
_geom_bond_atom_site_label_2
_ccdc_geom_bond_type
C12   O21   A    
C1    C21   S    
C65   N3    T    
Cr3   O3    S    
C6    C58   A    
C35   C36   A    
C9    C51   S    
C24   C27   S    
Cr5   O16   S    
C4    C8    A    
Cr1   O24   S    
O27   C62   S    
C7    C8    A    
Cr2   O20   S    
C26   C28   T    
C43   H12   S    
C55   O17   A    
C36   C37   A    
C45   O2    A    
C55   O16   A    
C38   C39   A    
C2    C60   A    
C29   C54   S    
C23   O23   A    
C40   C49   A    
Cr2   O5    S    
C17   C20   S    
C52   O10   A    
C40   C48   A    
C18   C19   S    
C10   H18   S    
Cr6   O17   S    
C16   C53   S    
C24   O28   S    
C33   H6    S    
C12   C59   S    
Cr4   O14   S    
Cr2   O26   S    
C31   C32   A    
C62   H21   S    
C23   O1    A    
C29   C38   A    
C53   O6    A    
C49   H9    S    
C52   O9    A    
C7    H8    S    
C7    C58   A    
C30   C33   A    
Cr4   O13   S    
C53   O11   A    
C34   O26   A    
C41   C43   A    
C54   O15   A    
C34   C41   S    
Cr1   O25   S    
C25   C63   S    
C61   N1    T    
C44   C46   A    
C17   O27   S    
C32   H5    S    
C57   O18   A    
C28   C45   S    
C18   H19   S    
C8    H15   S    
Cr6   O19   S    
C11   C65   S    
C24   C25   D    
C10   C14   S    
C1    O12   A    
C2    C59   A    
C25   C26   S    
C30   C56   S    
C35   C39   A    
C9    C14   T    
C51   O7    A    
C47   C48   A    
C16   C20   T    
C62   H22   S    
Cr3   O4    S    
C17   C18   D    
O28   C64   S    
C52   C58   S    
C51   O8    A    
C45   O3    A    
Cr5   O9    S    
C38   H2    S    
C22   C27   T    
C13   C15   T    
C3    H17   S    
C34   O25   A    
C41   C44   A    
C54   O14   A    
C2    H16   S    
C42   C43   A    
Cr4   O7    S    
C64   H24   S    
C3    C4    A    
C50   H11   S    
C56   O24   A    
Cr1   O5    S    
Cr6   O11   S    
Cr4   O19   S    
C56   O4    A    
C46   C47   A    
C60   H14   S    
C40   C57   S    
C5    C60   A    
C19   C21   T    
C6    C61   S    
Cr6   O18   S    
C44   H13   S    
Cr1   O12   S    
Cr5   O15   S    
C48   H7    S    
C4    C5    A    
C12   O22   A    
C63   N2    T    
C22   C55   S    
Cr2   O21   S    
Cr2   O2    S    
C46   C50   A    
C42   H10   S    
Cr5   O19   S    
C10   C11   D    
C64   H25   S    
Cr3   O23   S    
C30   C32   A    
C11   C13   S    
C5    C6    A    
C57   O13   A    
C37   H1    S    
Cr3   O5    S    
C15   C23   S    
Cr5   O8    S    
C33   C35   A    
C39   H4    S    
C42   C47   A    
Cr1   O1    S    
C31   H3    S    
C49   C50   A    
C29   C37   A    
C31   C36   A    
Cr4   O6    S    
C64   H23   S    
Cr3   O22   S    
C62   H20   S    
C1    O20   A    
Cr6   O10   S    
C3    C59   A    
