data_mof_unit_48556.cif
_audit_creation_date              2012-12-10T16:57:03-0500
_audit_creation_method            fapswitch 2.2
_symmetry_space_group_name_H-M    P1
_symmetry_Int_Tables_number       1
_space_group_crystal_system       triclinic
_cell_length_a                    7.807263
_cell_length_b                    8.562258
_cell_length_c                    16.601175
_cell_angle_alpha                 92.293916
_cell_angle_beta                  79.693706
_cell_angle_gamma                 93.680511
_cell_volume                      1089.13423765

loop_
_atom_site_label
_atom_site_type_symbol
_atom_type_description
_atom_site_fract_x
_atom_site_fract_y
_atom_site_fract_z
_atom_type_partial_charge
C1    C     C_R   0.546049 0.794662 0.497830 0.929882
C2    C     C_R   0.454970 0.525268 0.209149 0.543518
C3    C     C_R   0.558280 0.427564 0.864354 0.604873
C4    C     C_R   0.449305 0.467451 0.130654 0.565891
C5    C     C_R   0.408952 0.332642 0.896804 -0.354875
C6    C     C_R   0.509637 0.317800 0.105334 -0.328070
C7    C     C_R   0.277653 0.295984 0.849861 0.237271
C8    C     C_R   0.583383 0.229349 0.158807 0.310830
C9    C     C_R   0.297699 0.355033 0.771256 0.529729
C10   C     C_R   0.595847 0.292905 0.236619 0.498070
C11   C     C_2   0.378855 0.294114 0.983534 0.080460
C12   C     C_R   0.453988 0.205324 0.501930 0.946426
C13   C     C_2   0.510807 0.264431 0.020410 0.105737
C14   C     C_2   0.570361 0.958147 0.496367 -0.273266
C15   C     C_2   0.429740 0.041839 0.502975 -0.281326
C16   C     C_R   0.474291 0.494610 0.654382 1.000691
C17   C     C_R   0.523014 0.491641 0.345792 1.044612
C18   C     C_R   0.448181 0.447952 0.739193 -0.499721
C19   C     C_R   0.529581 0.439261 0.261641 -0.460835
C20   C     C_R   0.578562 0.482346 0.785690 0.540893
F1    F     F_    0.723250 0.573352 0.755888 -0.526319
F2    F     F_    0.391002 0.666685 0.233492 -0.548477
F3    F     F_    0.666202 0.210276 0.289585 -0.574215
F4    F     F_    0.172941 0.318620 0.724962 -0.559377
F5    F     F_    0.389720 0.560693 0.078633 -0.580412
F6    F     F_    0.680549 0.475684 0.910218 -0.558090
F7    F     F_    0.040511 0.352280 0.428443 -0.530674
F8    F     F_    0.959492 0.647725 0.571548 -0.505351
H1    H     H_    0.631958 0.226058 0.984710 0.236342
H2    H     H_    0.253626 0.320142 0.020293 0.230849
H3    H     H_    0.703213 0.009082 0.489971 0.216207
H4    H     H_    0.296893 0.990914 0.509322 0.211954
H5    H     H_    0.226496 0.972257 0.899030 0.366613
H6    H     H_    0.592415 0.849503 0.049490 0.428063
N1    N     N_2   0.953500 0.457650 0.478520 0.266624
N2    N     N_2   0.046500 0.542350 0.521480 0.277694
O1    O     O_R   0.388470 0.738640 0.505270 -0.615376
O2    O     O_2   0.991470 0.116269 0.823221 -0.173712
O3    O     O_3   0.141376 0.027924 0.939825 -0.457807
O4    O     O_2   0.841975 0.056774 0.084833 -0.190964
O5    O     O_2   0.653201 0.944274 0.204807 -0.154646
O6    O     O_3   0.531540 0.945350 0.069459 -0.484741
O7    O     O_R   0.611530 0.261360 0.494730 -0.604487
O8    O     O_R   0.679650 0.711510 0.491500 -0.585140
O9    O     O_R   0.320350 0.288490 0.508500 -0.576997
O10   O     O_R   0.337210 0.515200 0.623500 -0.550829
O11   O     O_R   0.662790 0.484800 0.376500 -0.568509
O12   O     O_R   0.628380 0.488060 0.609730 -0.554768
O13   O     O_R   0.371620 0.511940 0.390270 -0.570801
O14   O     O_2   0.969194 0.278704 0.948778 -0.208582
S1    S     S_3+6 0.087366 0.179013 0.889597 0.140615
S2    S     S_3+6 0.657628 0.039677 0.130317 0.163634
Zn1   Zn    Zn3+2 0.305580 0.518120 0.509190 1.202433
Zn2   Zn    Zn3+2 0.694420 0.481880 0.490810 1.198455

loop_
_geom_bond_atom_site_label_1
_geom_bond_atom_site_label_2
_ccdc_geom_bond_type
C2    F2    S    
O3    S1    S    
C9    F4    S    
C5    C11   S    
C1    C14   S    
N2    Zn1   S    
C10   F3    S    
C8    S2    S    
O5    S2    D    
C2    C4    A    
N1    N2    D    
H6    O6    S    
C12   C15   S    
C1    O1    A    
C14   H3    S    
C3    C5    A    
C1    O8    A    
O1    Zn1   S    
C7    C9    A    
C16   O12   A    
C4    F5    S    
C7    S1    S    
C3    C20   A    
N1    Zn2   S    
O12   Zn2   S    
C11   C13   D    
H5    O3    S    
O11   Zn2   S    
O13   Zn1   S    
O10   Zn1   S    
C13   H1    S    
C17   C19   S    
C10   C19   A    
O14   S1    D    
C12   O7    A    
C18   C20   A    
C3    F6    S    
C4    C6    A    
C17   O13   A    
O8    Zn2   S    
C9    C18   A    
C15   H4    S    
C20   F1    S    
F8    N2    S    
C16   C18   S    
C16   O10   A    
C5    C7    A    
C14   C15   D    
C6    C8    A    
O2    S1    D    
O7    Zn2   S    
F7    N1    S    
C2    C19   A    
O4    S2    D    
O9    Zn1   S    
C8    C10   A    
C17   O11   A    
C11   H2    S    
O6    S2    S    
C12   O9    A    
C6    C13   S    
