data_mof_unit_36934.cif
_audit_creation_date              2012-12-11T15:53:55-0500
_audit_creation_method            fapswitch 2.2
_symmetry_space_group_name_H-M    P1
_symmetry_Int_Tables_number       1
_space_group_crystal_system       triclinic
_cell_length_a                    10.663223
_cell_length_b                    10.695217
_cell_length_c                    16.9767
_cell_angle_alpha                 80.600424
_cell_angle_beta                  99.486138
_cell_angle_gamma                 118.384621
_cell_volume                      1671.9823101

loop_
_atom_site_label
_atom_site_type_symbol
_atom_type_description
_atom_site_fract_x
_atom_site_fract_y
_atom_site_fract_z
_atom_type_partial_charge
C1    C     C_R   0.384476 0.284464 0.632007 0.549855
C2    C     C_R   0.477191 0.730638 0.719817 -0.146518
C3    C     C_R   0.463454 0.731000 0.798899 -0.154046
C4    C     C_3   0.066432 0.490760 0.765708 0.115480
C5    C     C_3   0.086935 0.483976 0.680106 -0.244912
C6    C     C_R   0.354201 0.670703 0.664984 0.024500
C7    C     C_1   0.821544 0.656640 0.706135 -0.056653
C8    C     C_1   0.848385 0.684460 0.774029 -0.047558
C9    C     C_1   0.364610 0.233246 0.714314 -0.038252
C10   C     C_1   0.332767 0.185554 0.781341 -0.028775
C11   C     C_1   0.370344 0.636565 0.274751 -0.032144
C12   C     C_R   0.374370 0.652222 0.588015 0.559378
C13   C     C_1   0.344295 0.655085 0.203995 -0.030638
C14   C     C_R   0.795625 0.649659 0.149024 0.036115
C15   C     C_R   0.757636 0.516742 0.194158 0.026297
C16   C     C_R   0.709426 0.488635 0.268379 -0.028715
C17   C     C_R   0.716721 0.719313 0.253126 -0.121049
C18   C     C_R   0.760234 0.745508 0.175665 -0.134674
C19   C     C_3   0.829850 0.422717 0.217433 -0.074180
C20   C     C_3   0.773003 0.389437 0.298463 -0.195533
C21   C     C_R   0.708124 0.596893 0.303527 0.001282
C22   C     C_R   0.259457 0.049609 0.180641 0.000939
C23   C     C_R   0.777248 0.619108 0.626784 0.551402
C24   C     C_R   0.153673 0.061661 0.212695 -0.011488
C25   C     C_R   0.177743 0.102925 0.288377 0.094183
C26   C     C_R   0.398458 0.087258 0.311958 -0.141117
C27   C     C_R   0.375303 0.046914 0.233794 -0.127167
C28   C     C_3   0.070762 0.142978 0.181169 -0.242573
C29   C     C_3   0.098052 0.189207 0.264791 0.146529
C30   C     C_R   0.307326 0.132165 0.335728 -0.005320
C31   C     C_R   0.889802 0.701417 0.856267 0.536721
C32   C     C_R   0.313538 0.707104 0.898191 0.572405
C33   C     C_R   0.285708 0.117284 0.858070 0.587320
C34   C     C_R   0.349128 0.222163 0.400978 0.529879
C35   C     C_R   0.883617 0.689390 0.082941 0.551062
C36   C     C_R   0.316708 0.697491 0.122490 0.547931
C37   C     C_R   0.245786 0.037235 0.094956 0.569905
C38   C     C_R   0.402922 0.625377 0.358976 0.527995
C39   C     C_R   0.699315 0.582519 0.389737 0.551761
C40   C     C_R   0.326943 0.673729 0.823680 0.059403
C41   C     C_R   0.205732 0.626525 0.767191 -0.001018
C42   C     C_R   0.219612 0.621746 0.689086 -0.059885
Cr1   Cr    Cr6+3 0.608440 0.389080 0.519680 1.019889
Cr2   Cr    Cr6+3 0.288640 0.400090 0.490760 1.083350
Cr3   Cr    Cr6+3 0.602940 0.710800 0.489510 1.070458
Cr4   Cr    Cr6+3 0.052530 0.947560 0.964210 1.113272
Cr5   Cr    Cr6+3 0.059970 0.626800 0.992920 1.084915
Cr6   Cr    Cr6+3 0.373320 0.938440 0.995370 1.050428
H1    H     H_    0.584307 0.770641 0.702795 0.157993
H2    H     H_    0.782012 0.329144 0.181915 0.137746
H3    H     H_    0.690882 0.277223 0.308342 0.129542
H4    H     H_    0.857720 0.426577 0.349412 0.213649
H5    H     H_    0.492173 0.094083 0.350805 0.146116
H6    H     H_    0.453291 0.025000 0.213425 0.168240
H7    H     H_    0.957273 0.071642 0.161905 0.179229
H8    H     H_    0.125704 0.234509 0.136445 0.136517
H9    H     H_    0.167821 0.305896 0.267060 0.093612
H10   H     H_    0.558936 0.776689 0.840443 0.149477
H11   H     H_    0.973305 0.508507 0.768842 0.139989
H12   H     H_    0.110106 0.395992 0.672287 0.181816
H13   H     H_    0.005021 0.496588 0.634715 0.152272
H14   H     H_    0.701004 0.799510 0.275311 0.205339
H15   H     H_    0.777698 0.844918 0.140142 0.139647
O1    O     O_R   0.754020 0.497590 0.609930 -0.518789
O2    O     O_R   0.295080 0.533620 0.397890 -0.446931
O3    O     O_R   0.485280 0.746620 0.388440 -0.489814
O4    O     O_R   0.720550 0.696220 0.420010 -0.455898
O5    O     O_3   0.500010 0.499990 0.499980 -0.340274
O6    O     O_R   0.163320 0.092900 0.874450 -0.402863
O7    O     O_R   0.934650 0.822080 0.882840 -0.486221
O8    O     O_R   0.915520 0.604140 0.893670 -0.497417
O9    O     O_R   0.191760 0.638110 0.923230 -0.455558
O10   O     O_R   0.406180 0.826930 0.920660 -0.523739
O11   O     O_R   0.358620 0.062870 0.901950 -0.497511
O12   O     O_R   0.481420 0.271390 0.600630 -0.474974
O13   O     O_R   0.163910 0.085460 0.050210 -0.486707
O14   O     O_R   0.935200 0.815170 0.045770 -0.524114
O15   O     O_R   0.916120 0.596690 0.069430 -0.516298
O16   O     O_R   0.192310 0.631200 0.086170 -0.499099
O17   O     O_R   0.406770 0.819480 0.096420 -0.519336
O18   O     O_R   0.359170 0.055960 0.064880 -0.501099
O19   O     O_3   0.161940 0.837600 0.984160 -0.301765
O20   O     O_R   0.263810 0.254550 0.589590 -0.484134
O21   O     O_R   0.300820 0.531200 0.560890 -0.512099
O22   O     O_R   0.491480 0.744020 0.564270 -0.512752
O23   O     O_R   0.726290 0.693800 0.583010 -0.485155
O24   O     O_R   0.747830 0.500190 0.434090 -0.509031
O25   O     O_R   0.475680 0.273800 0.437630 -0.527564
O26   O     O_R   0.257620 0.257160 0.413750 -0.459059
S1    S     S_3+6 0.941203 0.119768 0.316891 -0.018529
O27   O     O_2   0.811865 0.098740 0.258634 -0.362575
O28   O     O_2   0.916864 0.979911 0.364199 -0.255595
O29   O     O_3   0.967243 0.236889 0.380487 -0.515684
H16   H     H_    0.882604 0.188779 0.411405 0.347301
S2    S     S_3+6 0.066549 0.345315 0.834982 0.031222
O30   O     O_2   0.992893 0.332597 0.906251 -0.242150
O31   O     O_2   0.985868 0.208818 0.795386 -0.272488
O32   O     O_3   0.234983 0.373727 0.866692 -0.503558
H17   H     H_    0.282354 0.397081 0.817037 0.315381
C43   C     C_2   0.991077 0.499475 0.225034 0.310754
H18   H     H_    0.048324 0.449512 0.207316 0.115742
O33   O     O_2   0.057734 0.614907 0.252638 -0.493242

loop_
_geom_bond_atom_site_label_1
_geom_bond_atom_site_label_2
_ccdc_geom_bond_type
C5    C42   S    
O29   H16   S    
C41   C42   A    
C14   C18   A    
S2    O30   D    
Cr5   O16   S    
Cr2   O20   S    
Cr4   O13   S    
C28   H8    S    
C27   H6    S    
C7    C8    T    
C32   O9    A    
C15   C19   S    
C26   C27   A    
C16   C21   A    
C12   O22   A    
Cr1   O25   S    
C28   C29   S    
C20   H3    S    
C6    C12   S    
C18   H15   S    
C4    C41   S    
C15   C16   A    
Cr6   O18   S    
C12   O21   A    
Cr5   O19   S    
Cr4   O6    S    
Cr4   O19   S    
C31   O7    A    
C38   O3    A    
Cr1   O5    S    
C23   O23   A    
Cr3   O4    S    
C39   O24   A    
C9    C10   T    
C33   O6    A    
C31   O8    A    
Cr1   O12   S    
C37   O18   A    
Cr2   O2    S    
C2    C6    A    
C29   S1    S    
C28   H7    S    
Cr1   O1    S    
C25   C29   S    
S2    O32   S    
C30   C34   S    
C1    O12   A    
Cr6   O11   S    
C1    C9    S    
C24   C25   A    
C13   C36   S    
C36   O17   A    
C32   O10   A    
C22   C37   S    
C35   O14   A    
C17   C21   A    
C11   C38   S    
Cr3   O22   S    
C2    H1    S    
C17   H14   S    
C4    S2    S    
S1    O28   D    
C21   C39   S    
C38   O2    A    
C16   C20   S    
Cr3   O5    S    
C43   O33   D    
C17   C18   A    
C5    H13   S    
C34   O25   A    
Cr5   O8    S    
C23   O1    A    
C37   O13   A    
C29   H9    S    
C3    C40   A    
C26   C30   A    
C22   C27   A    
C22   C24   A    
Cr2   O5    S    
C26   H5    S    
C14   C35   S    
S1    O29   S    
C25   C30   A    
C40   C41   A    
C5    H12   S    
C8    C31   S    
C39   O4    A    
Cr6   O10   S    
C24   C28   S    
C4    C5    S    
Cr2   O21   S    
C36   O16   A    
Cr4   O14   S    
C19   C43   S    
S2    O31   D    
C1    O20   A    
C35   O15   A    
Cr1   O24   S    
Cr6   O17   S    
C19   C20   S    
C2    C3    A    
C34   O26   A    
C20   H4    S    
C11   C13   T    
C19   H2    S    
S1    O27   D    
C7    C23   S    
C4    H11   S    
C43   H18   S    
Cr6   O19   S    
Cr3   O23   S    
C10   C33   S    
C32   C40   S    
Cr5   O9    S    
Cr4   O7    S    
C3    H10   S    
C33   O11   A    
O32   H17   S    
C6    C42   A    
Cr3   O3    S    
C14   C15   A    
Cr5   O15   S    
Cr2   O26   S    
