data_mof_unit_41765.cif
_audit_creation_date              2012-12-10T17:20:55-0500
_audit_creation_method            fapswitch 2.2
_symmetry_space_group_name_H-M    P1
_symmetry_Int_Tables_number       1
_space_group_crystal_system       triclinic
_cell_length_a                    14.327656
_cell_length_b                    10.765628
_cell_length_c                    9.658841
_cell_angle_alpha                 91.207737
_cell_angle_beta                  89.915133
_cell_angle_gamma                 92.798401
_cell_volume                      1487.7322972

loop_
_atom_site_label
_atom_site_type_symbol
_atom_type_description
_atom_site_fract_x
_atom_site_fract_y
_atom_site_fract_z
_atom_type_partial_charge
C1    C     C_R   0.496122 0.262707 0.498960 0.779542
C2    C     C_1   0.771057 0.500647 0.499808 -0.202830
C3    C     C_R   0.349537 0.123120 0.649879 -0.181720
C4    C     C_R   0.282694 0.055563 0.726205 -0.140016
C5    C     C_R   0.283925 0.926589 0.729212 -0.131930
C6    C     C_R   0.352011 0.864363 0.655939 -0.184053
C7    C     C_R   0.421806 0.931058 0.580062 0.094340
C8    C     C_R   0.420583 0.062278 0.577069 0.101822
C9    C     C_R   0.488728 0.128406 0.497345 -0.105021
C10   C     C_R   0.553329 0.065907 0.417369 -0.193484
C11   C     C_R   0.554447 0.937987 0.420092 -0.203867
C12   C     C_R   0.331327 0.499537 0.500105 0.786388
C13   C     C_R   0.490943 0.870576 0.502721 -0.096143
C14   C     C_R   0.644757 0.629149 0.147418 -0.119458
C15   C     C_R   0.730284 0.650015 0.082440 -0.250625
C16   C     C_R   0.735367 0.636649 0.939966 -0.192400
C17   C     C_R   0.651317 0.628630 0.865645 0.233367
C18   C     C_R   0.571904 0.564808 0.927916 0.157774
C19   C     C_R   0.570667 0.564609 0.076775 0.141670
C20   C     C_R   0.432352 0.436026 0.070038 0.253856
C21   C     C_R   0.433064 0.437459 0.922887 -0.057455
C22   C     C_R   0.496934 0.736974 0.501081 0.764761
C23   C     C_R   0.668661 0.500274 0.499904 0.794420
C24   C     C_1   0.228953 0.499833 0.500273 -0.211550
C25   C     C_1   0.143481 0.500153 0.500273 -0.012907
C26   C     C_1   0.042760 0.500517 0.500171 -0.001305
C27   C     C_1   0.957273 0.500734 0.500042 -0.002688
C28   C     C_1   0.856543 0.500804 0.499885 -0.013621
Cu1   Cu    Cu3+1 0.499990 0.499990 0.640660 0.926827
Cu2   Cu    Cu3+1 0.500010 0.500010 0.359340 0.928682
H1    H     H_    0.604891 0.116746 0.355501 0.154537
H2    H     H_    0.799414 0.669835 0.890070 0.153546
H3    H     H_    0.378604 0.386872 0.864363 0.139393
H4    H     H_    0.343434 0.222671 0.646475 0.135777
H5    H     H_    0.228877 0.103410 0.781601 0.132461
H6    H     H_    0.231054 0.874324 0.786963 0.136655
H7    H     H_    0.347872 0.763984 0.657725 0.154650
H8    H     H_    0.606471 0.891299 0.359327 0.138420
H9    H     H_    0.639324 0.664829 0.251066 0.183149
H10   H     H_    0.790298 0.687012 0.140638 0.158661
N1    N     N_R   0.500820 0.501210 0.147910 -0.184076
N2    N     N_R   0.500850 0.501290 0.852040 -0.203649
O1    O     O_R   0.499990 0.319640 0.618810 -0.567680
O2    O     O_R   0.500000 0.319660 0.381240 -0.575067
O3    O     O_R   0.376050 0.499990 0.618810 -0.573364
O4    O     O_R   0.376060 0.500010 0.381240 -0.552534
O5    O     O_R   0.500000 0.680340 0.618760 -0.582852
O6    O     O_R   0.500010 0.680360 0.381190 -0.581110
O7    O     O_R   0.623940 0.499990 0.618760 -0.545938
O8    O     O_R   0.623950 0.500010 0.381190 -0.569450
C29   C     C_3   0.640930 0.745475 0.784667 -0.760234
H11   H     H_    0.658004 0.729615 0.674058 0.225007
H12   H     H_    0.571394 0.783606 0.803708 0.240276
H13   H     H_    0.690395 0.822659 0.820055 0.193004
C30   C     C_3   0.352555 0.362372 0.135476 -0.782641
H14   H     H_    0.316993 0.297398 0.059294 0.177474
H15   H     H_    0.376624 0.303791 0.219206 0.259286
H16   H     H_    0.299030 0.425920 0.173158 0.233927

loop_
_geom_bond_atom_site_label_1
_geom_bond_atom_site_label_2
_ccdc_geom_bond_type
C11   H8    S    
C22   O6    A    
C30   H14   S    
Cu2   N1    S    
Cu1   Cu2   S    
Cu1   N2    S    
C16   H2    S    
C9    C10   A    
C12   C24   S    
C1    O2    A    
C24   C25   T    
C29   H13   S    
C17   C29   S    
C18   N2    A    
C22   O5    A    
Cu2   O8    S    
C6    H7    S    
C7    C8    A    
Cu1   O7    S    
Cu1   O1    S    
C11   C13   A    
Cu2   O2    S    
C26   C27   T    
C6    C7    A    
Cu1   O5    S    
C20   C30   S    
C4    C5    A    
C10   H1    S    
Cu2   O6    S    
C25   C26   S    
Cu2   O4    S    
C13   C22   S    
C20   N1    A    
C30   H15   S    
C5    C6    A    
C15   H10   S    
C23   O7    A    
C21   H3    S    
C10   C11   A    
C29   H11   S    
C5    H6    S    
C19   N1    A    
C7    C13   A    
C1    C9    S    
C20   C21   A    
C17   C18   A    
C3    C8    A    
C30   H16   S    
C2    C23   S    
C18   C19   A    
C4    H5    S    
C14   C15   A    
C8    C9    A    
C23   O8    A    
C2    C28   T    
C21   N2    A    
C3    H4    S    
C29   H12   S    
C14   H9    S    
C14   C19   A    
C1    O1    A    
C3    C4    A    
C15   C16   A    
C16   C17   A    
Cu1   O3    S    
C12   O3    A    
C27   C28   S    
C12   O4    A    
