data_mof_unit_43593.cif
_audit_creation_date              2012-12-11T14:21:11-0500
_audit_creation_method            fapswitch 2.2
_symmetry_space_group_name_H-M    P1
_symmetry_Int_Tables_number       1
_space_group_crystal_system       triclinic
_cell_length_a                    22.070578
_cell_length_b                    7.19981
_cell_length_c                    15.011368
_cell_angle_alpha                 90.000014
_cell_angle_beta                  108.254725
_cell_angle_gamma                 90.0
_cell_volume                      2265.31834064

loop_
_atom_site_label
_atom_site_type_symbol
_atom_type_description
_atom_site_fract_x
_atom_site_fract_y
_atom_site_fract_z
_atom_type_partial_charge
O1    O     O_R   0.584770 0.505770 0.002090 -0.539822
O2    O     O_R   0.415230 0.005770 0.997910 -0.539822
O3    O     O_R   0.467060 0.173340 0.861950 -0.537485
O4    O     O_R   0.532940 0.673340 0.138050 -0.537485
C1    C     C_R   0.453357 0.343942 0.825592 0.692638
C2    C     C_R   0.546643 0.843942 0.174408 0.692638
O5    O     O_R   0.587510 0.175890 0.993210 -0.524926
O6    O     O_R   0.412490 0.675890 0.006790 -0.524926
O7    O     O_R   0.536540 0.008150 0.130100 -0.546375
O8    O     O_R   0.463460 0.508150 0.869900 -0.546375
C3    C     C_R   0.613413 0.344728 0.000506 0.753058
C4    C     C_R   0.386587 0.844728 0.999494 0.753059
O9    O     O_3   0.483140 0.340040 0.044760 -0.372076
O10   O     O_3   0.516860 0.840040 0.955240 -0.372076
V1    V     V_3+5 0.503130 0.064190 0.991700 1.489436
V2    V     V_3+5 0.496870 0.564190 0.008300 1.489436
C5    C     C_2   0.212916 0.741124 0.993867 0.236270
C6    C     C_2   0.787084 0.241124 0.006133 0.236270
C7    C     C_2   0.184271 0.884462 0.023498 0.170903
C8    C     C_2   0.815729 0.384461 0.976502 0.170904
C9    C     C_2   0.284426 0.732816 0.018646 0.322261
C10   C     C_2   0.715574 0.232816 0.981353 0.322260
C11   C     C_2   0.316732 0.858611 0.983355 0.016130
C12   C     C_2   0.683268 0.358611 0.016645 0.016130
C13   C     C_R   0.929102 0.884008 0.722298 -0.119931
C14   C     C_R   0.070898 0.384008 0.277702 -0.119930
C15   C     C_R   0.574264 0.846848 0.277814 -0.162089
C16   C     C_R   0.425736 0.346848 0.722186 -0.162090
C17   C     C_R   0.941553 0.859322 0.566491 0.170104
C18   C     C_R   0.058447 0.359322 0.433509 0.170104
C19   C     C_R   0.969363 0.873398 0.665381 0.076473
C20   C     C_R   0.030637 0.373398 0.334619 0.076473
C21   C     C_R   0.862643 0.883911 0.681936 0.251251
C22   C     C_R   0.137357 0.383912 0.318064 0.251250
C23   C     C_R   0.834851 0.833768 0.586201 -0.042302
C24   C     C_R   0.165149 0.333768 0.413799 -0.042302
C25   C     C_R   0.874393 0.833656 0.527627 0.027262
C26   C     C_R   0.125607 0.333656 0.472373 0.027262
C27   C     C_R   0.768748 0.786036 0.546675 -0.176868
C28   C     C_R   0.231252 0.286036 0.453325 -0.176868
C29   C     C_R   0.740004 0.792434 0.448047 0.070457
C30   C     C_R   0.259996 0.292434 0.551953 0.070457
C31   C     C_R   0.780811 0.770011 0.392194 0.251684
C32   C     C_R   0.219189 0.270010 0.607806 0.251684
C33   C     C_R   0.846319 0.797718 0.431479 -0.193547
C34   C     C_R   0.153681 0.297717 0.568521 -0.193546
C35   C     C_R   0.731796 0.710615 0.600377 0.333486
C36   C     C_R   0.268204 0.210615 0.399622 0.333486
C37   C     C_R   0.665802 0.690656 0.560757 0.408579
C38   C     C_R   0.334198 0.190656 0.439243 0.408578
C39   C     C_R   0.634361 0.751425 0.467712 -0.189167
C40   C     C_R   0.365638 0.251426 0.532288 -0.189166
C41   C     C_R   0.671892 0.803087 0.410292 -0.061691
C42   C     C_R   0.328108 0.303087 0.589708 -0.061692
C43   C     C_R   0.566768 0.761671 0.431735 0.395356
C44   C     C_R   0.433232 0.261672 0.568264 0.395357
C45   C     C_R   0.536709 0.793429 0.334422 0.011895
C46   C     C_R   0.463291 0.293429 0.665578 0.011894
C47   C     C_R   0.640718 0.874307 0.319277 0.286712
C48   C     C_R   0.359282 0.374306 0.680723 0.286711
H1    H     H_    0.875202 0.781656 0.385578 0.136742
H2    H     H_    0.124798 0.281655 0.614421 0.136742
O11   O     O_R   0.036450 0.233070 0.130130 -0.544871
O12   O     O_R   0.963550 0.733070 0.869870 -0.544870
O13   O     O_R   0.912470 0.560570 0.006790 -0.555093
O14   O     O_R   0.087530 0.060570 0.993210 -0.555092
C49   C     C_R   0.886287 0.391999 0.997251 0.665902
C50   C     C_R   0.113713 0.891999 0.002749 0.665902
O15   O     O_R   0.032920 0.562940 0.138050 -0.538420
O16   O     O_R   0.967080 0.062940 0.861950 -0.538419
O17   O     O_R   0.084790 0.730500 0.002090 -0.509095
O18   O     O_R   0.915210 0.230500 0.997910 -0.509096
C51   C     C_R   0.044823 0.394354 0.174785 0.782822
C52   C     C_R   0.955177 0.894354 0.825214 0.782822
O19   O     O_3   0.016820 0.396170 0.955260 -0.374983
O20   O     O_3   0.983180 0.896170 0.044740 -0.374983
V3    V     V_3+5 0.996880 0.672090 0.008300 1.518454
V4    V     V_3+5 0.003120 0.172090 0.991700 1.518454
O21   O     O_3   0.176254 0.600923 0.940334 -0.650445
H3    H     H_    0.205321 0.511418 0.924123 0.288498
O22   O     O_3   0.823746 0.100924 0.059666 -0.650445
H4    H     H_    0.794679 0.011418 0.075877 0.288498
C53   C     C_3   0.041361 0.879330 0.709287 -0.746650
H5    H     H_    0.057443 0.877625 0.786952 0.189495
H6    H     H_    0.063050 0.756049 0.686721 0.217484
H7    H     H_    0.060530 0.008267 0.687622 0.199818
C54   C     C_3   0.958639 0.379330 0.290713 -0.746649
H8    H     H_    0.942557 0.377625 0.213048 0.189495
H9    H     H_    0.936950 0.256048 0.313279 0.217484
H10   H     H_    0.939470 0.508266 0.312378 0.199818
O23   O     O_3   0.826548 0.939983 0.737556 -0.628475
H11   H     H_    0.786806 0.997820 0.696690 0.317242
O24   O     O_3   0.173452 0.439984 0.262444 -0.628474
H12   H     H_    0.213194 0.497821 0.303310 0.317242
C55   C     C_3   0.759815 0.676648 0.297676 -0.734432
H13   H     H_    0.711148 0.617566 0.280501 0.210869
H14   H     H_    0.762898 0.775731 0.242581 0.235349
H15   H     H_    0.791875 0.557371 0.298155 0.186975
C56   C     C_3   0.240185 0.176647 0.702324 -0.734432
H16   H     H_    0.288852 0.117566 0.719499 0.210869
H17   H     H_    0.237102 0.275730 0.757419 0.235349
H18   H     H_    0.208125 0.057370 0.701844 0.186975
O25   O     O_3   0.759091 0.631175 0.687553 -0.587157
H19   H     H_    0.801640 0.582121 0.690597 0.301086
O26   O     O_3   0.240909 0.131176 0.312447 -0.587157
H20   H     H_    0.198360 0.082122 0.309403 0.301085
O27   O     O_3   0.531829 0.738940 0.493253 -0.628569
H21   H     H_    0.487445 0.781327 0.464604 0.306149
O28   O     O_3   0.468170 0.238941 0.506747 -0.628569
H22   H     H_    0.512555 0.281328 0.535396 0.306149
O29   O     O_3   0.222349 0.017957 0.080905 -0.636532
H23   H     H_    0.194956 0.104619 0.102447 0.326858
O30   O     O_3   0.777651 0.517956 0.919095 -0.636532
H24   H     H_    0.805044 0.604619 0.897553 0.326858
O31   O     O_3   0.317400 0.589542 0.074315 -0.637509
H25   H     H_    0.286334 0.512895 0.093664 0.315932
O32   O     O_3   0.682600 0.089542 0.925685 -0.637509
H26   H     H_    0.713666 0.012895 0.906336 0.315933
C57   C     C_3   0.281777 0.013613 0.919450 -0.825332
H27   H     H_    0.312766 0.080934 0.883417 0.216788
H28   H     H_    0.239450 0.957891 0.864500 0.207019
H29   H     H_    0.266906 0.123456 0.959839 0.264991
C58   C     C_3   0.718223 0.513613 0.080550 -0.825332
H30   H     H_    0.687234 0.580934 0.116583 0.216788
H31   H     H_    0.760550 0.457892 0.135500 0.207018
H32   H     H_    0.733094 0.623457 0.040161 0.264991
O33   O     O_3   0.676230 0.973073 0.274017 -0.648694
H33   H     H_    0.647807 0.040451 0.219601 0.290906
O34   O     O_3   0.323770 0.473072 0.725984 -0.648694
H34   H     H_    0.352193 0.540450 0.780399 0.290906
C59   C     C_3   0.465002 0.769956 0.292319 -0.670722
H35   H     H_    0.447386 0.776419 0.214784 0.210775
H36   H     H_    0.450348 0.633095 0.312910 0.228197
H37   H     H_    0.440343 0.882693 0.317381 0.227835
C60   C     C_3   0.534998 0.269957 0.707681 -0.670724
H38   H     H_    0.552613 0.276419 0.785215 0.210775
H39   H     H_    0.549652 0.133096 0.687089 0.228197
H40   H     H_    0.559656 0.382694 0.682619 0.227835
O35   O     O_3   0.634143 0.599765 0.613691 -0.584201
H41   H     H_    0.605727 0.507326 0.571962 0.304712
O36   O     O_3   0.365857 0.099766 0.386308 -0.584201
H42   H     H_    0.394273 0.007327 0.428038 0.304712
C61   C     C_3   0.982519 0.868563 0.501721 -0.796986
H43   H     H_    0.033619 0.896879 0.537411 0.221862
H44   H     H_    0.979830 0.735906 0.463560 0.213862
H45   H     H_    0.964619 0.980760 0.449354 0.213868
C62   C     C_3   0.017481 0.368563 0.498278 -0.796986
H46   H     H_    0.966381 0.396879 0.462589 0.221862
H47   H     H_    0.020170 0.235906 0.536440 0.213862
H48   H     H_    0.035381 0.480760 0.550646 0.213868

loop_
_geom_bond_atom_site_label_1
_geom_bond_atom_site_label_2
_ccdc_geom_bond_type
C13   C19   A    
C10   O32   S    
O14   C50   A    
C54   H8    S    
C14   C20   A    
O24   H12   S    
C60   H40   S    
O12   V3    S    
C8    C49   S    
O15   V3    S    
C55   H13   S    
O1    C3    A    
C22   O24   S    
C9    O31   S    
C59   H37   S    
O2    C4    A    
C6    O22   S    
C2    O7    A    
O22   H4    S    
C41   C47   A    
C55   H15   S    
C60   H38   S    
C27   C29   A    
C42   C48   A    
O5    C3    A    
C4    C11   S    
C34   H2    S    
C23   C25   A    
C13   C52   S    
C21   O23   S    
C11   C57   S    
C8    O30   S    
C32   C56   S    
C58   H31   S    
O16   V4    S    
C47   O33   S    
O31   H25   S    
C17   C61   S    
C61   H44   S    
C3    C12   S    
C5    O21   S    
C14   C51   S    
C19   C53   S    
C18   C26   A    
C60   H39   S    
C49   O18   A    
O18   V4    S    
C62   H46   S    
C5    C7    D    
C14   C22   A    
C53   H5    S    
C40   C42   A    
C37   C39   A    
O16   C52   A    
C38   C40   A    
O27   H21   S    
O15   C51   A    
C6    C8    D    
C38   O36   S    
C36   C38   A    
O6    V2    S    
C36   O26   S    
C29   C31   A    
C30   C32   A    
C32   C34   A    
C16   C48   A    
C9    C11   D    
O14   V4    S    
O13   V3    S    
C58   H30   S    
C62   H48   S    
C35   O25   S    
O20   V3    S    
C35   C37   A    
C15   C45   A    
C61   H45   S    
O23   H11   S    
C58   H32   S    
O5    V1    S    
O11   C51   A    
O13   C49   A    
C20   C54   S    
C12   C58   S    
C5    C9    S    
C43   O27   S    
C39   C41   A    
O4    V2    S    
C23   C27   A    
C1    C16   S    
C18   C62   S    
C31   C55   S    
C2    C15   S    
C24   C28   A    
O6    C4    A    
C56   H18   S    
C7    C50   S    
O1    V2    S    
C57   H27   S    
O2    V1    S    
C31   C33   A    
C29   C41   A    
C57   H28   S    
O4    C2    A    
C53   H6    S    
C16   C46   A    
C37   O35   S    
C10   C12   D    
C54   H10   S    
C25   C33   A    
C59   H35   S    
O3    C1    A    
C44   O28   S    
O17   V3    S    
O3    V1    S    
C27   C35   A    
O30   H24   S    
C57   H29   S    
C28   C36   A    
O29   H23   S    
C62   H47   S    
C6    C10   S    
C45   C59   S    
C28   C30   A    
C59   H36   S    
C48   O34   S    
O35   H41   S    
C55   H14   S    
O33   H33   S    
C7    O29   S    
C46   C60   S    
O26   H20   S    
O32   H26   S    
C56   H16   S    
C43   C45   A    
O34   H34   S    
C1    O8    A    
C17   C19   A    
O8    V2    S    
O36   H42   S    
C30   C42   A    
C24   C26   A    
C18   C20   A    
C50   O17   A    
C33   H1    S    
C21   C23   A    
C22   C24   A    
C44   C46   A    
C39   C43   A    
O7    V1    S    
O19   V4    S    
C26   C34   A    
O21   H3    S    
C40   C44   A    
C53   H7    S    
O9    V2    S    
C17   C25   A    
O25   H19   S    
C54   H9    S    
O12   C52   A    
O10   V1    S    
C15   C47   A    
O28   H22   S    
C56   H17   S    
C61   H43   S    
C13   C21   A    
O11   V4    S    
