data_mof_unit_63243.cif
_audit_creation_date              2012-12-10T18:05:25-0500
_audit_creation_method            fapswitch 2.2
_symmetry_space_group_name_H-M    P1
_symmetry_Int_Tables_number       1
_space_group_crystal_system       triclinic
_cell_length_a                    30.772036
_cell_length_b                    30.687805
_cell_length_c                    23.619272
_cell_angle_alpha                 89.938237
_cell_angle_beta                  130.941459
_cell_angle_gamma                 89.998715
_cell_volume                      16848.1921626

loop_
_atom_site_label
_atom_site_type_symbol
_atom_type_description
_atom_site_fract_x
_atom_site_fract_y
_atom_site_fract_z
_atom_type_partial_charge
C1    C     C_R   0.810050 0.809398 0.501688 0.771137
C2    C     C_R   0.189964 0.809402 0.498342 0.770997
C3    C     C_R   0.310460 0.309422 0.502414 0.774451
C4    C     C_R   0.691802 0.309373 0.502288 0.775968
C5    C     C_R   0.442812 0.752160 0.885597 -0.111608
C6    C     C_R   0.556966 0.752226 0.114375 -0.112300
C7    C     C_R   0.942734 0.252074 0.885548 -0.114098
C8    C     C_R   0.056783 0.252063 0.114355 -0.112692
C9    C     C_1   0.483034 0.752703 0.966220 0.127835
C10   C     C_1   0.516673 0.752728 0.033747 0.128070
C11   C     C_1   0.982909 0.252600 0.966183 0.131213
C12   C     C_1   0.016517 0.252597 0.033717 0.129729
C13   C     C_R   0.839704 0.848944 0.442548 -0.066245
C14   C     C_R   0.160342 0.848848 0.557540 -0.066319
C15   C     C_R   0.348217 0.344253 0.449467 -0.050838
C16   C     C_R   0.603181 0.336971 0.469762 -0.013972
C17   C     C_R   0.843739 0.843499 0.504290 -0.198297
C18   C     C_R   0.156299 0.843515 0.495786 -0.198044
C19   C     C_R   0.344317 0.343496 0.504935 -0.218220
C20   C     C_R   0.661702 0.342372 0.509234 -0.237473
C21   C     C_R   0.871227 0.876369 0.560409 0.417185
C22   C     C_R   0.128853 0.876504 0.439713 0.417292
C23   C     C_R   0.364959 0.379870 0.553870 0.415210
C24   C     C_R   0.689757 0.379888 0.554996 0.408900
C25   C     C_R   0.898971 0.911146 0.556457 0.398836
C26   C     C_R   0.101145 0.911284 0.443704 0.398939
C27   C     C_R   0.392726 0.414215 0.549138 0.397872
C28   C     C_R   0.656697 0.414003 0.549731 0.395003
C29   C     C_R   0.902218 0.911603 0.499088 -0.241656
C30   C     C_R   0.097885 0.911634 0.501062 -0.241794
C31   C     C_R   0.403030 0.410900 0.498819 -0.234816
C32   C     C_R   0.595924 0.409402 0.502050 -0.234703
C33   C     C_R   0.868508 0.882092 0.440154 -0.036804
C34   C     C_R   0.131567 0.882007 0.559971 -0.036851
C35   C     C_R   0.377134 0.377172 0.446681 -0.008148
C36   C     C_R   0.570968 0.369762 0.466169 0.020966
C37   C     C_3   0.881850 0.854248 0.401388 0.540871
C38   C     C_3   0.118194 0.854096 0.598699 0.540747
C39   C     C_3   0.401570 0.346757 0.424459 0.460182
C40   C     C_3   0.520296 0.359845 0.386122 0.505741
C41   C     C_3   0.850200 0.817535 0.404393 -0.418979
C42   C     C_3   0.149810 0.817374 0.595653 -0.419133
C43   C     C_3   0.369770 0.310358 0.427715 -0.397700
C44   C     C_3   0.555872 0.323446 0.390461 -0.425298
C45   C     C_R   0.677675 0.750039 0.355434 0.856125
C46   C     C_R   0.322318 0.749993 0.644563 0.860405
C47   C     C_R   0.177627 0.249994 0.355432 0.861553
C48   C     C_R   0.822352 0.249957 0.644550 0.845527
C49   C     C_R   0.041977 0.730882 0.153373 0.604731
C50   C     C_R   0.958213 0.730702 0.846623 0.604783
C51   C     C_R   0.540912 0.232878 0.153559 0.602801
C52   C     C_R   0.458019 0.230423 0.846726 0.602527
C53   C     C_R   0.081077 0.730904 0.231761 0.488940
C54   C     C_R   0.919014 0.730709 0.768230 0.491128
C55   C     C_R   0.580066 0.232924 0.231957 0.476911
C56   C     C_R   0.418860 0.230449 0.768324 0.487051
C57   C     C_R   0.136029 0.749881 0.272244 -0.396053
C58   C     C_R   0.864112 0.749846 0.727768 -0.398786
C59   C     C_R   0.635994 0.249921 0.272337 -0.397062
C60   C     C_R   0.364060 0.249788 0.727805 -0.397383
C61   C     C_R   0.150601 0.768769 0.232068 0.618902
C62   C     C_R   0.849697 0.768908 0.767976 0.615171
C63   C     C_R   0.651536 0.266844 0.232166 0.613305
C64   C     C_R   0.349704 0.269009 0.767987 0.616255
C65   C     C_R   0.111272 0.768567 0.153769 -0.284167
C66   C     C_R   0.889123 0.768720 0.846272 -0.283661
C67   C     C_R   0.612167 0.266630 0.153859 -0.285990
C68   C     C_R   0.389089 0.268800 0.846290 -0.284999
C69   C     C_R   0.057046 0.749692 0.114333 -0.216782
C70   C     C_R   0.943295 0.749687 0.885686 -0.216778
C71   C     C_R   0.556938 0.249699 0.114456 -0.215224
C72   C     C_R   0.443168 0.249585 0.885757 -0.216535
C73   C     C_1   0.016990 0.749696 0.033756 0.170784
C74   C     C_1   0.983421 0.749693 0.966264 0.170960
C75   C     C_1   0.516851 0.249651 0.033860 0.167773
C76   C     C_1   0.483281 0.249614 0.966355 0.168921
C77   C     C_R   0.633764 0.623439 0.452017 0.018702
C78   C     C_R   0.374133 0.627906 0.555457 0.014614
C79   C     C_R   0.127730 0.126859 0.446111 0.014588
C80   C     C_R   0.872272 0.126793 0.553843 0.014362
C81   C     C_R   0.658790 0.657710 0.502407 -0.226183
C82   C     C_R   0.341095 0.657781 0.497785 -0.217960
C83   C     C_R   0.158834 0.157786 0.502200 -0.220425
C84   C     C_R   0.841108 0.157779 0.497710 -0.221349
C85   C     C_R   0.650736 0.659439 0.554762 0.627429
C86   C     C_R   0.340677 0.655092 0.437827 0.619834
C87   C     C_R   0.157119 0.156205 0.560407 0.620412
C88   C     C_R   0.842681 0.156223 0.439380 0.620661
C89   C     C_R   0.690934 0.690693 0.500396 0.871197
C90   C     C_R   0.309113 0.690737 0.499800 0.881355
C91   C     C_R   0.190893 0.190731 0.500239 0.879161
C92   C     C_R   0.809088 0.190731 0.499727 0.880085
C93   C     C_R   0.618561 0.626766 0.554832 -0.243911
C94   C     C_R   0.372876 0.622421 0.437807 -0.244458
C95   C     C_R   0.124909 0.123538 0.560406 -0.246058
C96   C     C_R   0.874861 0.123536 0.439346 -0.246220
C97   C     C_R   0.592725 0.593025 0.501159 -0.124308
C98   C     C_R   0.406892 0.593031 0.498623 -0.131035
C99   C     C_R   0.092922 0.093068 0.501193 -0.129131
C100  C     C_R   0.906948 0.093025 0.498641 -0.129272
C101  C     C_R   0.601173 0.593071 0.450309 -0.045014
C102  C     C_R   0.406390 0.597455 0.556647 -0.044771
C103  C     C_R   0.095372 0.096432 0.444764 -0.046757
C104  C     C_R   0.904591 0.096347 0.555149 -0.046713
C105  C     C_3   0.587883 0.569050 0.385727 -0.482519
C106  C     C_3   0.430351 0.579577 0.630961 -0.473581
C107  C     C_3   0.074135 0.077022 0.372650 -0.479425
C108  C     C_3   0.926009 0.076916 0.627410 -0.480893
C109  C     C_3   0.624540 0.604101 0.387140 0.931119
C110  C     C_3   0.393892 0.614738 0.629696 0.918913
C111  C     C_3   0.110616 0.112185 0.373969 0.925235
C112  C     C_3   0.889563 0.112099 0.626129 0.926656
C113  C     C_R   0.440378 0.559516 0.499726 0.817764
C114  C     C_R   0.559567 0.559448 0.500217 0.819604
C115  C     C_R   0.940373 0.059492 0.499728 0.820916
C116  C     C_R   0.059586 0.059501 0.500210 0.820808
C117  C     C_R   0.939239 0.941671 0.499874 0.885621
C118  C     C_R   0.060793 0.941675 0.500183 0.885751
C119  C     C_R   0.439574 0.441409 0.499836 0.854233
C120  C     C_R   0.560596 0.441594 0.500244 0.833352
C121  C     C_R   0.822354 0.749942 0.644580 0.887594
C122  C     C_R   0.177685 0.749960 0.355424 0.894039
C123  C     C_R   0.322343 0.249927 0.644593 0.892769
C124  C     C_R   0.677673 0.249983 0.355457 0.908077
C125  C     C_R   0.448719 0.781324 0.845396 0.685576
C126  C     C_R   0.550678 0.781066 0.154483 0.684730
C127  C     C_R   0.946352 0.283135 0.845320 0.694037
C128  C     C_R   0.051177 0.281499 0.154486 0.690407
C129  C     C_R   0.409506 0.780372 0.767052 -0.314315
C130  C     C_R   0.589981 0.780131 0.232840 -0.321977
C131  C     C_R   0.907209 0.282185 0.766969 -0.315285
C132  C     C_R   0.090495 0.280580 0.232847 -0.316392
C133  C     C_R   0.363791 0.750294 0.727716 -0.240438
C134  C     C_R   0.636156 0.750389 0.272272 -0.245287
C135  C     C_R   0.863836 0.250235 0.727677 -0.240544
C136  C     C_R   0.136022 0.250273 0.272265 -0.240527
C137  C     C_R   0.358380 0.720967 0.768900 0.662472
C138  C     C_R   0.641970 0.721413 0.231172 0.668220
C139  C     C_R   0.860734 0.219004 0.768858 0.676652
C140  C     C_R   0.141112 0.220665 0.231151 0.665492
C141  C     C_R   0.397712 0.722057 0.847207 -0.292680
C142  C     C_R   0.602553 0.722487 0.152864 -0.291564
C143  C     C_R   0.899994 0.220086 0.847169 -0.291422
C144  C     C_R   0.101678 0.221720 0.152837 -0.294632
Cu1   Cu    Cu3+1 0.780910 0.719080 0.500000 1.154328
Cu2   Cu    Cu3+1 0.219090 0.719080 0.500000 1.149330
Cu3   Cu    Cu3+1 0.280910 0.219080 0.500000 1.140742
Cu4   Cu    Cu3+1 0.719090 0.219080 0.500000 1.143427
Cu5   Cu    Cu3+1 0.719070 0.780890 0.500010 1.111441
Cu6   Cu    Cu3+1 0.280930 0.780890 0.499990 1.109675
Cu7   Cu    Cu3+1 0.219070 0.280890 0.500010 1.114541
Cu8   Cu    Cu3+1 0.780930 0.280890 0.499990 1.115897
Cu9   Cu    Cu3+1 0.462710 0.500000 0.425470 1.048988
Cu10  Cu    Cu3+1 0.537290 0.500000 0.574530 1.055609
Cu11  Cu    Cu3+1 0.962710 0.000000 0.425470 1.036543
Cu12  Cu    Cu3+1 0.037290 0.000000 0.574530 1.035677
H1    H     H_    0.878451 0.789946 0.441272 0.253185
H2    H     H_    0.121532 0.789867 0.558740 0.253176
H3    H     H_    0.398654 0.286211 0.473079 0.247279
H4    H     H_    0.566673 0.328755 0.354311 0.224619
H5    H     H_    0.123250 0.783089 0.123851 0.223671
H6    H     H_    0.877259 0.783376 0.876209 0.224109
H7    H     H_    0.624893 0.279599 0.123913 0.224434
H8    H     H_    0.377269 0.283594 0.876190 0.224124
H9    H     H_    0.613180 0.628214 0.595756 0.194286
H10   H     H_    0.371828 0.620578 0.391132 0.198418
H11   H     H_    0.124359 0.122508 0.605775 0.197202
H12   H     H_    0.875332 0.122535 0.393911 0.197516
H13   H     H_    0.607271 0.535911 0.401927 0.194346
H14   H     H_    0.415748 0.545700 0.626754 0.202900
H15   H     H_    0.090185 0.043266 0.380001 0.193120
H16   H     H_    0.910030 0.043168 0.620247 0.193255
H17   H     H_    0.541410 0.570553 0.335156 0.225159
H18   H     H_    0.477484 0.584984 0.674751 0.223814
H19   H     H_    0.027016 0.081495 0.326893 0.224850
H20   H     H_    0.973137 0.081361 0.673035 0.224633
H21   H     H_    0.414936 0.803338 0.737266 0.219532
H22   H     H_    0.584237 0.802825 0.262557 0.219943
H23   H     H_    0.910753 0.306665 0.737127 0.222509
H24   H     H_    0.085312 0.303760 0.262582 0.220280
H25   H     H_    0.392970 0.699301 0.877964 0.205128
H26   H     H_    0.607612 0.699999 0.122184 0.205429
H27   H     H_    0.897069 0.195836 0.877935 0.204761
H28   H     H_    0.106189 0.198753 0.122146 0.203931
H29   H     H_    0.860807 0.865651 0.343833 0.086742
H30   H     H_    0.139246 0.865382 0.656266 0.086487
H31   H     H_    0.386017 0.353307 0.367497 0.086846
H32   H     H_    0.482061 0.348471 0.377538 0.113607
H33   H     H_    0.809641 0.808003 0.348169 0.165902
H34   H     H_    0.190358 0.807720 0.651867 0.165549
H35   H     H_    0.334453 0.296087 0.371865 0.167692
H36   H     H_    0.539292 0.290431 0.386685 0.198265
O1    O     O_R   0.821190 0.768980 0.500000 -0.568677
O2    O     O_R   0.178810 0.768980 0.500000 -0.568823
O3    O     O_R   0.321190 0.268980 0.500000 -0.573315
O4    O     O_R   0.678810 0.268980 0.500000 -0.565666
O5    O     O_R   0.486270 0.545120 0.562900 -0.584800
O6    O     O_R   0.513730 0.545120 0.437100 -0.576384
O7    O     O_R   0.986270 0.045120 0.562900 -0.585416
O8    O     O_R   0.013730 0.045120 0.437100 -0.585322
O9    O     O_R   0.923420 0.954920 0.437060 -0.580469
O10   O     O_R   0.076580 0.954920 0.562940 -0.580636
O11   O     O_R   0.423420 0.454920 0.437060 -0.586604
O12   O     O_R   0.576580 0.454920 0.562940 -0.567984
O13   O     O_R   0.986330 0.954940 0.562940 -0.559516
O14   O     O_R   0.013670 0.954940 0.437060 -0.559164
O15   O     O_R   0.486330 0.454940 0.562940 -0.558112
O16   O     O_R   0.513670 0.454940 0.437060 -0.533445
O17   O     O_R   0.768960 0.821170 0.500020 -0.584639
O18   O     O_R   0.231040 0.821170 0.499980 -0.584997
O19   O     O_R   0.268960 0.321170 0.500020 -0.581536
O20   O     O_R   0.731040 0.321170 0.499980 -0.579132
O21   O     O_R   0.721730 0.723890 0.391250 -0.509285
O22   O     O_R   0.278270 0.723890 0.608750 -0.511434
O23   O     O_R   0.221730 0.223890 0.391250 -0.511925
O24   O     O_R   0.778270 0.223890 0.608750 -0.510522
O25   O     O_R   0.669500 0.776090 0.391270 -0.600711
O26   O     O_R   0.330500 0.776090 0.608730 -0.598457
O27   O     O_R   0.169500 0.276090 0.391270 -0.597786
O28   O     O_R   0.830500 0.276090 0.608730 -0.602565
O29   O     O_R   0.731010 0.678810 0.499990 -0.555255
O30   O     O_R   0.268990 0.678810 0.500010 -0.561087
O31   O     O_R   0.231010 0.178810 0.499990 -0.560877
O32   O     O_R   0.768990 0.178810 0.500010 -0.561344
O33   O     O_R   0.678790 0.731000 0.500010 -0.540752
O34   O     O_R   0.321210 0.731000 0.499990 -0.546033
O35   O     O_R   0.178790 0.231000 0.500010 -0.544044
O36   O     O_R   0.821210 0.231000 0.499990 -0.543239
O37   O     O_R   0.830470 0.723890 0.608750 -0.527071
O38   O     O_R   0.169530 0.723890 0.391250 -0.527775
O39   O     O_R   0.330470 0.223890 0.608750 -0.529092
O40   O     O_R   0.669530 0.223890 0.391250 -0.533088
O41   O     O_R   0.778250 0.776080 0.608760 -0.518637
O42   O     O_R   0.221750 0.776080 0.391240 -0.520637
O43   O     O_R   0.278250 0.276080 0.608760 -0.519915
O44   O     O_R   0.721750 0.276080 0.391240 -0.517281
O45   O     O_R   0.423360 0.545090 0.437020 -0.590004
O46   O     O_R   0.576640 0.545090 0.562980 -0.587874
O47   O     O_R   0.923360 0.045090 0.437020 -0.590939
O48   O     O_R   0.076640 0.045090 0.562980 -0.591050
F1    F     F_    0.492364 0.810686 0.881901 -0.615186
F2    F     F_    0.506569 0.810085 0.117876 -0.616110
F3    F     F_    0.987679 0.314351 0.881804 -0.608584
F4    F     F_    0.007739 0.311102 0.117898 -0.609133
F5    F     F_    0.989293 0.712588 0.115522 -0.575023
F6    F     F_    0.010843 0.712247 0.884453 -0.574944
F7    F     F_    0.487255 0.216525 0.115768 -0.580617
F8    F     F_    0.510552 0.211784 0.884595 -0.577123
F9    F     F_    0.064605 0.712912 0.267666 -0.565368
F10   F     F_    0.935340 0.712539 0.732300 -0.564228
F11   F     F_    0.562727 0.217023 0.268029 -0.579654
F12   F     F_    0.435132 0.212095 0.732445 -0.567899
F13   F     F_    0.203111 0.786871 0.268101 -0.575605
F14   F     F_    0.797250 0.787181 0.731986 -0.574344
F15   F     F_    0.705050 0.282917 0.268270 -0.575054
F16   F     F_    0.297358 0.287478 0.731965 -0.574980
F17   F     F_    0.674642 0.691906 0.606246 -0.607353
F18   F     F_    0.308843 0.683376 0.379405 -0.615682
F19   F     F_    0.186997 0.185517 0.617278 -0.614406
F20   F     F_    0.812715 0.185586 0.382445 -0.611785
O49   O     O_3   0.675556 0.587995 0.407117 -0.688196
H37   H     H_    0.664024 0.572788 0.362026 0.352454
O50   O     O_3   0.349128 0.597884 0.624539 -0.688866
H38   H     H_    0.367509 0.586969 0.675397 0.356329
O51   O     O_3   0.157136 0.095436 0.382952 -0.692286
H39   H     H_    0.140465 0.083471 0.333352 0.355525
O52   O     O_3   0.843149 0.095379 0.617403 -0.690569
H40   H     H_    0.859929 0.083417 0.667095 0.356677
F21   F     F_    0.593918 0.631193 0.324941 -0.647286
F22   F     F_    0.425619 0.646807 0.683739 -0.651595
F23   F     F_    0.078964 0.143136 0.317620 -0.650610
F24   F     F_    0.921254 0.143023 0.682348 -0.649850
F25   F     F_    0.315403 0.691088 0.734005 -0.607060
F26   F     F_    0.685445 0.691904 0.266145 -0.604773
F27   F     F_    0.820247 0.187163 0.733931 -0.602603
F28   F     F_    0.183859 0.190528 0.266123 -0.608915
O53   O     O_3   0.873435 0.875415 0.620803 -0.640440
H41   H     H_    0.862537 0.846148 0.625389 0.316479
O54   O     O_3   0.126644 0.875663 0.379317 -0.640667
H42   H     H_    0.137477 0.846391 0.374667 0.316326
O55   O     O_3   0.360709 0.382673 0.608506 -0.635874
H43   H     H_    0.354740 0.353234 0.619475 0.320362
O56   O     O_3   0.748733 0.385213 0.603522 -0.630412
H44   H     H_    0.767259 0.356204 0.617220 0.319381
O57   O     O_3   0.923496 0.943076 0.610665 -0.645283
H45   H     H_    0.924616 0.970563 0.589701 0.308421
O58   O     O_3   0.076643 0.943320 0.389524 -0.645282
H46   H     H_    0.075487 0.970760 0.410485 0.308317
O59   O     O_3   0.410607 0.449429 0.596221 -0.649859
H47   H     H_    0.415345 0.474951 0.575063 0.307258
O60   O     O_3   0.685369 0.451477 0.590194 -0.633424
H48   H     H_    0.657827 0.476018 0.568864 0.316415
F29   F     F_    0.940137 0.846009 0.445823 -0.564390
F30   F     F_    0.059898 0.845966 0.554249 -0.564476
F31   F     F_    0.460759 0.342771 0.479594 -0.651941
F32   F     F_    0.508889 0.392973 0.338107 -0.615467

loop_
_geom_bond_atom_site_label_1
_geom_bond_atom_site_label_2
_ccdc_geom_bond_type
Cu7   O35   S    
C144  H28   S    
C133  C137  A    
C55   C59   A    
C47   C136  S    
C106  H18   S    
C48   C135  S    
C77   C101  A    
O60   H48   S    
C136  C140  A    
C139  F27   S    
C107  H15   S    
C135  C139  A    
C105  H13   S    
C138  F26   S    
C46   O26   A    
C118  O14   A    
C95   C99   A    
Cu1   O29   S    
C29   C33   A    
C100  C104  A    
C109  F21   S    
Cu2   Cu6   S    
Cu3   O39   S    
C37   H29   S    
C70   C74   S    
C45   O21   A    
C96   H12   S    
C3    C19   S    
Cu2   O2    S    
C16   C44   S    
Cu1   O21   S    
C49   C69   A    
C130  C134  A    
C100  C115  S    
C51   C71   A    
C52   F8    S    
C68   H8    S    
C25   C29   A    
C27   C31   A    
C120  O16   A    
C92   O32   A    
C41   H1    S    
C87   F19   S    
C99   C116  S    
C30   C34   A    
Cu6   O42   S    
C3    O3    A    
C19   C23   A    
C75   C76   T    
C13   C33   A    
C52   C72   A    
C21   O53   S    
Cu9   O16   S    
C42   H34   S    
C68   C72   A    
C80   C112  S    
Cu5   O25   S    
Cu2   O22   S    
C129  C133  A    
C142  H26   S    
C128  F4    S    
Cu7   O27   S    
C59   C124  S    
C4    O4    A    
C37   F29   S    
C90   O34   A    
C84   C88   A    
C57   C61   A    
Cu8   O44   S    
C83   C91   S    
C59   C63   A    
C41   H33   S    
C60   C64   A    
C50   C70   A    
C26   O58   S    
C44   H36   S    
C115  O47   A    
C66   C70   A    
C47   O27   A    
C49   C53   A    
C51   C55   A    
C127  C131  A    
C4    C20   S    
C61   C65   A    
C61   F13   S    
C65   H5    S    
Cu11  Cu12  S    
C126  C130  A    
C1    O1    A    
C103  C107  S    
C85   F17   S    
C50   F6    S    
Cu9   O11   S    
C7    C143  A    
C64   C68   A    
Cu3   O23   S    
C89   O29   A    
O49   H37   S    
Cu1   O37   S    
C56   F12   S    
C139  C143  A    
C8    C128  A    
C87   C95   A    
C126  F2    S    
C9    C10   T    
C141  H25   S    
Cu10  O15   S    
C8    C12   S    
C114  O46   A    
C105  H17   S    
O53   H41   S    
C106  H14   S    
C79   C103  A    
C118  O10   A    
Cu4   O24   S    
C28   C32   A    
C3    O19   A    
C121  O37   A    
C62   C66   A    
C1    O17   A    
C127  F3    S    
C111  O51   S    
C8    C144  A    
C99   C103  A    
C110  F22   S    
Cu9   O6    S    
C30   C118  S    
C38   H30   S    
C115  O7    A    
Cu5   O41   S    
C124  O44   A    
C60   C123  S    
Cu3   Cu7   S    
C5    C9    S    
C125  C129  A    
C24   O56   S    
C132  C136  A    
Cu7   O43   S    
O59   H47   S    
C77   C109  S    
C110  O50   S    
C132  H24   S    
C26   C30   A    
C108  H16   S    
C39   F31   S    
C120  O12   A    
C40   F32   S    
Cu12  O7    S    
C93   C97   A    
C21   C25   A    
C18   C22   A    
C107  C111  S    
Cu4   Cu8   S    
C95   H11   S    
C14   C34   A    
Cu10  O12   S    
O52   H40   S    
C32   C36   A    
C40   H32   S    
Cu10  O46   S    
C1    C17   S    
C13   C17   A    
C15   C43   S    
C16   C36   A    
C96   C100  A    
C37   C41   S    
C67   H7    S    
C40   C44   S    
C114  O6    A    
C5    C125  A    
O56   H44   S    
C38   F30   S    
C84   C92   S    
C7    C127  A    
C97   C114  S    
Cu11  O9    S    
C49   F5    S    
C58   C62   A    
C83   C87   A    
C88   C96   A    
Cu6   O34   S    
C78   C102  A    
C73   C74   T    
C111  F23   S    
C80   C84   A    
C94   H10   S    
C13   C41   S    
O50   H38   S    
C15   C19   A    
C50   C54   A    
C80   C104  A    
Cu5   O17   S    
C117  O13   A    
Cu2   O38   S    
Cu2   O30   S    
C94   C98   A    
C45   O25   A    
C66   H6    S    
C86   F18   S    
C105  C109  S    
C130  H22   S    
C57   C122  S    
C47   O23   A    
O54   H42   S    
C69   C73   S    
Cu4   O40   S    
C6    C142  A    
Cu1   O1    S    
C81   C89   S    
Cu8   O20   S    
Cu11  O47   S    
C42   H2    S    
C23   O55   S    
C24   C28   A    
C119  O11   A    
C6    C126  A    
C138  C142  A    
C53   C57   A    
C98   C113  S    
C82   C86   A    
C129  H21   S    
C33   C37   S    
C108  C112  S    
C2    O2    A    
C143  H27   S    
C35   C39   S    
O57   H45   S    
O58   H46   S    
C77   C81   A    
C54   F10   S    
C27   O59   S    
Cu12  O13   S    
C112  O52   S    
C31   C119  S    
C123  O43   A    
C121  O41   A    
C44   H4    S    
C31   C35   A    
C91   O31   A    
Cu6   O18   S    
C104  C108  S    
Cu3   O31   S    
C48   O28   A    
C137  C141  A    
C58   C121  S    
C91   O35   A    
C140  C144  A    
C28   O60   S    
C89   O33   A    
C6    C10   S    
C38   C42   S    
C79   C111  S    
C43   H3    S    
C82   C90   S    
C98   C102  A    
C46   C133  S    
C79   C83   A    
C107  H19   S    
C65   C69   A    
C108  H20   S    
C67   C71   A    
C17   C21   A    
C88   F20   S    
C56   C60   A    
C123  O39   A    
C92   O36   A    
C22   C26   A    
Cu1   Cu5   S    
C48   O24   A    
C2    C18   S    
Cu5   O33   S    
C14   C18   A    
C51   F7    S    
C72   C76   S    
Cu11  O14   S    
Cu12  O10   S    
C112  F24   S    
Cu12  O48   S    
C7    C11   S    
C45   C134  S    
Cu7   O19   S    
C90   O30   A    
C131  C135  A    
C116  O8    A    
C78   C82   A    
C86   C94   A    
Cu8   O36   S    
Cu4   O4    S    
C63   F15   S    
C20   C24   A    
C46   O22   A    
C125  F1    S    
C23   C27   A    
O51   H39   S    
C16   C20   A    
C14   C42   S    
C39   H31   S    
C113  O45   A    
C93   H9    S    
C25   O57   S    
C85   C93   A    
C32   C120  S    
C117  O9    A    
C128  C132  A    
C15   C35   A    
C101  C105  S    
C122  O38   A    
C63   C67   A    
C2    O18   A    
C36   C40   S    
Cu10  O5    S    
C131  H23   S    
C22   O54   S    
C39   C43   S    
O55   H43   S    
C29   C117  S    
C5    C141  A    
Cu6   O26   S    
C78   C110  S    
C53   F9    S    
Cu3   O3    S    
C55   F11   S    
C119  O15   A    
C54   C58   A    
C62   F14   S    
C122  O42   A    
C34   C38   S    
C134  C138  A    
C11   C12   T    
C124  O40   A    
C116  O48   A    
C4    O20   A    
Cu9   O45   S    
C140  F28   S    
Cu4   O32   S    
C71   C75   S    
Cu8   O28   S    
C137  F25   S    
C102  C106  S    
C81   C85   A    
C43   H35   S    
C106  C110  S    
C113  O5    A    
Cu9   Cu10  S    
C109  O49   S    
C97   C101  A    
Cu11  O8    S    
C52   C56   A    
C64   F16   S    
