data_mof_unit_28169.cif
_audit_creation_date              2012-12-11T14:11:05-0500
_audit_creation_method            fapswitch 2.2
_symmetry_space_group_name_H-M    P1
_symmetry_Int_Tables_number       1
_space_group_crystal_system       triclinic
_cell_length_a                    20.142721
_cell_length_b                    17.256982
_cell_length_c                    15.688768
_cell_angle_alpha                 89.754885
_cell_angle_beta                  51.195084
_cell_angle_gamma                 90.099971
_cell_volume                      4249.68477065

loop_
_atom_site_label
_atom_site_type_symbol
_atom_type_description
_atom_site_fract_x
_atom_site_fract_y
_atom_site_fract_z
_atom_type_partial_charge
C1    C     C_R   0.354446 0.188209 0.024255 0.187454
C2    C     C_3   0.804814 0.815396 0.409624 0.477215
C3    C     C_3   0.704726 0.233217 0.440992 0.467162
C4    C     C_3   0.172051 0.821594 0.602894 0.483554
C5    C     C_3   0.804183 0.742008 0.560635 0.467968
C6    C     C_3   0.304816 0.315390 0.409614 0.477203
C7    C     C_3   0.204606 0.733292 0.441005 0.467182
C8    C     C_3   0.671948 0.321612 0.602924 0.483546
C9    C     C_2   0.286319 0.688610 0.947222 -0.059114
C10   C     C_2   0.780853 0.265616 0.955483 -0.137651
C11   C     C_2   0.750919 0.716009 0.992899 -0.132726
C12   C     C_R   0.620287 0.801460 0.008816 0.166091
C13   C     C_2   0.192095 0.255536 0.082310 -0.084660
C14   C     C_2   0.786303 0.188652 0.947198 -0.058921
C15   C     C_2   0.280951 0.765590 0.955290 -0.137345
C16   C     C_2   0.250902 0.215985 0.992939 -0.132242
C17   C     C_2   0.692112 0.755549 0.082287 -0.084561
C18   C     C_R   0.348537 0.827778 0.223550 -0.174939
C19   C     C_R   0.584830 0.201058 0.800483 -0.207506
C20   C     C_R   0.652814 0.830343 0.779205 -0.181793
C21   C     C_R   0.395166 0.198465 0.210146 -0.147950
C22   C     C_R   0.848548 0.327763 0.223560 -0.174694
C23   C     C_R   0.665337 0.171406 0.943737 0.173759
C24   C     C_R   0.084842 0.701063 0.800486 -0.207504
C25   C     C_R   0.152800 0.330327 0.779195 -0.181685
C26   C     C_R   0.895152 0.698463 0.210155 -0.147934
C27   C     C_R   0.367323 0.886451 0.898181 0.474821
C28   C     C_R   0.669472 0.088978 0.048252 0.455934
C29   C     C_R   0.625384 0.885321 0.110614 0.484929
C30   C     C_R   0.340665 0.099384 0.934238 0.469866
C31   C     C_R   0.867285 0.386459 0.898225 0.474849
C32   C     C_R   0.169456 0.588972 0.048289 0.455957
C33   C     C_R   0.125387 0.385321 0.110612 0.484853
C34   C     C_R   0.374760 0.802182 0.998200 0.195104
C35   C     C_R   0.840690 0.599404 0.934195 0.469817
C36   C     C_R   0.412219 0.111877 0.299207 0.577005
C37   C     C_R   0.644979 0.918744 0.682162 0.497576
C38   C     C_R   0.578996 0.112499 0.706365 0.572589
C39   C     C_R   0.358793 0.914408 0.319417 0.498690
C40   C     C_R   0.912213 0.611878 0.299211 0.577013
C41   C     C_R   0.144967 0.418734 0.682157 0.497563
C42   C     C_R   0.079015 0.612505 0.706353 0.572524
C43   C     C_R   0.858812 0.414390 0.319423 0.498745
C44   C     C_R   0.307853 0.166897 0.991760 -0.051370
C45   C     C_R   0.854470 0.688225 0.024216 0.187466
C46   C     C_R   0.645795 0.811526 0.070699 -0.059720
C47   C     C_R   0.713802 0.147015 0.972287 -0.063907
C48   C     C_R   0.345447 0.812672 0.941318 -0.042389
C49   C     C_R   0.807891 0.666927 0.991694 -0.051216
C50   C     C_R   0.145824 0.311532 0.070670 -0.059771
C51   C     C_R   0.213812 0.646983 0.972300 -0.063938
C52   C     C_R   0.845400 0.312686 0.941386 -0.042315
C53   C     C_R   0.309535 0.855028 0.326798 0.058247
C54   C     C_R   0.588775 0.189746 0.712022 0.033263
C55   C     C_R   0.695108 0.860961 0.676342 0.058612
C56   C     C_R   0.120320 0.301471 0.008783 0.166300
C57   C     C_R   0.387651 0.186060 0.301571 0.013805
C58   C     C_R   0.809565 0.354997 0.326810 0.058224
C59   C     C_R   0.088816 0.689751 0.712003 0.033231
C60   C     C_R   0.195092 0.360945 0.676334 0.058537
C61   C     C_R   0.887634 0.686057 0.301583 0.013826
C62   C     C_3   0.269749 0.208934 0.504753 0.447362
C63   C     C_3   0.839163 0.848948 0.465970 0.482105
C64   C     C_3   0.723755 0.211903 0.518345 0.416021
C65   C     C_3   0.153365 0.843871 0.524632 0.464643
C66   C     C_3   0.769741 0.708943 0.504771 0.447361
C67   C     C_R   0.165383 0.671354 0.943683 0.173646
C68   C     C_3   0.339152 0.348946 0.465972 0.482122
C69   C     C_3   0.223724 0.711885 0.518245 0.416067
C70   C     C_3   0.653351 0.343795 0.524548 0.464566
C71   C     C_3   0.724869 0.785071 0.519977 -0.378103
C72   C     C_3   0.385445 0.271465 0.448647 -0.353157
C73   C     C_3   0.260801 0.792292 0.505921 -0.345998
C74   C     C_3   0.614887 0.261888 0.538839 -0.341139
C75   C     C_3   0.224870 0.285057 0.519960 -0.378044
C76   C     C_3   0.885448 0.771462 0.448645 -0.353201
C77   C     C_3   0.760751 0.292349 0.506042 -0.345840
C78   C     C_R   0.874735 0.302189 0.998233 0.194870
C79   C     C_3   0.114816 0.762002 0.538947 -0.341164
C80   C     C_3   0.759582 0.818857 0.576325 -0.227170
C81   C     C_3   0.349406 0.238593 0.393616 -0.238925
C82   C     C_3   0.241652 0.814389 0.427911 -0.230593
C83   C     C_3   0.634920 0.240615 0.616174 -0.238313
C84   C     C_3   0.259571 0.318847 0.576318 -0.227183
C85   C     C_3   0.849397 0.738594 0.393627 -0.238894
C86   C     C_3   0.741689 0.314352 0.427920 -0.230607
C87   C     C_3   0.134941 0.740633 0.616166 -0.238307
C88   C     C_3   0.368834 0.270352 0.040165 -0.815175
C89   C     C_3   0.304179 0.242004 0.560629 0.467962
C90   C     C_3   0.591729 0.724667 0.996207 -0.813228
C91   C     C_3   0.696805 0.228923 0.852894 -0.779204
C92   C     C_3   0.396632 0.724759 0.018631 -0.853087
C93   C     C_3   0.868874 0.770363 0.040117 -0.815217
C94   C     C_3   0.091961 0.224664 0.995902 -0.813962
C95   C     C_3   0.197028 0.728698 0.852588 -0.779152
C96   C     C_3   0.896566 0.224746 0.018684 -0.852725
Cl1   Cl    Cl    0.399147 0.902626 0.766686 -0.412753
Cl2   Cl    Cl    0.663322 0.961677 0.567811 -0.401994
Cl3   Cl    Cl    0.524297 0.081594 0.658666 -0.393855
Cl4   Cl    Cl    0.342905 0.957552 0.431567 -0.419060
Cl5   Cl    Cl    0.970152 0.590903 0.345951 -0.397927
Cl6   Cl    Cl    0.163274 0.461637 0.567813 -0.401949
Cl7   Cl    Cl    0.024323 0.581622 0.658636 -0.393743
Cl8   Cl    Cl    0.842907 0.457564 0.431567 -0.419167
Cl9   Cl    Cl    0.216591 0.117928 0.536903 -0.407795
Cl10  Cl    Cl    0.886624 0.941940 0.441874 -0.410906
Cl11  Cl    Cl    0.779306 0.127387 0.507714 -0.441907
Cl12  Cl    Cl    0.696271 0.052269 0.127145 -0.459474
Cl13  Cl    Cl    0.107693 0.932512 0.525813 -0.443703
Cl14  Cl    Cl    0.716575 0.617940 0.536927 -0.407831
Cl15  Cl    Cl    0.386601 0.441942 0.441890 -0.410961
Cl16  Cl    Cl    0.279268 0.627312 0.507466 -0.441795
Cl17  Cl    Cl    0.607655 0.432375 0.525605 -0.443844
Cl18  Cl    Cl    0.309138 0.190438 0.655206 -0.452215
Cl19  Cl    Cl    0.800522 0.869395 0.315980 -0.443061
Cl20  Cl    Cl    0.721123 0.168510 0.341097 -0.421637
Cl21  Cl    Cl    0.152987 0.884449 0.705966 -0.453735
Cl22  Cl    Cl    0.809139 0.690442 0.655214 -0.452040
Cl23  Cl    Cl    0.589167 0.904971 0.243402 -0.409823
Cl24  Cl    Cl    0.300527 0.369389 0.315967 -0.443109
Cl25  Cl    Cl    0.220837 0.668654 0.341142 -0.421672
Cl26  Cl    Cl    0.652723 0.384522 0.706035 -0.453785
Cl27  Cl    Cl    0.311993 0.059058 0.859309 -0.445496
Cl28  Cl    Cl    0.899092 0.402608 0.766735 -0.412813
Cl29  Cl    Cl    0.196200 0.552293 0.127256 -0.459304
Cl30  Cl    Cl    0.089156 0.404954 0.243410 -0.409831
Cl31  Cl    Cl    0.812030 0.559082 0.859252 -0.445507
Cl32  Cl    Cl    0.470155 0.090894 0.345948 -0.398014
H1    H     H_    0.322950 0.783542 0.204204 0.201092
H2    H     H_    0.452125 0.265933 0.417696 0.243629
H3    H     H_    0.321025 0.801531 0.493225 0.255465
H4    H     H_    0.554226 0.249840 0.553692 0.251350
H5    H     H_    0.158524 0.289032 0.549074 0.246793
H6    H     H_    0.952129 0.765923 0.417688 0.243664
H7    H     H_    0.820924 0.301646 0.493449 0.255524
H8    H     H_    0.054105 0.750021 0.553896 0.251287
H9    H     H_    0.340997 0.656481 0.925487 0.178823
H10   H     H_    0.724012 0.295983 0.980287 0.167951
H11   H     H_    0.761828 0.723300 0.916184 0.194295
H12   H     H_    0.571876 0.256341 0.839347 0.190844
H13   H     H_    0.185496 0.252312 0.156495 0.194137
H14   H     H_    0.841068 0.156551 0.925226 0.178782
H15   H     H_    0.224194 0.795984 0.979833 0.168004
H16   H     H_    0.261870 0.223305 0.916192 0.194182
H17   H     H_    0.685545 0.752334 0.156449 0.194125
H18   H     H_    0.366333 0.309962 0.986275 0.260865
H19   H     H_    0.318604 0.287711 0.126238 0.275587
H20   H     H_    0.433147 0.277143 0.016674 0.230568
H21   H     H_    0.563819 0.732138 0.954829 0.231273
H22   H     H_    0.645161 0.683647 0.946175 0.278558
H23   H     H_    0.674825 0.783651 0.800816 0.200031
H24   H     H_    0.542807 0.698429 0.078128 0.266479
H25   H     H_    0.759086 0.255223 0.818318 0.265017
H26   H     H_    0.713834 0.198569 0.779916 0.263610
H27   H     H_    0.651494 0.277506 0.883317 0.250785
H28   H     H_    0.338016 0.689551 0.075462 0.294795
H29   H     H_    0.441754 0.693966 0.940023 0.253446
H30   H     H_    0.428244 0.730875 0.055265 0.240475
H31   H     H_    0.866410 0.809969 0.986194 0.260884
H32   H     H_    0.818633 0.787740 0.126176 0.275575
H33   H     H_    0.933174 0.777138 0.016662 0.230577
H34   H     H_    0.397422 0.254420 0.178999 0.187255
H35   H     H_    0.145571 0.183958 0.945178 0.278540
H36   H     H_    0.043498 0.198037 0.077637 0.266903
H37   H     H_    0.063617 0.232222 0.955102 0.231293
H38   H     H_    0.259427 0.754820 0.817866 0.264953
H39   H     H_    0.213935 0.698217 0.779746 0.263553
H40   H     H_    0.151902 0.777426 0.882805 0.250978
H41   H     H_    0.837932 0.189547 0.075475 0.294811
H42   H     H_    0.941695 0.193957 0.940074 0.253394
H43   H     H_    0.928144 0.230820 0.055371 0.240496
H44   H     H_    0.822942 0.283538 0.204228 0.201027
H45   H     H_    0.071912 0.756344 0.839349 0.190866
H46   H     H_    0.174791 0.283611 0.800788 0.200026
H47   H     H_    0.897391 0.754415 0.179016 0.187269
H48   H     H_    0.658522 0.789054 0.549098 0.246780
N1    N     N_R   0.408680 0.130810 0.995780 -0.090057
N2    N     N_R   0.578590 0.132790 0.846380 -0.075349
N3    N     N_R   0.578590 0.867210 0.846380 -0.080571
N4    N     N_R   0.421410 0.132790 0.153620 -0.082115
N5    N     N_R   0.921410 0.367210 0.153620 -0.080147
N6    N     N_R   0.078590 0.632790 0.846380 -0.075422
N7    N     N_R   0.078590 0.367210 0.846380 -0.080576
N8    N     N_R   0.921410 0.632790 0.153620 -0.082120
N9    N     N_R   0.403840 0.921910 0.935760 -0.113992
N10   N     N_R   0.596160 0.078090 0.064240 -0.108877
N11   N     N_R   0.596160 0.921910 0.064240 -0.117871
N12   N     N_R   0.591320 0.869190 0.004220 -0.086785
N13   N     N_R   0.403840 0.078090 0.935760 -0.118804
N14   N     N_R   0.903840 0.421910 0.935760 -0.113986
N15   N     N_R   0.096160 0.578090 0.064240 -0.108892
N16   N     N_R   0.096160 0.421910 0.064240 -0.117897
N17   N     N_R   0.903840 0.578090 0.935760 -0.118800
N18   N     N_R   0.426250 0.076100 0.213650 -0.114974
N19   N     N_R   0.573750 0.923900 0.786350 -0.099549
N20   N     N_R   0.573750 0.076100 0.786350 -0.110759
N21   N     N_R   0.426250 0.923900 0.213650 -0.101702
N22   N     N_R   0.926250 0.576100 0.213650 -0.114974
N23   N     N_R   0.591320 0.130810 0.004220 -0.088527
N24   N     N_R   0.073750 0.423900 0.786350 -0.099554
N25   N     N_R   0.073750 0.576100 0.786350 -0.110810
N26   N     N_R   0.926250 0.423900 0.213650 -0.101722
N27   N     N_R   0.408680 0.869190 0.995780 -0.088989
N28   N     N_R   0.908680 0.630810 0.995780 -0.090048
N29   N     N_R   0.091320 0.369190 0.004220 -0.086779
N30   N     N_R   0.091320 0.630810 0.004220 -0.088494
N31   N     N_R   0.908680 0.369190 0.995780 -0.089007
N32   N     N_R   0.421410 0.867210 0.153620 -0.080157
Ni1   Ni    Ni4+2 0.500000 0.131570 0.000000 0.195285
Ni2   Ni    Ni4+2 0.500000 0.868430 0.000000 0.196709
Ni3   Ni    Ni4+2 0.000000 0.631570 0.000000 0.195312
Ni4   Ni    Ni4+2 0.000000 0.368430 0.000000 0.196795
Ni5   Ni    Ni4+2 0.488900 0.000000 0.862310 0.345485
Ni6   Ni    Ni4+2 0.511100 0.000000 0.137690 0.347191
Ni7   Ni    Ni4+2 0.988900 0.500000 0.862310 0.345467
Ni8   Ni    Ni4+2 0.011100 0.500000 0.137690 0.347186

loop_
_geom_bond_atom_site_label_1
_geom_bond_atom_site_label_2
_ccdc_geom_bond_type
C27   C48   A    
C8    C83   S    
C14   H14   S    
C28   C47   A    
C65   C79   S    
C74   H4    S    
N6    N25   A    
C64   C77   S    
N5    N26   A    
C9    C51   S    
C74   C83   S    
C90   H22   S    
N22   Ni8   S    
C42   Cl7   S    
C66   C85   S    
C73   H3    S    
N16   N29   A    
C65   C82   S    
C41   N24   A    
C6    C75   S    
C32   C51   A    
C62   Cl9   S    
N3    N19   A    
C3    C64   S    
C71   H48   S    
C56   C94   S    
C79   H8    S    
C29   Cl23  S    
N3    Ni2   S    
N17   N28   A    
C64   Cl11  S    
N5    Ni4   S    
C11   C49   S    
C37   N19   A    
C12   C90   S    
C16   H16   S    
C26   C61   A    
C39   C53   A    
C31   Cl28  S    
C91   H25   S    
C22   N5    A    
C3    Cl20  S    
C20   C55   A    
C45   N28   A    
C4    C65   S    
C69   Cl16  S    
C75   C84   S    
C2    Cl19  S    
C63   C76   S    
C12   N12   A    
C62   C89   S    
C23   N23   A    
N24   Ni7   S    
C63   Cl10  S    
C41   Cl6   S    
C2    C85   S    
C18   N32   A    
C27   N9    A    
C30   N13   A    
N1    Ni1   S    
C93   H31   S    
C3    C74   S    
C11   H11   S    
C70   C74   S    
N25   Ni7   S    
C92   H30   S    
C76   C85   S    
C18   C53   A    
C40   Cl5   S    
C43   Cl8   S    
N12   Ni2   S    
N30   Ni3   S    
C21   N4    A    
C27   Cl1   S    
C56   N29   A    
C78   C96   S    
C19   H12   S    
C96   H43   S    
C35   C49   A    
N13   Ni5   S    
N27   Ni2   S    
C69   C73   S    
C25   C60   A    
C13   H13   S    
N14   Ni7   S    
C16   C44   S    
C72   C81   S    
C69   C87   S    
N16   Ni8   S    
C1    C88   S    
C6    C68   S    
C39   N21   A    
N11   Ni6   S    
C10   C52   S    
C20   H23   S    
C6    C81   S    
C96   H42   S    
C95   H40   S    
C3    C86   S    
C67   C95   S    
C30   C44   A    
C36   Cl32  S    
C1    N1    A    
C15   C48   S    
C7    Cl25  S    
C90   H21   S    
C52   C78   A    
C24   H45   S    
C25   H46   S    
C94   H37   S    
C79   C87   S    
C54   C83   S    
C78   N31   A    
N17   Ni7   S    
C20   N3    A    
C59   C87   S    
C63   C80   S    
C70   Cl17  S    
C23   C47   A    
C24   N6    A    
C68   C84   S    
N1    N13   A    
C17   C46   S    
C91   H26   S    
C90   H24   S    
C36   C57   A    
C10   C14   D    
C6    Cl24  S    
C76   H6    S    
C5    C66   S    
N29   Ni4   S    
C33   C50   A    
N2    N20   A    
C50   C56   A    
C40   C61   A    
C29   N11   A    
N2    Ni1   S    
C4    C87   S    
C92   H29   S    
N23   Ni1   S    
C68   Cl15  S    
C32   Cl29  S    
C93   H32   S    
C17   H17   S    
C64   C83   S    
C91   H27   S    
C58   C86   S    
C28   N10   A    
N15   Ni8   S    
N18   Ni6   S    
C1    C44   A    
C66   C71   S    
C38   C54   A    
C93   H33   S    
C34   N27   A    
C68   C72   S    
C55   C80   S    
C43   N26   A    
C45   C49   A    
C88   H20   S    
C37   Cl2   S    
C92   H28   S    
C51   C67   A    
C66   Cl14  S    
C5    C80   S    
C35   Cl31  S    
C19   N2    A    
C65   Cl13  S    
C4    C73   S    
C42   N25   A    
C67   N30   A    
C61   C85   S    
C15   H15   S    
C19   C54   A    
C12   C46   A    
C62   C81   S    
C45   C93   S    
N8    N22   A    
C96   H41   S    
C33   N16   A    
C77   C86   S    
C8    C77   S    
C57   C81   S    
C4    Cl21  S    
C34   C48   A    
C84   C89   S    
C2    C71   S    
C70   C86   S    
C95   H38   S    
C94   H36   S    
C73   C82   S    
N4    N18   A    
C2    C63   S    
N8    Ni3   S    
C7    C79   S    
N6    Ni3   S    
C89   Cl18  S    
C11   C17   D    
C21   H34   S    
C41   C60   A    
C38   Cl3   S    
C18   H1    S    
C95   H39   S    
C42   C59   A    
C22   C58   A    
C71   C80   S    
C75   H5    S    
C72   H2    S    
C14   C47   S    
C77   H7    S    
C21   C57   A    
C29   C46   A    
C8    C70   S    
N7    N24   A    
C36   N18   A    
C31   C52   A    
C5    Cl22  S    
N9    N27   A    
C5    C76   S    
C7    C69   S    
N7    Ni4   S    
C9    H9    S    
N11   N12   A    
N20   Ni5   S    
C60   C84   S    
C8    Cl26  S    
C39   Cl4   S    
N31   Ni4   S    
C40   N22   A    
C26   H47   S    
C28   Cl12  S    
C24   C59   A    
N10   N23   A    
N10   Ni6   S    
N28   Ni3   S    
C31   N14   A    
C33   Cl30  S    
C88   H19   S    
N9    Ni5   S    
C23   C91   S    
C38   N20   A    
C9    C15   D    
N4    Ni1   S    
C62   C75   S    
C34   C92   S    
N19   Ni5   S    
C35   N17   A    
C13   C50   S    
C37   C55   A    
N14   N31   A    
C7    C82   S    
C30   Cl27  S    
C32   N15   A    
N32   Ni2   S    
C13   C16   D    
C88   H18   S    
C43   C58   A    
C53   C82   S    
N21   N32   A    
C72   C89   S    
C10   H10   S    
N26   Ni8   S    
C94   H35   S    
N15   N30   A    
C22   H44   S    
N21   Ni6   S    
C25   N7    A    
C26   N8    A    
