data_mof_unit_60995.cif
_audit_creation_date              2012-10-26T18:42:44-0400
_audit_creation_method            fapswitch 2.2
_symmetry_space_group_name_H-M    P1
_symmetry_Int_Tables_number       1
_space_group_crystal_system       triclinic
_cell_length_a                    19.541484
_cell_length_b                    18.170168
_cell_length_c                    23.591341
_cell_angle_alpha                 90.0
_cell_angle_beta                  90.874283
_cell_angle_gamma                 90.000013
_cell_volume                      8375.65055566

loop_
_atom_site_label
_atom_site_type_symbol
_atom_type_description
_atom_site_fract_x
_atom_site_fract_y
_atom_site_fract_z
_atom_type_partial_charge
C1    C     C_R   0.367680 0.500178 0.500141 0.589538
C2    C     C_R   0.533358 0.555971 0.704414 -0.060683
C3    C     C_R   0.470908 0.554997 0.235710 0.057593
C4    C     C_R   0.529090 0.554997 0.764291 0.057593
C5    C     C_R   0.503034 0.494942 0.208790 0.118760
C6    C     C_R   0.496966 0.494942 0.791210 0.118760
C7    C     C_R   0.746001 0.450486 0.532420 0.001851
C8    C     C_R   0.257552 0.554581 0.533872 0.020953
C9    C     C_R   0.253999 0.450486 0.467581 0.001850
C10   C     C_R   0.742448 0.554580 0.466128 0.020953
C11   C     C_R   0.818073 0.449485 0.529726 0.017614
C12   C     C_R   0.632320 0.500178 0.499859 0.589540
C13   C     C_R   0.185384 0.558534 0.531823 0.021686
C14   C     C_R   0.181927 0.449484 0.470275 0.017613
C15   C     C_R   0.814616 0.558534 0.468176 0.021687
C16   C     C_R   0.852414 0.504873 0.498928 -0.051264
C17   C     C_R   0.147586 0.504873 0.501072 -0.051264
C18   C     C_R   0.708051 0.501303 0.499137 -0.036389
C19   C     C_R   0.291949 0.501303 0.500863 -0.036390
C20   C     C_R   0.498866 0.499916 0.390813 0.608893
C21   C     C_R   0.501134 0.499916 0.609187 0.608892
C22   C     C_R   0.964042 0.506147 0.448327 -0.040487
C23   C     C_R   0.532545 0.438675 0.241194 -0.017551
C24   C     C_R   0.035958 0.506148 0.551673 -0.040487
C25   C     C_R   0.035188 0.508791 0.448913 -0.039544
C26   C     C_R   0.964812 0.508792 0.551088 -0.039544
C27   C     C_R   0.071730 0.506947 0.500578 0.071670
C28   C     C_R   0.928269 0.506947 0.499422 0.071670
C29   C     C_R   0.449392 0.721598 0.472020 0.491706
C30   C     C_R   0.537338 0.278516 0.539858 0.521154
C31   C     C_R   0.550608 0.721598 0.527980 0.491705
C32   C     C_R   0.462661 0.278516 0.460142 0.521154
C33   C     C_R   0.448924 0.798904 0.471073 -0.048128
C34   C     C_R   0.467455 0.438675 0.758806 -0.017551
C35   C     C_R   0.538547 0.201195 0.540185 -0.033200
C36   C     C_R   0.551076 0.798904 0.528927 -0.048128
C37   C     C_R   0.461453 0.201195 0.459815 -0.033201
C38   C     C_R   0.500000 0.839076 0.500000 -0.027102
C39   C     C_R   0.500000 0.161475 0.500000 -0.024552
C40   C     C_R   0.561222 0.962118 0.492835 0.377805
C41   C     C_R   0.438771 0.039525 0.506580 0.385480
C42   C     C_R   0.438778 0.962118 0.507165 0.377805
C43   C     C_R   0.561229 0.039525 0.493420 0.385481
C44   C     C_R   0.500000 0.079129 0.500000 -0.082801
C45   C     C_R   0.530951 0.440868 0.299991 0.380130
C46   C     C_R   0.500000 0.922007 0.500000 -0.078179
C47   C     C_R   0.558522 0.480716 0.880316 0.446476
C48   C     C_R   0.441478 0.480714 0.119684 0.446476
C49   C     C_R   0.437053 0.492434 0.880337 0.473875
C50   C     C_R   0.562946 0.492436 0.119663 0.473875
C51   C     C_R   0.436613 0.489208 0.939922 0.038405
C52   C     C_R   0.563387 0.489209 0.060078 0.038405
C53   C     C_R   0.499689 0.487626 0.969997 -0.107568
C54   C     C_R   0.500311 0.487626 0.030003 -0.107568
C55   C     C_R   0.562039 0.486219 0.940050 -0.030448
C56   C     C_R   0.469050 0.440867 0.700009 0.380130
C57   C     C_R   0.437961 0.486217 0.059950 -0.030447
C58   C     C_R   0.374877 0.490111 0.969847 0.397280
C59   C     C_R   0.625123 0.490114 0.030153 0.397279
C60   C     C_R   0.374889 0.489590 0.029231 0.054591
C61   C     C_R   0.625111 0.489593 0.970769 0.054591
C62   C     C_2   0.308066 0.499593 0.057153 0.706812
C63   C     C_2   0.691933 0.499598 0.942847 0.706813
C64   C     C_2   0.427175 0.614796 0.323583 0.668107
C65   C     C_2   0.572824 0.614798 0.676417 0.668107
C66   C     C_2   0.440702 0.615282 0.200703 0.671288
C67   C     C_R   0.498215 0.499123 0.328026 -0.024084
C68   C     C_2   0.559295 0.615283 0.799297 0.671288
C69   C     C_2   0.710532 0.401342 0.572701 0.674399
C70   C     C_2   0.297232 0.606309 0.570572 0.654768
C71   C     C_2   0.289468 0.401341 0.427300 0.674399
C72   C     C_2   0.702768 0.606308 0.429426 0.654768
C73   C     C_2   0.857973 0.390332 0.558878 0.607045
C74   C     C_2   0.149135 0.619227 0.561370 0.611281
C75   C     C_2   0.142027 0.390331 0.441124 0.607045
C76   C     C_2   0.850865 0.619225 0.438629 0.611281
C77   C     C_R   0.501785 0.499123 0.671974 -0.024084
C78   C     C_R   0.466641 0.555971 0.295586 -0.060684
Cu1   Cu    Cu3+1 0.500000 0.573360 0.500000 1.206328
Cu2   Cu    Cu3+1 0.500000 0.426640 0.500000 1.259988
F1    F     F_    0.313793 0.493859 0.941529 -0.512962
F2    F     F_    0.621070 0.075970 0.485958 -0.522655
F3    F     F_    0.562449 0.385989 0.329492 -0.558020
F4    F     F_    0.437553 0.385988 0.670508 -0.558020
F5    F     F_    0.686207 0.493863 0.058471 -0.512962
F6    F     F_    0.398473 0.685104 0.444713 -0.568004
F7    F     F_    0.573423 0.315290 0.580074 -0.575708
F8    F     F_    0.601527 0.685104 0.555287 -0.568003
F9    F     F_    0.426577 0.315290 0.419926 -0.575709
F10   F     F_    0.621091 0.926558 0.483496 -0.531316
F11   F     F_    0.378929 0.075970 0.514042 -0.522655
F12   F     F_    0.378909 0.926558 0.516504 -0.531316
H1    H     H_    0.408960 0.826999 0.447297 0.204222
H2    H     H_    0.938132 0.510496 0.590968 0.153151
H3    H     H_    0.251100 0.559690 0.110700 0.373312
H4    H     H_    0.748898 0.559696 0.889300 0.373312
H5    H     H_    0.413712 0.723663 0.336011 0.376048
H6    H     H_    0.586284 0.723664 0.663989 0.376047
H7    H     H_    0.359707 0.681206 0.184350 0.373568
H8    H     H_    0.640289 0.681209 0.815650 0.373568
H9    H     H_    0.651582 0.394104 0.642070 0.388391
H10   H     H_    0.367092 0.618795 0.633698 0.357537
H11   H     H_    0.348416 0.394102 0.357930 0.388391
H12   H     H_    0.568622 0.172520 0.572181 0.192118
H13   H     H_    0.632908 0.618792 0.366301 0.357536
H14   H     H_    0.930522 0.311840 0.552894 0.375191
H15   H     H_    0.079020 0.700547 0.556318 0.374906
H16   H     H_    0.069477 0.311838 0.447109 0.375191
H17   H     H_    0.920980 0.700545 0.443679 0.374905
H18   H     H_    0.591040 0.826999 0.552703 0.204222
H19   H     H_    0.431378 0.172519 0.427819 0.192118
H20   H     H_    0.556839 0.392600 0.220437 0.190483
H21   H     H_    0.443163 0.392599 0.779563 0.190483
H22   H     H_    0.936827 0.504056 0.408025 0.151893
H23   H     H_    0.063173 0.504058 0.591975 0.151893
H24   H     H_    0.061868 0.510494 0.409032 0.153151
N1    N     N_R   0.497384 0.488778 0.852075 -0.399357
N2    N     N_R   0.502616 0.488778 0.147925 -0.399357
N3    N     N_R   0.500000 0.683620 0.500000 -0.233726
N4    N     N_R   0.500000 0.316380 0.500000 -0.231823
O1    O     O_R   0.400190 0.561980 0.499990 -0.436504
O2    O     O_2   0.384880 0.466278 0.149734 -0.421491
O3    O     O_2   0.377910 0.499780 0.850611 -0.346084
O4    O     O_2   0.622090 0.499783 0.149389 -0.346083
O5    O     O_2   0.260518 0.458030 0.045994 -0.382352
O6    O     O_R   0.298926 0.558235 0.094683 -0.620592
O7    O     O_2   0.739483 0.458036 0.954006 -0.382352
O8    O     O_R   0.701072 0.558240 0.905318 -0.620592
O9    O     O_2   0.377788 0.598637 0.352241 -0.383083
O10   O     O_R   0.445517 0.688470 0.315988 -0.642853
O11   O     O_2   0.622211 0.598640 0.647760 -0.383082
O12   O     O_R   0.599810 0.438020 0.500010 -0.473963
O13   O     O_R   0.554480 0.688471 0.684012 -0.642853
O14   O     O_2   0.473392 0.641917 0.161951 -0.449209
O15   O     O_R   0.374560 0.640618 0.211334 -0.612827
O16   O     O_2   0.526605 0.641917 0.838049 -0.449209
O17   O     O_R   0.625437 0.640620 0.788666 -0.612827
O18   O     O_2   0.717157 0.334571 0.569297 -0.391651
O19   O     O_R   0.670473 0.432250 0.615162 -0.630399
O20   O     O_2   0.290997 0.672790 0.564225 -0.404108
O21   O     O_R   0.342360 0.578495 0.611845 -0.668336
O22   O     O_2   0.282843 0.334569 0.430705 -0.391650
O23   O     O_R   0.599810 0.561980 0.500010 -0.436505
O24   O     O_R   0.329526 0.432248 0.384838 -0.630397
O25   O     O_2   0.709003 0.672788 0.435773 -0.404109
O26   O     O_R   0.657640 0.578493 0.388155 -0.668335
O27   O     O_2   0.849952 0.378250 0.609345 -0.439917
O28   O     O_R   0.905840 0.349659 0.528496 -0.642985
O29   O     O_2   0.160844 0.631383 0.611579 -0.436025
O30   O     O_R   0.100827 0.661620 0.531666 -0.641170
O31   O     O_2   0.150048 0.378247 0.390658 -0.439916
O32   O     O_R   0.094159 0.349659 0.471507 -0.642985
O33   O     O_2   0.839156 0.631381 0.388419 -0.436025
O34   O     O_R   0.400190 0.438020 0.499990 -0.473963
O35   O     O_R   0.899173 0.661619 0.468332 -0.641170
O36   O     O_R   0.499980 0.561970 0.417880 -0.492338
O37   O     O_R   0.500020 0.438030 0.582120 -0.400789
O38   O     O_R   0.500020 0.561970 0.582120 -0.492338
O39   O     O_R   0.499980 0.438030 0.417880 -0.400789
O40   O     O_2   0.615120 0.466280 0.850266 -0.421492

loop_
_geom_bond_atom_site_label_1
_geom_bond_atom_site_label_2
_ccdc_geom_bond_type
C26   H2    S    
Cu2   N4    S    
C41   C42   A    
C34   C56   A    
C8    C13   A    
C23   C45   A    
C21   O38   A    
C20   C67   S    
C35   C39   A    
C24   C27   A    
C43   C44   A    
C2    C65   S    
H11   O24   S    
Cu1   O38   S    
H9    O19   S    
C48   C57   A    
C53   C54   A    
C34   H21   S    
C70   O20   D    
C23   H20   S    
C29   N3    A    
H6    O13   S    
C30   C35   A    
C73   O27   D    
Cu2   O12   S    
C47   C55   A    
C24   C26   A    
H5    O10   S    
C10   C15   A    
C31   C36   A    
C48   O2    S    
C58   C60   A    
C15   C16   A    
C49   O3    S    
C29   C33   A    
C76   O33   D    
H14   O28   S    
H4    O8    S    
C60   C62   S    
C42   C46   A    
C61   C63   S    
Cu1   O36   S    
C66   O14   D    
H15   O30   S    
C9    C19   A    
C40   C43   A    
Cu1   O23   S    
C75   O31   D    
C49   C51   A    
C22   C25   A    
Cu1   N3    S    
C45   C67   A    
C50   C52   A    
C74   O29   D    
H10   O21   S    
C20   O36   A    
C6    N1    S    
C63   O8    S    
C15   C76   S    
H16   O32   S    
C14   C17   A    
C68   O17   S    
C45   F3    S    
C67   C78   A    
C64   C78   S    
C32   N4    A    
C26   C28   A    
C65   O11   D    
C52   C54   A    
C56   F4    S    
C47   O40   S    
C53   C55   A    
C49   N1    A    
C1    C19   S    
C8    C19   A    
C59   C61   A    
C73   O28   S    
C17   C27   S    
C68   O16   D    
C50   O4    S    
Cu1   Cu2   S    
C4    C6    A    
C35   H12   S    
C11   C73   S    
C58   F1    S    
C62   O6    S    
Cu2   O39   S    
C48   N2    A    
C20   O39   A    
C56   C77   A    
C6    C34   A    
C51   C53   A    
C2    C4    A    
C9    C14   A    
C59   F5    S    
C52   C59   A    
Cu1   O1    S    
C11   C16   A    
C7    C11   A    
C32   F9    S    
C5    C23   A    
C22   H22   S    
C75   O32   S    
C7    C18   A    
H7    O15   S    
C69   O19   S    
C51   C58   A    
C32   C37   A    
C64   O9    D    
C31   N3    A    
C29   F6    S    
C71   O22   D    
C65   O13   S    
C41   F11   S    
C64   O10   S    
C36   H18   S    
C41   C44   A    
C25   H24   S    
C3    C66   S    
C40   C46   A    
C12   C18   S    
C4    C68   S    
C69   O18   D    
C70   O21   S    
C31   F8    S    
C12   O12   A    
C50   N2    A    
C21   O37   A    
C9    C71   S    
C3    C5    A    
C33   H1    S    
C7    C69   S    
C62   O5    D    
Cu2   O34   S    
C39   C44   S    
C25   C27   A    
C76   O35   S    
C8    C70   S    
C33   C38   A    
C12   O23   A    
C13   C17   A    
C5    N2    S    
C14   C75   S    
C36   C38   A    
C57   C60   A    
C37   C39   A    
C2    C77   A    
H3    O6    S    
Cu2   O37   S    
C30   N4    A    
C10   C18   A    
C72   O26   S    
H13   O26   S    
C55   C61   A    
C42   F12   S    
C1    O34   A    
H17   O35   S    
C1    O1    A    
C38   C46   S    
H8    O17   S    
C66   O15   S    
C47   N1    A    
C37   H19   S    
C13   C74   S    
C24   H23   S    
C21   C77   S    
C43   F2    S    
C16   C28   S    
C74   O30   S    
C22   C28   A    
C40   F10   S    
C30   F7    S    
C3    C78   A    
C63   O7    D    
C72   O25   D    
C71   O24   S    
C54   C57   A    
C10   C72   S    
