data_mof_unit_21740.cif
_audit_creation_date              2012-12-10T17:40:13-0500
_audit_creation_method            fapswitch 2.2
_symmetry_space_group_name_H-M    P1
_symmetry_Int_Tables_number       1
_space_group_crystal_system       triclinic
_cell_length_a                    12.252154
_cell_length_b                    12.892729
_cell_length_c                    26.296387
_cell_angle_alpha                 93.447157
_cell_angle_beta                  84.169207
_cell_angle_gamma                 95.031815
_cell_volume                      4110.95644219

loop_
_atom_site_label
_atom_site_type_symbol
_atom_type_description
_atom_site_fract_x
_atom_site_fract_y
_atom_site_fract_z
_atom_type_partial_charge
C1    C     C_R   0.522585 0.701054 0.499773 1.013154
C2    C     C_R   0.665375 0.536814 0.105031 -0.067643
C3    C     C_R   0.489609 0.479270 0.650411 -0.360766
C4    C     C_R   0.512874 0.492116 0.347674 -0.337880
C5    C     C_R   0.724548 0.498527 0.998609 0.053257
C6    C     C_R   0.651633 0.308293 0.948916 0.046052
C7    C     C_R   0.616504 0.327756 0.001691 0.003948
C8    C     C_R   0.755005 0.479839 0.945260 0.008791
C9    C     C_R   0.657333 0.421792 0.026890 0.077034
C10   C     C_R   0.707856 0.389316 0.920519 0.083369
C11   C     C_R   0.747170 0.597055 0.022989 -0.216952
C12   C     C_R   0.476945 0.299755 0.503439 1.021465
C13   C     C_R   0.635485 0.209529 0.923184 -0.223054
C14   C     C_R   0.722254 0.615874 0.075248 -0.012522
C15   C     C_R   0.641627 0.199258 0.869785 -0.019909
C16   C     C_R   0.496884 0.496102 0.595067 1.066626
C17   C     C_R   0.502600 0.499446 0.404593 1.053682
C18   C     C_R   0.831884 0.546250 0.914976 -0.065293
C19   C     C_R   0.533086 0.262638 0.028797 -0.065104
C20   C     C_R   0.462570 0.186100 0.502743 -0.222552
C21   C     C_R   0.535977 0.814291 0.495145 -0.283539
C22   C     C_R   0.647528 0.972712 0.470824 0.466346
C23   C     C_R   0.714201 0.380284 0.866651 -0.037835
C24   C     C_R   0.356236 0.025679 0.479953 0.440404
C25   C     C_R   0.639027 0.865033 0.476785 -0.201313
C26   C     C_R   0.360392 0.132014 0.493020 -0.225762
C27   C     C_R   0.440351 0.871272 0.502079 0.463118
C28   C     C_R   0.558018 0.131163 0.502510 0.453829
C29   C     C_R   0.449286 0.972234 0.485027 -0.178205
C30   C     C_R   0.553237 0.027260 0.483882 -0.219564
C31   C     C_R   0.964922 0.514853 0.436241 -0.117276
C32   C     C_R   0.040339 0.481934 0.565062 -0.119894
C33   C     C_R   0.848532 0.504684 0.443968 0.056861
C34   C     C_R   0.626968 0.441663 0.080120 -0.053330
C35   C     C_R   0.152698 0.518649 0.557465 0.012886
C36   C     C_R   0.856143 0.492218 0.532494 0.454033
C37   C     C_R   0.144206 0.491488 0.468425 0.496638
C38   C     C_R   0.973134 0.484726 0.524738 -0.094632
C39   C     C_R   0.027512 0.495716 0.475855 -0.092607
C40   C     C_R   0.735760 0.463722 0.786426 0.643647
C41   C     C_R   0.533950 0.387790 0.161673 0.594183
C42   C     C_R   0.655041 0.293968 0.789386 0.524471
C43   C     C_R   0.643419 0.549829 0.158706 0.593075
C44   C     C_R   0.500545 0.348514 0.712523 -0.161588
C45   C     C_R   0.763061 0.463105 0.837417 -0.071460
C46   C     C_R   0.493292 0.558871 0.264362 -0.143137
C47   C     C_R   0.454686 0.378994 0.668926 0.341191
C48   C     C_R   0.477015 0.569831 0.318248 0.359170
C49   C     C_R   0.531154 0.557230 0.685436 0.325362
C50   C     C_R   0.575214 0.412398 0.322118 0.244344
C51   C     C_R   0.560099 0.525787 0.732401 0.391935
C52   C     C_R   0.613759 0.420353 0.270000 0.384029
C53   C     C_R   0.576842 0.419531 0.736606 -0.024282
C54   C     C_R   0.563892 0.486572 0.240500 0.024222
C55   C     C_1   0.256998 0.179855 0.502438 0.527350
C56   C     C_R   0.557085 0.367400 0.108306 -0.076146
C57   C     C_1   0.738042 0.810431 0.466362 0.403780
C58   C     C_1   0.205122 0.556147 0.602443 0.420019
C59   C     C_1   0.795945 0.545276 0.403536 0.317954
C60   C     C_1   0.019219 0.562734 0.390382 0.345564
C61   C     C_1   0.997174 0.437234 0.613191 0.354006
C62   C     C_1   0.899884 0.618213 0.831457 0.336687
C63   C     C_1   0.432633 0.201812 0.108341 0.336647
C64   C     C_1   0.440485 0.623957 0.232804 0.415793
C65   C     C_1   0.451659 0.256233 0.737501 0.491491
C66   C     C_1   0.751445 0.720168 0.095791 0.306998
C67   C     C_R   0.830610 0.542174 0.861215 -0.048441
C68   C     C_1   0.610385 0.098239 0.846306 0.304130
C69   C     C_1   0.921920 0.607718 0.937205 0.168252
C70   C     C_1   0.457541 0.190513 0.002038 0.168049
C71   C     C_R   0.509490 0.278025 0.082035 -0.057249
C72   C     C_R   0.670517 0.288663 0.841425 -0.065289
H1    H     H_    0.779413 0.663277 0.001286 0.158475
H2    H     H_    0.868961 0.289129 0.267013 0.402647
H3    H     H_    0.458946 0.850766 0.333562 0.408691
H4    H     H_    0.196373 0.214314 0.675018 0.403036
H5    H     H_    0.677828 0.282098 0.609488 0.394534
H6    H     H_    0.319040 0.796541 0.624792 0.409008
H7    H     H_    0.616588 0.139775 0.944340 0.161570
H8    H     H_    0.572320 0.786477 0.606834 0.393715
H9    H     H_    0.474846 0.188480 0.390798 0.380997
H10   H     H_    0.878441 0.990609 0.371400 0.399416
H11   H     H_    0.148906 0.011026 0.389359 0.404594
H12   H     H_    0.273606 0.274548 0.397593 0.409196
H13   H     H_    0.787100 0.721543 0.561488 0.368603
H14   H     H_    0.416305 0.708720 0.821579 0.394066
N1    N     N_R   0.657726 0.390100 0.769726 -0.298020
N2    N     N_1   0.963206 0.401348 0.651513 -0.095681
N3    N     N_1   0.955293 0.678974 0.807840 -0.091092
N4    N     N_1   0.371458 0.140815 0.128987 -0.105414
N5    N     N_1   0.398362 0.675835 0.207523 -0.134007
N6    N     N_1   0.411442 0.182719 0.757434 -0.109412
N7    N     N_1   0.774903 0.803716 0.111994 -0.110372
N8    N     N_1   0.585289 0.017212 0.827627 -0.084838
N9    N     N_1   0.994031 0.656528 0.954755 -0.150128
N10   N     N_1   0.396835 0.133359 0.981006 -0.159079
N11   N     N_R   0.580300 0.475263 0.185446 -0.322414
N12   N     N_R   0.207800 0.519340 0.508990 -0.155823
N13   N     N_R   0.792200 0.480660 0.491010 -0.142324
N14   N     N_1   0.173878 0.217029 0.510388 -0.087601
N15   N     N_1   0.817958 0.768131 0.458099 -0.168587
N16   N     N_1   0.243546 0.585929 0.639609 -0.109716
N17   N     N_1   0.760303 0.580575 0.369878 -0.161535
N18   N     N_1   0.060717 0.601456 0.353948 -0.042731
O1    O     O_R   0.421700 0.658820 0.502400 -0.525935
O2    O     O_2   0.466545 0.320888 0.190303 -0.514776
O3    O     O_2   0.687065 0.634354 0.184586 -0.506334
O4    O     O_2   0.645609 0.206958 0.758699 -0.521834
O5    O     O_2   0.455414 0.747305 0.700860 -0.219333
O6    O     O_2   0.655240 0.738760 0.689651 -0.163042
O7    O     O_3   0.547147 0.711794 0.610163 -0.527578
O8    O     O_2   0.616460 0.207777 0.316858 -0.186209
O9    O     O_2   0.693877 0.320727 0.384653 -0.196563
O10   O     O_3   0.484555 0.265670 0.393587 -0.594966
O11   O     O_2   0.744894 0.136518 0.418787 -0.188603
O12   O     O_R   0.578300 0.341180 0.497600 -0.545411
O13   O     O_2   0.859159 0.048385 0.471588 -0.209770
O14   O     O_3   0.807469 0.956405 0.385883 -0.529707
O15   O     O_2   0.271206 0.861877 0.422989 -0.207863
O16   O     O_2   0.143048 0.950859 0.485441 -0.204141
O17   O     O_3   0.217123 0.043789 0.402760 -0.562373
O18   O     O_2   0.095889 0.352736 0.391347 -0.281731
O19   O     O_2   0.244831 0.486217 0.371799 -0.255998
O20   O     O_3   0.281118 0.331711 0.424218 -0.527396
O21   O     O_2   0.751055 0.504475 0.627785 -0.282889
O22   O     O_2   0.908430 0.630520 0.611151 -0.279270
O23   O     O_R   0.609310 0.646410 0.496630 -0.626756
O24   O     O_3   0.735236 0.660774 0.570656 -0.482634
O25   O     O_2   0.534041 0.543315 0.836006 -0.337682
O26   O     O_2   0.631158 0.691707 0.791903 -0.208061
O27   O     O_3   0.418996 0.660525 0.790769 -0.489369
O28   O     O_2   0.687770 0.251846 0.216521 -0.225441
O29   O     O_2   0.793481 0.418627 0.201216 -0.286603
O30   O     O_3   0.813154 0.332489 0.285394 -0.462566
O31   O     O_2   0.303512 0.685438 0.334660 -0.215845
O32   O     O_2   0.428594 0.700936 0.401937 -0.315916
O33   O     O_3   0.493111 0.788561 0.317353 -0.513221
O34   O     O_R   0.390690 0.353590 0.503370 -0.578878
O35   O     O_2   0.295774 0.340184 0.601316 -0.342916
O36   O     O_2   0.393697 0.193765 0.622813 -0.252734
O37   O     O_3   0.248293 0.267713 0.690272 -0.543802
O38   O     O_2   0.707028 0.086057 0.565737 -0.246441
O39   O     O_2   0.757558 0.236195 0.512868 -0.223648
O40   O     O_3   0.613631 0.256230 0.590905 -0.543974
O41   O     O_2   0.269377 0.928797 0.569295 -0.269689
O42   O     O_2   0.237965 0.766877 0.517554 -0.206087
O43   O     O_3   0.357115 0.766577 0.592948 -0.533759
O44   O     O_R   0.406200 0.506190 0.574130 -0.604887
O45   O     O_R   0.593800 0.493810 0.425870 -0.634528
O46   O     O_R   0.593820 0.493770 0.568360 -0.527042
O47   O     O_R   0.406180 0.506230 0.431640 -0.501825
O48   O     O_2   0.780186 0.538505 0.755113 -0.475320
S1    S     S_3+6 0.547640 0.691935 0.672336 0.152706
S2    S     S_3+6 0.347939 0.294286 0.642877 0.026351
S3    S     S_3+6 0.664072 0.176729 0.542900 0.112363
S4    S     S_3+6 0.321674 0.833848 0.545480 0.098042
S5    S     S_3+6 0.596596 0.298761 0.354136 0.121594
S6    S     S_3+6 0.767712 0.033374 0.437156 0.112197
S7    S     S_3+6 0.243775 0.965380 0.448054 0.089196
S8    S     S_3+6 0.192016 0.415991 0.412343 0.070949
S9    S     S_3+6 0.812948 0.571156 0.587749 0.078483
S10   S     S_3+6 0.539379 0.606743 0.789550 0.083989
S11   S     S_3+6 0.728515 0.354080 0.241330 0.112221
S12   S     S_3+6 0.421661 0.686485 0.345498 0.084050
Zn1   Zn    Zn3+2 0.374730 0.508290 0.503850 1.141710
Zn2   Zn    Zn3+2 0.625270 0.491710 0.496150 1.107107

loop_
_geom_bond_atom_site_label_1
_geom_bond_atom_site_label_2
_ccdc_geom_bond_type
C65   N6    T    
C13   H7    S    
C34   C56   A    
C23   C45   A    
C27   C29   A    
O31   S12   D    
C19   C71   A    
C26   C55   S    
C3    C49   A    
C24   S7    S    
O10   S5    S    
C1    C21   S    
C15   C72   A    
C62   C67   S    
C35   C58   S    
C40   N1    A    
C49   S1    S    
C24   C26   A    
C32   C61   S    
C5    C11   A    
C4    C48   A    
C38   C39   A    
C11   C14   A    
H14   O27   S    
C63   N4    T    
O19   S8    D    
O46   Zn2   S    
C62   N3    T    
O20   S8    S    
O30   S11   S    
C40   O48   S    
C51   S10   S    
C3    C47   A    
C24   C29   A    
O41   S4    D    
C44   C53   A    
O1    Zn1   S    
C49   C51   A    
C22   C25   A    
H9    O10   S    
C45   C67   A    
O16   S7    D    
C50   C52   A    
C31   C33   A    
C54   N11   S    
C58   N16   T    
C32   C38   A    
O38   S3    D    
C35   N12   A    
O5    S1    D    
C46   C54   A    
C44   C47   A    
N13   Zn2   S    
H4    O37   S    
C2    C34   A    
C18   C69   S    
C21   C27   A    
O21   S9    D    
C33   C59   S    
O44   Zn1   S    
O12   Zn2   S    
C44   C65   S    
C17   O47   A    
C25   C57   S    
O29   S11   D    
C37   N12   A    
O33   S12   S    
C52   C54   A    
C50   S5    S    
C40   C45   A    
C46   C48   A    
O8    S5    D    
O11   S6    D    
C32   C35   A    
C43   N11   A    
C41   O2    S    
C22   S6    S    
O27   S10   S    
C18   C67   A    
O47   Zn1   S    
C8    C18   A    
C4    C50   A    
C33   N13   A    
C31   C60   S    
C55   N14   T    
C70   N10   T    
C41   C56   A    
C5    C9    A    
C29   C30   A    
C61   N2    T    
C28   S3    S    
H13   O24   S    
O39   S3    D    
C13   C15   A    
O9    S5    D    
C2    C43   A    
C56   C71   A    
C12   C20   S    
C42   C72   A    
C14   C66   S    
C53   N1    S    
C43   O3    S    
H11   O17   S    
O43   S4    S    
O7    S1    S    
H6    O43   S    
C66   N7    T    
C4    C17   S    
O15   S7    D    
C63   C71   S    
C7    C19   A    
O34   Zn1   S    
H3    O33   S    
C9    C34   A    
C41   N11   A    
O14   S6    S    
H10   O14   S    
O22   S9    D    
C57   N15   T    
C37   S8    S    
O32   S12   D    
C27   S4    S    
C7    C9    A    
C21   C25   A    
C22   C30   A    
O13   S6    D    
C23   C72   A    
C17   O45   A    
O45   Zn2   S    
C1    O23   A    
C69   N9    T    
C6    C10   A    
C5    C8    A    
C6    C7    A    
C48   S12   S    
C47   S2    S    
C10   C23   A    
H12   O20   S    
C20   C28   A    
O35   S2    D    
C1    O1    A    
C16   O44   A    
C59   N17   T    
O40   S3    S    
C36   C38   A    
H5    O40   S    
C37   C39   A    
O6    S1    D    
C6    C13   A    
O26   S10   D    
C36   S9    S    
C20   C26   A    
O23   Zn2   S    
C15   C68   S    
H2    O30   S    
H8    O7    S    
C28   C30   A    
O24   S9    S    
C31   C39   A    
O25   S10   D    
C36   N13   A    
C12   O34   A    
C2    C14   A    
C11   H1    S    
O28   S11   D    
N12   Zn1   S    
C52   S11   S    
O42   S4    D    
C8    C10   A    
C68   N8    T    
O17   S7    S    
C46   C64   S    
O18   S8    D    
C19   C70   S    
C16   O46   A    
C42   N1    A    
C64   N5    T    
C51   C53   A    
O37   S2    S    
C60   N18   T    
C42   O4    S    
C3    C16   S    
O36   S2    D    
C12   O12   A    
