data_mof_unit_49899.cif
_audit_creation_date              2013-03-05T15:47:21-0500
_audit_creation_method            fapswitch 2.2
_symmetry_space_group_name_H-M    P1
_symmetry_Int_Tables_number       1
_space_group_crystal_system       triclinic
_cell_length_a                    8.322389
_cell_length_b                    19.05711
_cell_length_c                    19.104167
_cell_angle_alpha                 96.380024
_cell_angle_beta                  94.580435
_cell_angle_gamma                 93.603807
_cell_volume                      2993.67260764

loop_
_atom_site_label
_atom_site_type_symbol
_atom_site_description
_atom_site_fract_x
_atom_site_fract_y
_atom_site_fract_z
_atom_type_partial_charge
P1    P     P_3+3 0.954930 0.659850 0.559700 0.486721
O1    O     O_2   0.126770 0.670950 0.539180 -0.335680
O2    O     O_3   0.874330 0.583580 0.538020 -0.397937
O3    O     O_3   0.360240 0.629040 0.412110 -0.340724
O4    O     O_2   0.283571 0.756889 0.475345 -0.402222
O5    O     O_3   0.989139 0.679583 0.651814 -0.576937
O6    O     O_3   0.357905 0.759943 0.344525 -0.619937
H1    H     H_    0.210084 0.671835 0.301181 0.105285
C1    C     C_3   0.238665 0.749521 0.227317 -0.882604
H2    H     H_    0.181961 0.712758 0.181343 0.293566
H3    H     H_    0.147113 0.783092 0.248167 0.245283
P2    P     P_3+3 0.352180 0.446150 0.339620 0.485842
P3    P     P_3+3 0.914360 0.590907 0.282798 0.487369
O7    O     O_2   0.179370 0.467330 0.329490 -0.354912
O8    O     O_3   0.943350 0.594040 0.376060 -0.396954
O9    O     O_2   0.055292 0.551224 0.253132 -0.338849
O10   O     O_3   0.324344 0.353901 0.321699 -0.592483
O11   O     O_3   0.941862 0.675265 0.251260 -0.553906
C2    C     C_3   0.848321 0.727872 0.282939 0.382053
H4    H     H_    0.748630 0.700424 0.304895 0.080422
C3    C     C_3   0.755443 0.769909 0.225951 0.293038
C4    C     C_3   0.807072 0.362879 0.305869 0.094664
H5    H     H_    0.686613 0.381742 0.314981 0.067369
H6    H     H_    0.901614 0.407251 0.316144 0.150360
C5    C     C_3   0.803320 0.327242 0.228820 0.167065
H7    H     H_    0.698083 0.287134 0.220449 0.117892
Ba1   Ba    Ba6+2 0.154050 0.534420 0.467300 1.585399
C6    C     C_3   0.992162 0.620420 0.689211 0.176433
H8    H     H_    0.119882 0.608290 0.698778 0.113556
H9    H     H_    0.921957 0.572613 0.661617 0.131999
C7    C     C_3   0.922674 0.641739 0.759944 -0.118772
H10   H     H_    0.954775 0.698870 0.777614 0.157772
H11   H     H_    0.788761 0.634621 0.752966 0.146165
C8    C     C_3   0.295384 0.323469 0.383243 0.353896
H12   H     H_    0.184486 0.343182 0.404175 0.067050
H13   H     H_    0.397877 0.336736 0.424124 0.136740
C9    C     C_3   0.273661 0.242591 0.366636 -0.493754
H14   H     H_    0.149576 0.226620 0.342446 0.194810
H15   H     H_    0.284982 0.219244 0.417241 0.160824
P4    P     P_3+3 0.855360 0.340140 0.440240 0.459965
O12   O     O_2   0.683530 0.329010 0.460790 -0.379554
O13   O     O_3   0.935970 0.416420 0.461920 -0.383135
O14   O     O_3   0.450050 0.370950 0.587830 -0.363167
O15   O     O_3   0.837946 0.310652 0.349597 -0.614609
P5    P     P_3+3 0.884819 0.400721 0.714732 0.484325
O16   O     O_3   0.375780 0.535040 0.584090 -0.392768
O17   O     O_3   0.866950 0.405950 0.623880 -0.383114
O18   O     O_2   0.747101 0.441404 0.746228 -0.337123
O19   O     O_3   0.840299 0.312055 0.727776 -0.550885
Ba2   Ba    Ba6+2 0.656120 0.465570 0.532650 1.572243
P6    P     P_3+3 0.397379 0.722214 0.423561 0.463022
C10   C     C_3   0.304386 0.709113 0.286470 0.813092
H16   H     H_    0.336578 0.784170 0.209808 0.249925
O20   O     O_3   0.434510 0.464950 0.415850 -0.397476
C11   C     C_3   0.522501 0.679500 0.642627 0.408475
H17   H     H_    0.644107 0.662393 0.631938 0.074492
H18   H     H_    0.438527 0.668534 0.593831 0.129980
C12   C     C_3   0.537261 0.758980 0.664497 -0.929672
H19   H     H_    0.623718 0.771977 0.712244 0.258398
H20   H     H_    0.581723 0.786922 0.621074 0.227718
H21   H     H_    0.417367 0.777542 0.676275 0.273798
P7    P     P_3+3 0.451000 0.553797 0.673039 0.454583
O21   O     O_2   0.630930 0.532620 0.670490 -0.381823
O22   O     O_3   0.462937 0.645367 0.697625 -0.556505
H22   H     H_    0.642017 0.782140 0.250756 0.022302
C13   C     C_3   0.910559 0.268421 0.675977 0.342328
H23   H     H_    0.842814 0.268876 0.623643 0.165300
H24   H     H_    0.037110 0.288691 0.671816 -0.056732
C14   C     C_3   0.916680 0.192482 0.696516 -0.173323
H25   H     H_    0.029097 0.170078 0.679585 0.084218
H26   H     H_    0.921921 0.194096 0.754954 0.131239
P8    P     P_3+3 0.419330 0.278909 0.584216 0.475576
C15   C     C_3   0.397270 0.272998 0.717093 0.368682
H27   H     H_    0.276482 0.244934 0.703432 0.018850
O23   O     O_2   0.531243 0.247695 0.529944 -0.370044
O24   O     O_3   0.500308 0.254083 0.664454 -0.478035
H28   H     H_    0.384816 0.331168 0.722181 0.038284
C16   C     C_3   0.468956 0.252949 0.788755 0.007549
H29   H     H_    0.591506 0.280940 0.798284 0.160513
N1    N     N_R   0.798967 0.044486 0.487729 -0.050198
N2    N     N_R   0.749416 0.976769 0.487737 -0.071677
C17   C     C_2   0.696630 0.706172 0.496633 -0.478824
C18   C     C_3   0.611408 0.751799 0.449993 0.280763
C19   C     C_2   0.647722 0.830016 0.473006 -0.254751
C20   C     C_2   0.791859 0.853205 0.509443 0.014408
C21   C     C_2   0.895937 0.797764 0.535764 -0.244292
C22   C     C_1   0.840924 0.729448 0.526691 0.298262
N3    N     N_R   0.997771 0.956569 0.545429 -0.067403
N4    N     N_R   0.047384 0.024949 0.545080 -0.075892
C23   C     C_R   0.949627 0.070776 0.515011 0.223190
C24   C     C_R   0.847263 0.930769 0.516186 0.176653
C25   C     C_R   0.911091 0.197492 0.477187 0.105965
C26   C     C_R   0.961130 0.271950 0.487456 0.255670
C27   C     C_R   0.208590 0.246582 0.553267 0.195369
C28   C     C_R   0.156456 0.174609 0.548116 -0.352149
C29   C     C_R   0.004397 0.148574 0.513366 0.023058
C30   C     C_R   0.106393 0.294739 0.527410 -0.527599
H30   H     H_    0.568513 0.866597 0.450854 0.165738
H31   H     H_    0.014897 0.813477 0.562474 0.170170
H32   H     H_    0.236395 0.138832 0.570724 0.171525
H33   H     H_    0.646892 0.652299 0.497966 0.167069
H34   H     H_    0.147520 0.350241 0.532948 0.174686
C31   C     C_R   0.629664 0.510901 0.295394 -0.413199
C32   C     C_R   0.472187 0.483171 0.274164 0.334323
C33   C     C_R   0.414223 0.477752 0.202658 -0.203134
C34   C     C_R   0.511875 0.503051 0.152280 0.109413
C35   C     C_R   0.667595 0.535168 0.175949 -0.052583
C36   C     C_R   0.724573 0.540093 0.247567 0.314652
C37   C     C_R   0.492327 0.551013 0.034055 -0.102696
C38   C     C_R   0.437929 0.545185 0.962253 -0.081351
C39   C     C_R   0.339747 0.485657 0.929841 0.147552
C40   C     C_R   0.293206 0.433572 0.972502 -0.196863
C41   C     C_R   0.348549 0.439109 0.044203 -0.073654
C42   C     C_R   0.450247 0.497658 0.075976 0.142702
C43   C     C_R   0.136242 0.443716 0.824793 -0.168442
C44   C     C_R   0.087103 0.439157 0.752296 0.243263
C45   C     C_R   0.338549 0.502794 0.732460 0.312783
C46   C     C_R   0.388831 0.506755 0.804585 -0.203681
C47   C     C_R   0.288164 0.477827 0.852098 0.053366
C48   C     C_R   0.190277 0.467440 0.706586 -0.503449
H35   H     H_    0.505109 0.533721 0.823354 0.158150
H36   H     H_    0.471639 0.588107 0.932511 0.156421
H37   H     H_    0.566059 0.597952 0.056791 0.202550
H38   H     H_    0.292815 0.454658 0.186842 0.156093
H39   H     H_    0.216544 0.387492 0.950426 0.128998
H40   H     H_    0.314064 0.396546 0.074310 0.131952
H41   H     H_    0.053551 0.423048 0.859674 0.147801
H42   H     H_    0.745232 0.555576 0.139064 0.165377
H43   H     H_    0.151299 0.465560 0.650967 0.166739
H44   H     H_    0.674695 0.513983 0.350489 0.166537
N5    N     N_R   0.781905 0.378615 0.178210 0.217807
O25   O     O_R   0.662067 0.367553 0.129287 -0.447583
O26   O     O_R   0.900398 0.424522 0.171156 -0.419353
C49   C     C_3   0.956870 0.287943 0.215357 -0.290330
C50   C     C_3   0.950782 0.250841 0.139863 -0.858902
H45   H     H_    0.841222 0.213689 0.128184 0.254049
H46   H     H_    0.950106 0.290015 0.100976 0.296057
H47   H     H_    0.058971 0.220254 0.133825 0.239072
H48   H     H_    0.065788 0.325651 0.225723 0.232198
H49   H     H_    0.969036 0.246683 0.251493 0.189779
N6    N     N_R   0.984769 0.601177 0.815081 0.244695
O27   O     O_R   0.885351 0.561921 0.846010 -0.375718
O28   O     O_R   0.131886 0.616084 0.843549 -0.395148
C51   C     C_3   0.400122 0.211598 0.319588 -0.166992
C52   C     C_3   0.340637 0.201409 0.241173 -0.872188
H50   H     H_    0.228631 0.165562 0.231977 0.249689
H51   H     H_    0.316879 0.252894 0.221935 0.286714
H52   H     H_    0.434733 0.177226 0.210264 0.236450
H53   H     H_    0.513660 0.246380 0.326880 0.212120
H54   H     H_    0.428514 0.159055 0.335422 0.174998
N7    N     N_R   0.433966 0.668003 0.261526 0.191136
O29   O     O_R   0.428029 0.642411 0.194785 -0.418778
O30   O     O_R   0.517563 0.636878 0.306994 -0.506937
N8    N     N_R   0.780145 0.143876 0.665197 0.267272
O31   O     O_R   0.701508 0.153759 0.605837 -0.376673
O32   O     O_R   0.762684 0.081989 0.687556 -0.400602
C53   C     C_3   0.378232 0.283549 0.851435 -0.415622
C54   C     C_3   0.200334 0.257146 0.847704 -0.895567
H55   H     H_    0.131547 0.279095 0.804186 0.246591
H56   H     H_    0.185364 0.198614 0.840724 0.271333
H57   H     H_    0.148843 0.275333 0.897738 0.251475
H58   H     H_    0.440024 0.271020 0.901839 0.217556
H59   H     H_    0.386518 0.342021 0.853669 0.195168
C55   C     C_3   0.944596 0.767333 0.351025 -0.352506
C56   C     C_3   0.973667 0.848049 0.360879 -0.920790
H60   H     H_    0.046280 0.867415 0.319992 0.269508
H61   H     H_    0.856603 0.873282 0.363488 0.244927
H62   H     H_    0.046353 0.864436 0.412242 0.278935
H63   H     H_    0.883426 0.752660 0.396808 0.169747
H64   H     H_    0.062449 0.744744 0.359974 0.245056
C57   C     C_3   0.495334 0.172892 0.790539 -0.239337
C58   C     C_3   0.382430 0.120712 0.739297 -0.747908
H65   H     H_    0.253945 0.128168 0.746861 0.220618
H66   H     H_    0.404772 0.126399 0.683688 0.281901
H67   H     H_    0.406450 0.065778 0.748914 0.250196
H68   H     H_    0.621167 0.164033 0.778813 0.215743
H69   H     H_    0.486035 0.158268 0.844881 0.178902
C59   C     C_3   0.766756 0.170519 0.424810 -0.251460
C60   C     C_3   0.817815 0.127676 0.358637 -0.974957
H70   H     H_    0.886970 0.163026 0.327599 0.266318
H71   H     H_    0.894587 0.084517 0.371713 0.267155
H72   H     H_    0.708549 0.103968 0.325046 0.256571
H73   H     H_    0.673006 0.141144 0.450172 0.214321
H74   H     H_    0.699985 0.213197 0.405836 0.221196
C61   C     C_3   0.814367 0.844281 0.206641 -0.394193
C62   C     C_3   0.960445 0.848410 0.162791 -0.743796
H75   H     H_    0.067539 0.874949 0.196089 0.223394
H76   H     H_    0.989161 0.795727 0.137964 0.301357
H77   H     H_    0.935614 0.882021 0.119435 0.240983
H78   H     H_    0.711812 0.861923 0.173387 0.212464
H79   H     H_    0.826869 0.886365 0.251618 0.175935
N9    N     N_R   0.704960 0.724207 0.159493 0.267433
O33   O     O_R   0.573477 0.736919 0.122798 -0.379246
O34   O     O_R   0.808893 0.687141 0.127178 -0.384389

loop_
_geom_bond_atom_site_label_1
_geom_bond_atom_site_label_2
_geom_bond_distance
_ccdc_geom_bond_type
P1    C22   1.818125 S    
C50   H47   1.109684 S    
C13   H24   1.110778 S    
C57   C58   1.532759 S    
C56   H60   1.105883 S    
C9    C51   1.541302 S    
P6    C18   1.847296 S    
C8    C9    1.534955 S    
C15   H27   1.106414 S    
C55   H64   1.104174 S    
C2    H4    1.089808 S    
P5    C44   1.849554 S    
P4    C26   1.885399 S    
P8    O24   1.750421 S    
O3    Ba1   2.762300 S    
C52   H50   1.110675 S    
C20   C24   1.508853 S    
Ba1   O20   2.938115 S    
C50   H45   1.110708 S    
C20   C21   1.510946 S    
Ba2   O20   2.777550 S    
P3    O11   1.786316 S    
C34   C42   1.496412 S    
C18   C19   1.510947 S    
C55   C56   1.530255 S    
C2    C3    1.600565 S    
C39   C40   1.407601 A    
C35   H42   1.080425 S    
P2    C32   1.834649 S    
N6    O28   1.300430 A    
C49   H49   1.106623 S    
C8    H12   1.105435 S    
C13   C14   1.543750 S    
C34   C35   1.415548 A    
C12   H20   1.109524 S    
C43   C44   1.404044 A    
C25   C29   1.448542 A    
C43   H41   1.081805 S    
C39   C47   1.501080 S    
P1    O1    1.521054 D    
C14   H26   1.110683 S    
C38   C39   1.408746 A    
C40   C41   1.400220 A    
P7    C45   1.846538 S    
P7    O22   1.750519 S    
C54   H57   1.108102 S    
C46   C47   1.415746 A    
C53   C54   1.527014 S    
O5    C6    1.400718 S    
P7    O21   1.578239 D    
C28   C29   1.414938 A    
C16   C57   1.558651 S    
C4    C5    1.548123 S    
P2    O10   1.750373 S    
C51   H54   1.111593 S    
C35   C36   1.402822 A    
C7    H11   1.109715 S    
O1    Ba1   2.834954 S    
O7    Ba1   2.825739 S    
C1    H2    1.113751 S    
H1    C10   1.099594 S    
N8    O32   1.301860 A    
C30   H34   1.082086 S    
Ba1   Ba2   4.578153 S    
C60   H72   1.110663 S    
P8    C27   1.850060 S    
C12   H21   1.110810 S    
P4    O13   1.560127 S    
C13   H23   1.109070 S    
N7    O29   1.309467 A    
C56   H61   1.115440 S    
C54   H56   1.106493 S    
Ba2   O21   2.825785 S    
C55   H63   1.099984 S    
C14   H25   1.109090 S    
C1    C10   1.522112 S    
P3    C36   1.838094 S    
C32   C33   1.402371 A    
C52   H51   1.108939 S    
O2    Ba2   2.787776 S    
C58   H66   1.108845 S    
C61   H79   1.102006 S    
O17   Ba2   2.758527 S    
O2    Ba1   2.935559 S    
P5    O17   1.744602 S    
C4    O15   1.391809 S    
O19   C13   1.408292 S    
P2    Ba1   3.402587 S    
C48   H43   1.081935 S    
C59   C60   1.531462 S    
C61   H78   1.114464 S    
C19   C20   1.360307 D    
C45   C48   1.394638 A    
N4    C23   1.371399 A    
C49   H48   1.111342 S    
C28   H32   1.081936 S    
C37   H37   1.080488 S    
C3    N9    1.473113 S    
C41   H40   1.082546 S    
O3    P6    1.769210 S    
C27   C30   1.393349 A    
C5    H7    1.114978 S    
C44   C48   1.398762 A    
C33   H38   1.082442 S    
P1    O2    1.559931 S    
C46   H35   1.081771 S    
N9    O34   1.301322 A    
C7    N6    1.455452 S    
C9    H14   1.107091 S    
C5    C49   1.545985 S    
C16   C53   1.545512 S    
O8    Ba1   2.757986 S    
C7    H10   1.112691 S    
N3    C24   1.368425 A    
P5    O19   1.756176 S    
C15   C16   1.546184 S    
C11   O22   1.402624 S    
C11   H17   1.109921 S    
C40   H39   1.077193 S    
C3    C61   1.563032 S    
C21   H31   1.085492 S    
C1    H3    1.096181 S    
N8    O31   1.301609 A    
C31   C36   1.393281 A    
C25   C59   1.524617 S    
C37   C42   1.406716 A    
O13   Ba2   2.936513 S    
Ba1   O16   2.778005 S    
P4    O12   1.521238 D    
O16   P7    1.753356 S    
C56   H62   1.113388 S    
C43   C47   1.417476 A    
P3    O8    1.772586 S    
C54   H55   1.106921 S    
C15   O24   1.404480 S    
C4    H6    1.107913 S    
P3    O9    1.546340 D    
C1    H16   1.112158 S    
O10   C8    1.398590 S    
C62   H76   1.110190 S    
N5    O25   1.301369 A    
C5    N5    1.459396 S    
C26   C30   1.394877 A    
O12   Ba2   2.835492 S    
C52   H52   1.110435 S    
C58   H65   1.106207 S    
C41   C42   1.406579 A    
C57   H68   1.107559 S    
P5    O18   1.547565 D    
C50   H46   1.110141 S    
O14   P8    1.749479 S    
C53   H59   1.107954 S    
C6    H8    1.107215 S    
P1    O5    1.754610 S    
C51   H53   1.109651 S    
C3    H22   1.115588 S    
C21   C22   1.340470 D    
C6    C7    1.535527 S    
C57   H69   1.111676 S    
C59   H73   1.105723 S    
P2    O7    1.521397 D    
N1    N2    1.329871 A    
N5    O26   1.301922 A    
O6    C10   1.412413 S    
C58   H67   1.110336 S    
O14   Ba2   2.761593 S    
C23   C29   1.527930 S    
C49   C50   1.529630 S    
C33   C34   1.413497 A    
O16   Ba2   2.937200 S    
C45   C46   1.400082 A    
C14   N8    1.463939 S    
C51   C52   1.527019 S    
C19   H30   1.085557 S    
N9    O33   1.302323 A    
C62   H77   1.116355 S    
C11   H18   1.111492 S    
C12   H19   1.110713 S    
O6    P6    1.759686 S    
C9    H15   1.108044 S    
N6    O27   1.300725 A    
C38   H36   1.081908 S    
C16   H29   1.112778 S    
Ba1   O13   2.786964 S    
P8    O23   1.543741 D    
C61   C62   1.533360 S    
C10   N7    1.452293 S    
P4    Ba2   3.407025 S    
C6    H9    1.107449 S    
C25   C26   1.440883 A    
C17   H33   1.086333 S    
C8    H13   1.106375 S    
C2    C55   1.561985 S    
N7    O30   1.288504 A    
N1    C23   1.361410 A    
C27   C28   1.402713 A    
C31   H44   1.082689 S    
C59   H74   1.091715 S    
C60   H70   1.109604 S    
N2    C24   1.360847 A    
P4    O15   1.751816 S    
N3    N4    1.342907 A    
C17   C18   1.483835 S    
C11   C12   1.520395 S    
C31   C32   1.393478 A    
P1    Ba1   3.406361 S    
O11   C2    1.419810 S    
C15   H28   1.114097 S    
C4    H5    1.106265 S    
O4    P6    1.547742 D    
C62   H75   1.111796 S    
C37   C38   1.399848 A    
C53   H58   1.111823 S    
P2    O20   1.553217 S    
C17   C22   1.317143 D    
C60   H71   1.110550 S    
