data_mof_unit_67561.cif
_audit_creation_date              2013-03-05T15:41:21-0500
_audit_creation_method            fapswitch 2.2
_symmetry_space_group_name_H-M    P1
_symmetry_Int_Tables_number       1
_space_group_crystal_system       triclinic
_cell_length_a                    10.707621
_cell_length_b                    8.69394
_cell_length_c                    7.589675
_cell_angle_alpha                 102.091624
_cell_angle_beta                  94.198886
_cell_angle_gamma                 94.452584
_cell_volume                      685.865628831

loop_
_atom_site_label
_atom_site_type_symbol
_atom_site_description
_atom_site_fract_x
_atom_site_fract_y
_atom_site_fract_z
_atom_type_partial_charge
O1    O     O_R   0.509190 0.286130 0.619780 -0.562349
O2    O     O_R   0.490810 0.713870 0.380220 -0.562349
O3    O     O_R   0.485310 0.256770 0.308360 -0.550834
O4    O     O_R   0.514690 0.743230 0.691640 -0.550834
C1    C     C_R   0.494057 0.200923 0.455448 0.841307
C2    C     C_R   0.505942 0.799077 0.544552 0.841307
O5    O     O_R   0.328790 0.514640 0.655680 -0.572847
O6    O     O_R   0.671210 0.485360 0.344320 -0.572847
O7    O     O_R   0.304910 0.485280 0.344260 -0.573369
O8    O     O_R   0.695090 0.514720 0.655740 -0.573369
C3    C     C_R   0.259626 0.490028 0.500573 0.818605
C4    C     C_R   0.740374 0.509971 0.499427 0.818605
Cu1   Cu    Cu3+1 0.514140 0.517380 0.684380 1.074065
Cu2   Cu    Cu3+1 0.485860 0.482620 0.315620 1.074065
N1    N     N_2   0.464560 0.456420 0.038510 0.008764
N2    N     N_2   0.535440 0.543580 0.961490 0.008764
C5    C     C_3   0.028878 0.387891 0.591417 0.197458
C6    C     C_3   0.971121 0.612108 0.408583 0.197455
C7    C     C_3   0.936622 0.362660 0.418683 -0.221169
C8    C     C_3   0.063378 0.637339 0.581315 -0.221175
H1    H     H_    0.882631 0.249389 0.348251 0.202107
H2    H     H_    0.117368 0.750612 0.651743 0.202108
C9    C     C_3   0.877924 0.515084 0.497830 -0.100670
C10   C     C_3   0.122076 0.484916 0.502169 -0.100667
C11   C     C_3   0.968870 0.540214 0.668374 0.101892
C12   C     C_3   0.031129 0.459786 0.331625 0.101892
C13   C     C_2   0.471214 0.034542 0.438751 -0.041184
C14   C     C_2   0.528785 0.965458 0.561249 -0.041184
I1    I     I_    0.038828 0.179219 0.693425 -0.318698
I2    I     I_    0.961178 0.820788 0.306585 -0.318698
C15   C     C_3   0.938024 0.606985 0.858860 -0.701322
H3    H     H_    0.026480 0.635991 0.948470 0.244744
H4    H     H_    0.892694 0.717873 0.861248 0.267170
H5    H     H_    0.872860 0.521671 0.905190 0.255500
C16   C     C_3   0.061977 0.393025 0.141137 -0.701325
H6    H     H_    0.973522 0.364024 0.051526 0.244743
H7    H     H_    0.127138 0.478343 0.094814 0.255499
H8    H     H_    0.107307 0.282136 0.138738 0.267173
I3    I     I_    0.353323 0.255312 0.906744 -0.135330
I4    I     I_    0.646682 0.744684 0.093259 -0.135334
I5    I     I_    0.319605 0.924673 0.240635 -0.233834
I6    I     I_    0.680395 0.075327 0.759362 -0.233834

loop_
_geom_bond_atom_site_label_1
_geom_bond_atom_site_label_2
_geom_bond_distance
_ccdc_geom_bond_type
C11   C15   1.511390 S    
C7    C9    1.537220 S    
O7    Cu2   1.966821 S    
C15   H4    1.109925 S    
C7    H1    1.111553 S    
C6    I2    2.123311 S    
C5    I1    2.123293 S    
C13   I5    2.146796 S    
C15   H3    1.104529 S    
C6    C12   1.539723 S    
O6    C4    1.312356 A    
C5    C11   1.539725 S    
O3    C1    1.307512 A    
C15   H5    1.107008 S    
Cu1   Cu2   2.742894 S    
O5    C3    1.312357 A    
O7    C3    1.308092 A    
C4    C9    1.471058 S    
N1    I3    2.060448 S    
O2    C2    1.302030 A    
O3    Cu2   1.952264 S    
O8    C4    1.308093 A    
N2    I4    2.060457 S    
O1    C1    1.302030 A    
C14   I6    2.146787 S    
C16   H7    1.107000 S    
C10   C12   1.528192 S    
C6    C8    1.548824 S    
C9    C11   1.528192 S    
C3    C10   1.471061 S    
O2    Cu2   1.962622 S    
C5    C10   1.540736 S    
O1    Cu1   1.962620 S    
C8    C11   1.540331 S    
C6    C9    1.540734 S    
C8    C10   1.537214 S    
C12   C16   1.511390 S    
O5    Cu1   1.978397 S    
C16   H8    1.109922 S    
O4    C2    1.307511 A    
Cu1   N2    2.061124 S    
O4    Cu1   1.952265 S    
C7    C12   1.540333 S    
Cu2   N1    2.061124 S    
O6    Cu2   1.978399 S    
C5    C7    1.548829 S    
C1    C13   1.425479 S    
O8    Cu1   1.966821 S    
C2    C14   1.425479 S    
N1    N2    1.285759 D    
C8    H2    1.111555 S    
C13   C14   1.346331 D    
C16   H6    1.104514 S    
