data_mof_unit_19408.cif
_audit_creation_date              2012-12-10T19:47:17-0500
_audit_creation_method            fapswitch 2.2
_symmetry_space_group_name_H-M    P1
_symmetry_Int_Tables_number       1
_space_group_crystal_system       triclinic
_cell_length_a                    15.099521
_cell_length_b                    14.108123
_cell_length_c                    10.709165
_cell_angle_alpha                 89.811913
_cell_angle_beta                  89.849171
_cell_angle_gamma                 90.00084
_cell_volume                      2281.30930969

loop_
_atom_site_label
_atom_site_type_symbol
_atom_type_description
_atom_site_fract_x
_atom_site_fract_y
_atom_site_fract_z
_atom_type_partial_charge
C1    C     C_R   0.327377 0.500006 0.494016 0.996804
C2    C     C_R   0.672628 0.499983 0.505929 0.998479
C3    C     C_R   0.230820 0.499036 0.483797 -0.346163
C4    C     C_R   0.769204 0.499001 0.515857 -0.346528
C5    C     C_R   0.184784 0.419356 0.532047 0.446929
C6    C     C_R   0.815175 0.419504 0.467645 0.446746
C7    C     C_R   0.093553 0.424389 0.543370 -0.421993
C8    C     C_R   0.906380 0.424607 0.455952 -0.421542
C9    C     C_R   0.047474 0.499837 0.492395 -0.044720
C10   C     C_R   0.952538 0.499878 0.506579 -0.044266
C11   C     C_R   0.526298 0.105395 0.393817 -0.241103
C12   C     C_R   0.473577 0.104930 0.606278 -0.242370
C13   C     C_R   0.524833 0.204767 0.395251 -0.022996
C14   C     C_R   0.475184 0.204315 0.604809 -0.025514
C15   C     C_R   0.499860 0.053559 0.500032 0.213342
C16   C     C_R   0.533602 0.894995 0.602567 0.301149
C17   C     C_R   0.465816 0.895526 0.397576 0.303980
C18   C     C_R   0.530946 0.795227 0.601089 -0.033450
C19   C     C_R   0.468731 0.795673 0.399089 -0.041275
C20   C     C_R   0.499782 0.946876 0.500028 -0.084631
C21   C     C_R   0.508028 0.500781 0.259821 0.894079
C22   C     C_R   0.491151 0.500404 0.739884 0.893519
C23   C     C_R   0.538481 0.679234 0.111245 -0.150570
C24   C     C_R   0.449358 0.675946 0.885277 -0.154578
C25   C     C_R   0.515774 0.764177 0.052563 -0.121018
C26   C     C_R   0.467248 0.762418 0.942566 -0.115820
C27   C     C_R   0.480199 0.589784 0.938165 0.124086
C28   C     C_R   0.512136 0.590980 0.060223 0.129267
C29   C     C_R   0.514714 0.503570 0.126047 -0.118898
C30   C     C_R   0.482891 0.502413 0.873372 -0.118159
C31   C     C_R   0.507321 0.417356 0.063301 -0.206006
C32   C     C_R   0.494627 0.416866 0.936992 -0.204966
C33   C     C_R   0.090470 0.572025 0.426071 0.431973
C34   C     C_R   0.909647 0.571860 0.572818 0.431774
C35   C     C_R   0.183339 0.574912 0.425462 0.237693
C36   C     C_R   0.816772 0.574725 0.573746 0.237425
H1    H     H_    0.511209 0.349887 0.111621 0.165641
H2    H     H_    0.494759 0.349254 0.889270 0.165736
H3    H     H_    0.555138 0.755887 0.680609 0.202552
H4    H     H_    0.444532 0.756550 0.319810 0.198728
H5    H     H_    0.578089 0.683818 0.194907 0.153365
H6    H     H_    0.410551 0.677459 0.800582 0.153182
H7    H     H_    0.534018 0.831242 0.094071 0.162392
H8    H     H_    0.445714 0.828045 0.899656 0.157326
H9    H     H_    0.057767 0.369075 0.592551 0.169914
H10   H     H_    0.942086 0.369449 0.406832 0.169934
H11   H     H_    0.549582 0.069650 0.310731 0.181967
H12   H     H_    0.450311 0.068818 0.689412 0.182087
H13   H     H_    0.545677 0.243654 0.313189 0.144075
H14   H     H_    0.454463 0.242876 0.686877 0.144445
N1    N     N_R   0.500000 0.252470 0.500000 -0.088802
N2    N     N_R   0.500000 0.747550 0.500000 -0.123791
O1    O     O_R   0.369060 0.579480 0.500010 -0.548806
O2    O     O_R   0.630940 0.579480 0.499990 -0.547312
O3    O     O_R   0.369050 0.420520 0.500010 -0.578701
O4    O     O_R   0.630950 0.420520 0.499990 -0.578721
O5    O     O_R   0.500000 0.579490 0.316770 -0.622909
O6    O     O_R   0.500000 0.579490 0.683230 -0.621559
O7    O     O_R   0.499990 0.420540 0.316770 -0.641336
O8    O     O_R   0.500010 0.420540 0.683230 -0.642037
Zn1   Zn    Zn3+2 0.500000 0.606140 0.500000 1.036781
Zn2   Zn    Zn3+2 0.500000 0.393860 0.500000 0.981066
O9    O     O_3   0.566424 0.941776 0.705804 -0.638419
C37   C     C_3   0.659682 0.935343 0.705694 0.165631
H15   H     H_    0.688463 0.950535 0.611583 0.147969
H16   H     H_    0.680567 0.863615 0.737175 0.225085
C38   C     C_3   0.696778 0.007840 0.796310 -0.839090
H17   H     H_    0.670825 0.994092 0.891818 0.260551
H18   H     H_    0.770176 0.003075 0.797878 0.220631
H19   H     H_    0.677329 0.080422 0.766575 0.252852
O10   O     O_3   0.433249 0.943122 0.294302 -0.641983
C39   C     C_3   0.340581 0.931072 0.288221 0.167551
H20   H     H_    0.308283 0.941647 0.381033 0.155649
H21   H     H_    0.324483 0.859283 0.252353 0.221454
C40   C     C_3   0.302453 0.003972 0.198405 -0.840613
H22   H     H_    0.332001 0.994741 0.104123 0.258683
H23   H     H_    0.229562 0.994851 0.191942 0.223111
H24   H     H_    0.317029 0.076643 0.232343 0.253223
O11   O     O_3   0.041237 0.642921 0.369598 -0.537842
C41   C     C_3   0.012071 0.610335 0.251838 0.132038
H25   H     H_    0.969014 0.546735 0.261117 0.124228
H26   H     H_    0.069337 0.592485 0.190426 0.155963
C42   C     C_3   0.958250 0.687889 0.188697 -0.758124
H27   H     H_    0.999541 0.752294 0.175436 0.276956
H28   H     H_    0.935134 0.663087 0.096004 0.199104
H29   H     H_    0.899733 0.705901 0.247068 0.247802
O12   O     O_3   0.958970 0.642587 0.628893 -0.537984
C43   C     C_3   0.988330 0.609665 0.746681 0.132347
H30   H     H_    0.031258 0.546006 0.737538 0.124043
H31   H     H_    0.931159 0.591774 0.808401 0.156216
C44   C     C_3   0.042415 0.686970 0.809241 -0.759506
H32   H     H_    0.001265 0.751428 0.822359 0.277185
H33   H     H_    0.065672 0.661913 0.901960 0.198824
H34   H     H_    0.100850 0.704996 0.750552 0.247331
S1    S     S_3+6 0.237604 0.672438 0.350757 0.007516
O13   O     O_2   0.311994 0.636336 0.270483 -0.308418
O14   O     O_2   0.176686 0.729880 0.269657 -0.296380
O15   O     O_3   0.278602 0.744013 0.461697 -0.582498
H35   H     H_    0.226260 0.765330 0.509957 0.352040
S2    S     S_3+6 0.762624 0.672008 0.648358 0.009038
O16   O     O_2   0.688383 0.635640 0.729019 -0.306252
O17   O     O_2   0.823688 0.729186 0.729068 -0.296088
O18   O     O_3   0.721390 0.743957 0.537381 -0.581852
H36   H     H_    0.773705 0.766102 0.489518 0.352331
O19   O     O_3   0.230148 0.340251 0.576542 -0.578697
C45   C     C_3   0.193085 0.255651 0.527869 0.116941
H37   H     H_    0.168707 0.264598 0.430167 0.127731
H38   H     H_    0.137641 0.231441 0.588552 0.135602
C46   C     C_3   0.262647 0.178006 0.526197 -0.806163
H39   H     H_    0.288208 0.165995 0.622035 0.250768
H40   H     H_    0.233041 0.111012 0.491613 0.200540
H41   H     H_    0.317689 0.198551 0.462797 0.266255
O20   O     O_3   0.769771 0.340511 0.423575 -0.578648
C47   C     C_3   0.806842 0.255812 0.472659 0.118124
H42   H     H_    0.831160 0.264537 0.570351 0.127560
H43   H     H_    0.862333 0.231774 0.412149 0.135513
C48   C     C_3   0.737321 0.178118 0.474586 -0.808611
H44   H     H_    0.711812 0.166329 0.378775 0.250903
H45   H     H_    0.766971 0.111067 0.509467 0.200062
H46   H     H_    0.682232 0.198447 0.537851 0.265921

loop_
_geom_bond_atom_site_label_1
_geom_bond_atom_site_label_2
_ccdc_geom_bond_type
O12   C43   S    
C4    C36   A    
C24   H6    S    
C11   H11   S    
S1    O13   D    
C24   C27   A    
C12   H12   S    
C25   H7    S    
C47   H42   S    
S1    O15   S    
C18   N2    A    
C5    O19   S    
C7    H9    S    
C28   C29   A    
C24   C26   A    
C21   O7    A    
N2    Zn1   S    
C48   H45   S    
C22   O8    A    
C41   H25   S    
C45   H37   S    
O3    Zn2   S    
C17   C20   A    
O8    Zn2   S    
C18   H3    S    
C1    O1    A    
C33   C35   A    
C13   N1    A    
O1    Zn1   S    
C19   N2    A    
C42   H27   S    
C43   C44   S    
C16   O9    S    
C32   H2    S    
C9    C10   S    
O6    Zn1   S    
C27   C30   A    
C9    C33   A    
N1    Zn2   S    
C11   C15   A    
C41   C42   S    
C15   C20   S    
C26   H8    S    
C38   H17   S    
C37   C38   S    
O11   C41   S    
C39   H21   S    
C2    O2    A    
C46   H41   S    
C44   H32   S    
C5    C7    A    
C33   O11   S    
C6    C8    A    
C25   C26   A    
C21   C29   S    
S2    O18   S    
C31   H1    S    
C1    C3    S    
C37   H16   S    
C2    C4    S    
C40   H22   S    
C6    O20   S    
C21   O5    A    
C44   H33   S    
C14   N1    A    
C12   C15   A    
C3    C35   A    
C16   C20   A    
S2    O17   D    
C10   C34   A    
C16   C18   A    
C23   C28   A    
C40   H23   S    
C13   H13   S    
C4    C6    A    
C42   H28   S    
C43   H31   S    
C17   O10   S    
O4    Zn2   S    
C48   H46   S    
O18   H36   S    
O20   C47   S    
C7    C9    A    
S1    O14   D    
O7    Zn2   S    
C22   C30   S    
C31   C32   A    
C12   C14   A    
C39   H20   S    
C3    C5    A    
C22   O6    A    
C47   H43   S    
C36   S2    S    
O5    Zn1   S    
O2    Zn1   S    
C35   S1    S    
O19   C45   S    
C23   H5    S    
C38   H19   S    
C37   H15   S    
C46   H40   S    
C1    O3    A    
O10   C39   S    
C29   C31   A    
C2    O4    A    
C46   H39   S    
C44   H34   S    
C30   C32   A    
C11   C13   A    
C39   C40   S    
C14   H14   S    
C45   H38   S    
S2    O16   D    
C17   C19   A    
C41   H26   S    
C34   C36   A    
C34   O12   S    
C23   C25   A    
C40   H24   S    
C8    H10   S    
C47   C48   S    
C19   H4    S    
O9    C37   S    
C42   H29   S    
C43   H30   S    
C8    C10   A    
O15   H35   S    
C27   C28   A    
C38   H18   S    
C48   H44   S    
C45   C46   S    
