data_mof_unit_57358.cif
_audit_creation_date              2012-12-10T17:27:48-0500
_audit_creation_method            fapswitch 2.2
_symmetry_space_group_name_H-M    P1
_symmetry_Int_Tables_number       1
_space_group_crystal_system       triclinic
_cell_length_a                    10.651658
_cell_length_b                    11.986047
_cell_length_c                    12.883851
_cell_angle_alpha                 93.427071
_cell_angle_beta                  89.726449
_cell_angle_gamma                 84.852521
_cell_volume                      1635.24915472

loop_
_atom_site_label
_atom_site_type_symbol
_atom_type_description
_atom_site_fract_x
_atom_site_fract_y
_atom_site_fract_z
_atom_type_partial_charge
C1    C     C_R   0.499357 0.522053 0.700493 0.930357
C2    C     C_R   0.515180 0.640040 0.862027 -0.142736
C3    C     C_R   0.489054 0.441021 0.867827 -0.238068
C4    C     C_R   0.739568 0.498199 0.497020 0.943765
C5    C     C_R   0.495680 0.449157 0.974323 0.139563
C6    C     C_R   0.512556 0.554152 0.026117 0.101453
C7    C     C_R   0.519065 0.560222 0.133092 -0.221631
C8    C     C_R   0.490670 0.361181 0.136734 -0.114790
C9    C     C_R   0.485885 0.353225 0.029441 -0.142144
C10   C     C_R   0.388127 0.956541 0.399291 -0.281387
C11   C     C_R   0.398239 0.839975 0.409329 0.065031
C12   C     C_R   0.928291 0.512421 0.599689 -0.064792
C13   C     C_R   0.547388 0.857154 0.544041 -0.011825
C14   C     C_R   0.540396 0.974874 0.536747 0.081546
C15   C     C_R   0.459599 0.025086 0.463275 0.075841
C16   C     C_R   0.503249 0.477900 0.299501 0.948036
C17   C     C_R   0.452580 0.142811 0.455993 -0.019935
C18   C     C_R   0.601805 0.159993 0.590646 0.037067
C19   C     C_R   0.611904 0.043420 0.600700 -0.291171
C20   C     C_R   0.260149 0.502860 0.508027 1.040620
C21   C     C_R   0.859656 0.511648 0.693961 -0.209873
C22   C     C_R   0.915508 0.537095 0.788795 0.401574
C23   C     C_R   0.871784 0.495387 0.502517 -0.214445
C24   C     C_R   0.035849 0.572885 0.790267 -0.181854
C25   C     C_R   0.104205 0.575764 0.697787 0.311049
C26   C     C_R   0.055661 0.532956 0.602000 -0.041476
C27   C     C_3   0.853202 0.559554 0.265915 -0.179320
C28   C     C_R   0.940090 0.483161 0.409180 0.435254
C29   C     C_R   0.069695 0.482640 0.413050 0.269221
C30   C     C_R   0.126555 0.508931 0.508345 -0.244050
C31   C     C_R   0.505789 0.464998 0.188143 -0.059247
C32   C     C_R   0.500133 0.535556 0.811791 -0.091679
C33   C     C_R   0.521592 0.650142 0.969468 0.409396
Cl1   Cl    Cl    0.831302 0.532505 0.905561 -0.618012
Cl2   Cl    Cl    0.228489 0.661816 0.705384 -0.616910
Cl3   Cl    Cl    0.159484 0.450080 0.297304 -0.587712
Cl4   Cl    Cl    0.542395 0.783735 0.028622 -0.602456
H1    H     H_    0.473245 0.272766 0.989699 0.153949
H2    H     H_    0.763373 0.489993 0.694820 0.153764
H3    H     H_    0.074216 0.603481 0.863196 0.209252
H4    H     H_    0.533028 0.639458 0.174210 0.206019
H5    H     H_    0.480419 0.287186 0.179255 0.170931
H6    H     H_    0.940038 0.600314 0.248428 0.199733
H7    H     H_    0.786210 0.619141 0.312704 0.141195
H8    H     H_    0.807299 0.539567 0.190820 0.221007
H9    H     H_    0.523962 0.713206 0.817937 0.196504
H10   H     H_    0.475945 0.360252 0.828690 0.172757
H11   H     H_    0.390761 0.182778 0.400012 0.148696
H12   H     H_    0.656943 0.212530 0.640170 0.142664
H13   H     H_    0.325100 0.992616 0.341994 0.168893
H14   H     H_    0.674959 0.007338 0.657975 0.164664
H15   H     H_    0.343146 0.787438 0.359774 0.151742
H16   H     H_    0.609166 0.817175 0.600045 0.133248
N1    N     N_R   0.523130 0.207800 0.519340 -0.109890
N2    N     N_R   0.476870 0.792180 0.480660 -0.105738
O1    O     O_R   0.506170 0.421690 0.658830 -0.649502
O2    O     O_R   0.491330 0.609320 0.646410 -0.589558
O3    O     O_R   0.690660 0.406170 0.506210 -0.612509
O4    O     O_R   0.675810 0.593790 0.493790 -0.645157
O5    O     O_R   0.508670 0.390680 0.353590 -0.612707
O6    O     O_R   0.493830 0.578310 0.341170 -0.641362
O7    O     O_R   0.324190 0.406210 0.506210 -0.611966
O8    O     O_R   0.309340 0.593830 0.493790 -0.570743
O9    O     O_3   0.881104 0.458885 0.315971 -0.580786
Zn1   Zn    Zn3+2 0.509910 0.374720 0.508290 0.983667
Zn2   Zn    Zn3+2 0.490090 0.625280 0.491710 0.996976

loop_
_geom_bond_atom_site_label_1
_geom_bond_atom_site_label_2
_ccdc_geom_bond_type
C17   H11   S    
C5    C9    A    
C6    C7    A    
C1    O2    A    
O7    Zn1   S    
O3    Zn1   S    
C21   H2    S    
C6    C33   A    
O2    Zn2   S    
C10   C11   A    
C27   H8    S    
C20   O8    A    
C25   C26   A    
O8    Zn2   S    
N1    Zn1   S    
C20   C30   S    
C23   C28   A    
C2    H9    S    
C16   C31   S    
C15   C17   A    
C17   N1    A    
C29   Cl3   S    
C29   C30   A    
C25   Cl2   S    
C5    C6    A    
O6    Zn2   S    
C4    O4    A    
C3    H10   S    
C9    H1    S    
C24   H3    S    
C1    O1    A    
C8    H5    S    
O5    Zn1   S    
C26   C30   A    
C13   H16   S    
C10   C15   A    
C7    H4    S    
O4    Zn2   S    
C20   O7    A    
C3    C32   A    
C22   Cl1   S    
C22   C24   A    
C27   H7    S    
C7    C31   A    
C16   O6    A    
C18   N1    A    
O1    Zn1   S    
C12   C21   A    
C19   H14   S    
N2    Zn2   S    
C11   N2    A    
C24   C25   A    
C28   O9    S    
C2    C32   A    
C18   C19   A    
C16   O5    A    
C12   C26   A    
C4    O3    A    
C27   O9    S    
C27   H6    S    
C14   C15   A    
C28   C29   A    
C12   C23   A    
C11   H15   S    
C13   C14   A    
C13   N2    A    
C4    C23   S    
C21   C22   A    
C8    C31   A    
C14   C19   A    
C1    C32   S    
C33   Cl4   S    
C18   H12   S    
C2    C33   A    
C8    C9    A    
C3    C5    A    
C10   H13   S    
