data_mof_unit_54756.cif
_audit_creation_date              2012-12-10T17:23:36-0500
_audit_creation_method            fapswitch 2.2
_symmetry_space_group_name_H-M    P1
_symmetry_Int_Tables_number       1
_space_group_crystal_system       triclinic
_cell_length_a                    10.194586
_cell_length_b                    10.805681
_cell_length_c                    15.723159
_cell_angle_alpha                 90.400753
_cell_angle_beta                  81.046001
_cell_angle_gamma                 95.008077
_cell_volume                      1704.37702369

loop_
_atom_site_label
_atom_site_type_symbol
_atom_type_description
_atom_site_fract_x
_atom_site_fract_y
_atom_site_fract_z
_atom_type_partial_charge
C1    C     C_R   0.555712 0.732423 0.491954 0.929755
C2    C     C_3   0.539231 0.394405 0.967012 0.585957
C3    C     C_3   0.585192 0.595979 0.964530 -0.321365
C4    C     C_3   0.414871 0.403598 0.035527 -0.326007
C5    C     C_1   0.499999 0.501415 0.750957 -0.165914
C6    C     C_1   0.500006 0.498388 0.249070 -0.183542
C7    C     C_3   0.374483 0.513514 0.984956 -0.319217
C8    C     C_3   0.625580 0.486066 0.015102 -0.318443
C9    C     C_3   0.499596 0.502241 0.917227 0.072436
C10   C     C_3   0.500469 0.497329 0.082819 0.073538
C11   C     C_1   0.499847 0.502127 0.826295 0.012310
C12   C     C_R   0.444346 0.267481 0.503030 0.935595
C13   C     C_1   0.500192 0.497533 0.173739 0.001088
C14   C     C_2   0.587299 0.864125 0.479438 -0.359938
C15   C     C_2   0.413212 0.135529 0.496141 -0.370300
C16   C     C_3   0.390502 0.798501 0.014522 0.096566
C17   C     C_3   0.347477 0.915939 0.060582 -0.820001
C18   C     C_3   0.609638 0.201149 0.985685 0.096837
C19   C     C_3   0.652799 0.083686 0.939723 -0.811922
C20   C     C_3   0.173415 0.718475 0.617346 0.243227
C21   C     C_3   0.090943 0.796776 0.682373 -0.923284
C22   C     C_3   0.836842 0.329836 0.349321 0.235659
C23   C     C_2   0.488614 0.933636 0.470829 -0.154780
C24   C     C_3   0.915205 0.237266 0.293727 -0.936923
C25   C     C_2   0.512921 0.065843 0.469479 -0.152774
C26   C     C_2   0.927898 0.513830 0.504182 0.081013
C27   C     C_2   0.074259 0.494263 0.490100 0.076342
C28   C     C_R   0.500027 0.500398 0.661983 0.894793
C29   C     C_R   0.499973 0.499570 0.338023 0.890365
C30   C     C_3   0.460837 0.605167 0.033046 0.581307
H1    H     H_    0.652833 0.674655 0.933714 0.156186
H2    H     H_    0.892639 0.589599 0.544654 0.136609
H3    H     H_    0.307494 0.758484 0.981652 0.137711
H4    H     H_    0.479756 0.824588 0.965659 0.134105
H5    H     H_    0.427994 0.957782 0.094630 0.254073
H6    H     H_    0.326300 0.984251 0.013145 0.209272
H7    H     H_    0.256000 0.893659 0.108164 0.258969
H8    H     H_    0.520376 0.175059 0.034541 0.132395
H9    H     H_    0.692592 0.241278 0.018562 0.135212
H10   H     H_    0.744301 0.105969 0.892162 0.262589
H11   H     H_    0.673985 0.015474 0.987224 0.206625
H12   H     H_    0.347225 0.324933 0.066357 0.154474
H13   H     H_    0.572349 0.041723 0.905666 0.253836
H14   H     H_    0.196781 0.771753 0.555650 0.122832
H15   H     H_    0.266133 0.702947 0.642695 0.183400
H16   H     H_    0.066783 0.747610 0.745415 0.267352
H17   H     H_    0.148084 0.887073 0.691047 0.218790
H18   H     H_    0.996785 0.814610 0.659161 0.261266
H19   H     H_    0.847111 0.418958 0.312616 0.141257
H20   H     H_    0.731293 0.291527 0.361612 0.175109
H21   H     H_    0.905954 0.146340 0.327647 0.265897
H22   H     H_    0.875728 0.223999 0.232013 0.214821
H23   H     H_    0.726722 0.473325 0.029587 0.154572
H24   H     H_    0.022105 0.272334 0.279701 0.263572
H25   H     H_    0.273333 0.526268 0.970494 0.157541
H26   H     H_    0.615530 0.105394 0.452679 0.194890
H27   H     H_    0.386755 0.893870 0.471330 0.176593
H28   H     H_    0.311001 0.095275 0.513376 0.156455
H29   H     H_    0.689025 0.904444 0.478726 0.155244
H30   H     H_    0.113921 0.435657 0.437693 0.139778
N1    N     N_2   0.842700 0.448880 0.465440 0.030765
N2    N     N_2   0.157300 0.551120 0.534560 0.029856
O1    O     O_R   0.431060 0.692470 0.506960 -0.654187
O2    O     O_3   0.580060 0.285426 0.924771 -0.599036
O3    O     O_3   0.099719 0.604779 0.607135 -0.554261
O4    O     O_3   0.887956 0.345254 0.427059 -0.560726
O5    O     O_R   0.568940 0.307530 0.493040 -0.611304
O6    O     O_R   0.651120 0.659650 0.484770 -0.629872
O7    O     O_R   0.348880 0.340350 0.515230 -0.609580
O8    O     O_R   0.389990 0.516420 0.634310 -0.610414
O9    O     O_R   0.610010 0.483580 0.365690 -0.658734
O10   O     O_R   0.610050 0.483600 0.612130 -0.600737
O11   O     O_R   0.389950 0.516400 0.387870 -0.622237
O12   O     O_3   0.420038 0.714100 0.075363 -0.603413
Zn1   Zn    Zn3+2 0.353060 0.521920 0.514810 0.966275
Zn2   Zn    Zn3+2 0.646940 0.478080 0.485190 0.963798

loop_
_geom_bond_atom_site_label_1
_geom_bond_atom_site_label_2
_ccdc_geom_bond_type
C24   H22   S    
C12   O7    A    
C26   H2    S    
C25   H26   S    
C7    H25   S    
O10   Zn2   S    
C14   H29   S    
C26   C27   S    
O1    Zn1   S    
C16   O12   S    
C26   N1    D    
C5    C11   T    
C27   H30   S    
O9    Zn2   S    
C30   O12   S    
C15   C25   D    
C29   O11   A    
C24   H24   S    
C1    O6    A    
C23   H27   S    
C18   C19   S    
C22   O4    S    
C16   H4    S    
N1    O4    S    
C2    O2    S    
C16   C17   S    
C17   H6    S    
C20   H15   S    
C22   H20   S    
C21   H18   S    
C24   H21   S    
C7    C30   S    
O11   Zn1   S    
C28   O10   A    
C4    C7    S    
C1    O1    A    
C20   H14   S    
C19   H13   S    
N1    Zn2   S    
C12   O5    A    
C28   O8    A    
C20   O3    S    
C3    C8    S    
C14   C23   D    
C3    C30   S    
C2    C4    S    
C18   H9    S    
C3    C9    S    
C27   N2    D    
C16   H3    S    
C5    C28   S    
C10   C30   S    
C12   C15   S    
C17   H7    S    
C3    H1    S    
C9    C11   S    
C22   H19   S    
C15   H28   S    
C22   C24   S    
N2    Zn1   S    
C4    C10   S    
C21   H16   S    
C7    C9    S    
N2    O3    S    
C2    C8    S    
C10   C13   S    
C8    H23   S    
O5    Zn2   S    
O6    Zn2   S    
C18   H8    S    
C6    C13   T    
C18   O2    S    
C4    H12   S    
O7    Zn1   S    
C23   C25   S    
C19   H10   S    
C6    C29   S    
C20   C21   S    
C8    C10   S    
O8    Zn1   S    
C1    C14   S    
C17   H5    S    
C29   O9    A    
C2    C9    S    
C19   H11   S    
C21   H17   S    
