data_mof_unit_8124.cif
_audit_creation_date              2012-12-10T17:03:00-0500
_audit_creation_method            fapswitch 2.2
_symmetry_space_group_name_H-M    P1
_symmetry_Int_Tables_number       1
_space_group_crystal_system       triclinic
_cell_length_a                    9.902076
_cell_length_b                    11.010687
_cell_length_c                    13.381859
_cell_angle_alpha                 93.986481
_cell_angle_beta                  82.753593
_cell_angle_gamma                 110.549926
_cell_volume                      1354.75241491

loop_
_atom_site_label
_atom_site_type_symbol
_atom_type_description
_atom_site_fract_x
_atom_site_fract_y
_atom_site_fract_z
_atom_type_partial_charge
C1    C     C_R   0.556358 0.745335 0.505266 0.860852
C2    C     C_R   0.442331 0.441101 0.963721 0.083830
C3    C     C_R   0.479924 0.430549 0.859639 0.024030
C4    C     C_R   0.554481 0.490484 0.029297 0.012680
C5    C     C_R   0.702514 0.513159 0.990516 0.044738
C6    C     C_R   0.732917 0.483388 0.886775 -0.090182
C7    C     C_R   0.619337 0.426847 0.827358 -0.064710
C8    C     C_R   0.522596 0.524973 0.131076 -0.095923
C9    C     C_R   0.772870 0.573463 0.161691 -0.077778
C10   C     C_R   0.373988 0.415115 0.792072 -0.180101
C11   C     C_2   0.585158 0.884930 0.509756 -0.244813
C12   C     C_R   0.420890 0.465612 0.687313 0.845088
C13   C     C_2   0.523098 0.940404 0.450032 -0.079764
C14   C     C_2   0.422726 0.116887 0.476160 -0.253334
C15   C     C_2   0.536734 0.076736 0.468686 -0.192241
C16   C     C_2   0.921429 0.493030 0.486375 -0.006571
C17   C     C_2   0.079707 0.520495 0.497118 0.003218
C18   C     C_R   0.445596 0.254845 0.490572 0.860690
C19   C     C_R   0.578072 0.521743 0.309802 0.834873
C20   C     C_R   0.812287 0.562079 0.057647 -0.052303
C21   C     C_R   0.625225 0.540865 0.199927 -0.158656
C22   C     C_R   0.225445 0.355872 0.828077 -0.050038
C23   C     C_R   0.186515 0.345285 0.933254 -0.040177
C24   C     C_R   0.293412 0.390961 0.999368 -0.200148
Cu1   Cu    Cu3+1 0.362000 0.479240 0.482530 1.064693
Cu2   Cu    Cu3+1 0.638000 0.520760 0.517470 1.001893
H1    H     H_    0.314013 0.049358 0.468674 0.208350
H2    H     H_    0.890389 0.611251 0.602656 0.211227
H3    H     H_    0.259062 0.376288 0.078839 0.161017
H4    H     H_    0.644341 0.144783 0.479362 0.200851
N1    N     N_2   0.845330 0.551960 0.543750 -0.297843
N2    N     N_2   0.154690 0.448120 0.456210 -0.267615
O1    O     O_R   0.426290 0.668220 0.490680 -0.558282
O2    O     O_R   0.659360 0.703290 0.520190 -0.560082
O3    O     O_R   0.326580 0.473880 0.629020 -0.527675
O4    O     O_R   0.559660 0.508940 0.658530 -0.591337
O5    O     O_R   0.340640 0.296710 0.479810 -0.565935
O6    O     O_R   0.573710 0.331780 0.509320 -0.586997
O7    O     O_R   0.440340 0.491060 0.341470 -0.533794
O8    O     O_R   0.673420 0.526120 0.370980 -0.582592
C25   C     C_1   0.886980 0.629351 0.227523 0.315098
N3    N     N_1   0.978518 0.674699 0.279142 -0.217278
C26   C     C_2   0.457284 0.873910 0.357797 0.952723
O9    O     O_2   0.504702 0.796252 0.309916 -0.606429
O10   O     O_R   0.346969 0.905329 0.322541 -0.728416
H5    H     H_    0.311695 0.853924 0.259396 0.347022
C27   C     C_1   0.670940 0.958110 0.588225 0.310574
N4    N     N_1   0.739541 0.015410 0.651111 -0.241680
C28   C     C_2   0.152628 0.645565 0.548140 0.903349
O11   O     O_2   0.201111 0.648290 0.628043 -0.561278
O12   O     O_R   0.155662 0.760501 0.508209 -0.741243
H6    H     H_    0.203131 0.839464 0.551689 0.329101
C29   C     C_1   0.856890 0.407379 0.405107 0.367264
N5    N     N_1   0.807146 0.338373 0.339592 -0.287438
C30   C     C_1   0.080545 0.318263 0.432659 0.476838
N6    N     N_1   0.019818 0.210095 0.413328 -0.288502
C31   C     C_1   0.878246 0.516460 0.835353 0.294580
N7    N     N_1   0.993894 0.544340 0.793296 -0.200433
C32   C     C_1   0.966367 0.596364 0.024470 0.255362
N8    N     N_1   0.089542 0.624218 0.999752 -0.242261
C33   C     C_2   0.412639 0.590226 0.152805 0.918909
O13   O     O_2   0.307630 0.549244 0.215593 -0.574141
O14   O     O_R   0.425842 0.695040 0.094344 -0.717524
H7    H     H_    0.341953 0.728096 0.110919 0.340612
C34   C     C_2   0.116167 0.288597 0.756905 0.876022
O15   O     O_2   0.151125 0.233581 0.680811 -0.592375
O16   O     O_R   0.972409 0.282605 0.778453 -0.751768
H8    H     H_    0.911012 0.237458 0.722712 0.355630
C35   C     C_1   0.037931 0.285396 0.976347 0.334056
N9    N     N_1   0.919047 0.237752 0.011114 -0.226554
C36   C     C_1   0.638194 0.337217 0.746600 0.318348
N10   N     N_1   0.653849 0.264557 0.683533 -0.277305

loop_
_geom_bond_atom_site_label_1
_geom_bond_atom_site_label_2
_ccdc_geom_bond_type
C2    C4    A    
C30   N6    T    
H2    N1    S    
C22   C34   S    
C6    C7    A    
C14   H1    S    
C12   O4    A    
C11   C13   D    
C25   N3    T    
C23   C35   S    
C9    C20   A    
C11   C27   S    
C27   N4    T    
C1    C11   S    
C16   N1    D    
C13   C26   S    
C8    C33   S    
C4    C8    A    
C9    C21   A    
Cu1   N2    S    
C14   C15   D    
C2    C3    A    
C18   O6    A    
C1    O1    A    
C32   N8    T    
O14   H7    S    
C3    C10   A    
C29   N5    T    
C10   C22   A    
C20   C32   S    
C7    C36   S    
C4    C5    A    
C26   O10   S    
C6    C31   S    
Cu2   O8    S    
C31   N7    T    
C35   N9    T    
C19   O7    A    
Cu1   O3    S    
C5    C6    A    
C10   C12   S    
Cu2   O4    S    
C19   C21   S    
C18   O5    A    
C1    O2    A    
C28   O11   D    
C3    C7    A    
C13   C15   S    
C26   O9    D    
C2    C24   A    
C33   O13   D    
C5    C20   A    
C34   O16   S    
C19   O8    A    
C23   C24   A    
O16   H8    S    
C24   H3    S    
C36   N10   T    
C15   H4    S    
C9    C25   S    
C34   O15   D    
C28   O12   S    
C17   C28   S    
C33   O14   S    
C17   N2    D    
C14   C18   S    
C22   C23   A    
Cu2   O6    S    
N2    C30   S    
Cu1   O5    S    
Cu1   Cu2   S    
O10   H5    S    
Cu2   N1    S    
Cu2   O2    S    
C16   C29   S    
Cu1   O7    S    
O12   H6    S    
Cu1   O1    S    
C16   C17   S    
C12   O3    A    
C8    C21   A    
