data_mof_unit_43658.cif
_audit_creation_date              2012-12-10T17:35:39-0500
_audit_creation_method            fapswitch 2.2
_symmetry_space_group_name_H-M    P1
_symmetry_Int_Tables_number       1
_space_group_crystal_system       triclinic
_cell_length_a                    10.708754
_cell_length_b                    12.317182
_cell_length_c                    13.207967
_cell_angle_alpha                 116.629564
_cell_angle_beta                  77.607772
_cell_angle_gamma                 101.374358
_cell_volume                      1510.84900026

loop_
_atom_site_label
_atom_site_type_symbol
_atom_type_description
_atom_site_fract_x
_atom_site_fract_y
_atom_site_fract_z
_atom_type_partial_charge
C1    C     C_R   0.513621 0.854623 0.286578 0.792156
C2    C     C_3   0.121460 0.002032 0.503717 0.106928
C3    C     C_3   0.075486 0.127618 0.594589 0.002590
C4    C     C_3   0.039612 0.896292 0.530811 -0.370160
C5    C     C_R   0.345109 0.271656 0.024765 -0.145668
C6    C     C_R   0.459585 0.227154 0.834660 -0.051048
C7    C     C_R   0.627145 0.809667 0.091798 -0.298301
C8    C     C_R   0.683745 0.724583 0.989485 -0.134841
C9    C     C_R   0.649158 0.599864 0.958360 0.408569
C10   C     C_R   0.538298 0.558912 0.020497 -0.039773
C11   C     C_R   0.481607 0.646336 0.125451 0.002927
C12   C     C_R   0.739759 0.999977 0.500565 0.762501
C13   C     C_R   0.482506 0.434968 0.983136 -0.007200
C14   C     C_R   0.389508 0.396608 0.058685 0.133884
C15   C     C_R   0.335819 0.483783 0.162894 0.369857
C16   C     C_R   0.375340 0.607680 0.190601 -0.276329
C17   C     C_R   0.508062 0.350079 0.869384 -0.241068
C18   C     C_R   0.382274 0.187006 0.913866 -0.232956
C19   C     C_R   0.534096 0.770826 0.164549 -0.079391
C20   C     C_R   0.705674 0.347524 0.329393 -0.293542
C21   C     C_R   0.324918 0.758732 0.644460 0.068837
C22   C     C_R   0.286506 0.661466 0.675172 -0.252083
C23   C     C_R   0.481044 0.145036 0.713256 0.790315
C24   C     C_R   0.352050 0.558174 0.620500 -0.181238
C25   C     C_R   0.457591 0.550857 0.533810 0.003855
C26   C     C_R   0.493286 0.652948 0.505105 0.294751
C27   C     C_R   0.529068 0.446754 0.474764 -0.027584
C28   C     C_R   0.633709 0.447121 0.388449 0.181087
C29   C     C_R   0.666463 0.546960 0.361580 -0.289185
C30   C     C_R   0.598194 0.647426 0.418688 -0.191821
C31   C     C_R   0.502143 0.341574 0.497264 0.032970
C32   C     C_R   0.674420 0.247438 0.355821 0.075284
C33   C     C_R   0.260099 0.000324 0.500413 0.742973
C34   C     C_3   0.954925 0.980405 0.382976 -0.397235
C35   C     C_3   0.098839 0.981761 0.383939 -0.416129
C36   C     C_3   0.929991 0.124898 0.593143 -0.366305
C37   C     C_3   0.896684 0.897106 0.532195 -0.372658
C38   C     C_3   0.877476 0.000466 0.502150 0.117968
Cu1   Cu    Cu3+1 0.529690 0.098270 0.475420 0.932588
Cu2   Cu    Cu3+1 0.470310 0.901730 0.524580 0.912837
H1    H     H_    0.942912 0.053413 0.359234 0.174292
H2    H     H_    0.054822 0.904325 0.614716 0.161531
H3    H     H_    0.872176 0.140152 0.678220 0.159203
H4    H     H_    0.343306 0.091880 0.888080 0.150822
H5    H     H_    0.277671 0.239551 0.082133 0.183369
H6    H     H_    0.559981 0.379996 0.805029 0.206720
H7    H     H_    0.666276 0.904944 0.119314 0.166684
H8    H     H_    0.764530 0.755533 0.939894 0.158205
H9    H     H_    0.918318 0.891328 0.316764 0.157825
H10   H     H_    0.321548 0.673499 0.264013 0.155636
H11   H     H_    0.729560 0.170237 0.310590 0.117622
H12   H     H_    0.746491 0.547851 0.295699 0.150793
H13   H     H_    0.785771 0.347222 0.263290 0.142767
H14   H     H_    0.424378 0.333282 0.561254 0.119917
H15   H     H_    0.273458 0.838480 0.687357 0.119709
H16   H     H_    0.318120 0.485674 0.647700 0.129358
H17   H     H_    0.205607 0.666137 0.741612 0.149151
H18   H     H_    0.631940 0.719036 0.392010 0.204733
H19   H     H_    0.132078 0.893580 0.317540 0.162167
H20   H     H_    0.155485 0.055641 0.360941 0.177801
H21   H     H_    0.917269 0.200925 0.573863 0.169040
H22   H     H_    0.129810 0.199433 0.567325 0.158872
H23   H     H_    0.843471 0.910583 0.618483 0.174468
H24   H     H_    0.858130 0.806531 0.469316 0.174485
H25   H     H_    0.069607 0.806582 0.464704 0.175109
N1    N     N_R   0.574690 0.246280 0.438200 -0.179648
N2    N     N_R   0.426100 0.754320 0.561190 -0.205932
O1    O     O_R   0.537340 0.972510 0.318130 -0.579076
O2    O     O_R   0.487200 0.806530 0.359650 -0.599383
O3    O     O_R   0.707380 0.082980 0.479220 -0.583734
O4    O     O_R   0.657240 0.917000 0.520740 -0.604063
O5    O     O_R   0.512800 0.193470 0.640350 -0.582622
O6    O     O_R   0.462660 0.027490 0.681870 -0.585778
O7    O     O_R   0.342760 0.083000 0.479260 -0.589266
O8    O     O_R   0.292620 0.917020 0.520780 -0.598842
C39   C     C_3   0.103230 0.163097 0.717053 -0.415208
C40   C     C_3   0.092957 0.298453 0.795182 -0.830904
H26   H     H_    0.163350 0.356370 0.759622 0.243591
H27   H     H_    0.994417 0.321049 0.805063 0.256861
H28   H     H_    0.114830 0.319684 0.881060 0.253156
H29   H     H_    0.035506 0.107053 0.756391 0.209171
H30   H     H_    0.202123 0.145996 0.714157 0.197882
O9    O     O_3   0.239598 0.446696 0.233053 -0.755415
H31   H     H_    0.214160 0.519305 0.303716 0.323887
O10   O     O_3   0.733933 0.523357 0.875352 -0.759750
H32   H     H_    0.738738 0.457620 0.897740 0.316430

loop_
_geom_bond_atom_site_label_1
_geom_bond_atom_site_label_2
_ccdc_geom_bond_type
C2    C35   S    
C31   N1    A    
Cu2   O4    S    
Cu1   O1    S    
C22   H17   S    
C7    C8    A    
C40   H26   S    
C11   C19   A    
C29   C30   A    
C26   N2    A    
C28   C29   A    
C16   H10   S    
C4    H25   S    
C3    H22   S    
C15   C16   A    
C1    O1    A    
Cu2   O6    S    
C35   H19   S    
C34   C35   S    
Cu1   O7    S    
C9    O10   S    
C33   O8    A    
C8    C9    A    
Cu2   N2    S    
Cu1   O5    S    
C9    C10   A    
C21   C22   A    
C21   N2    A    
C34   H1    S    
C23   O6    A    
C37   H23   S    
C39   C40   S    
C40   H27   S    
C6    C18   A    
C1    C19   S    
Cu2   O2    S    
C27   C31   A    
C24   C25   A    
C39   H30   S    
Cu1   Cu2   S    
C21   H15   S    
C15   O9    S    
C5    C18   A    
C20   C28   A    
C25   C26   A    
O10   H32   S    
C5    H5    S    
C1    O2    A    
C35   H20   S    
C7    H7    S    
C2    C4    S    
C8    H8    S    
C32   H11   S    
C37   C38   S    
C18   H4    S    
C11   C16   A    
O9    H31   S    
C17   H6    S    
C3    C39   S    
C5    C14   A    
C2    C33   S    
C12   O4    A    
C26   C30   A    
C7    C19   A    
Cu1   N1    S    
C22   C24   A    
C24   H16   S    
C36   H21   S    
C37   H24   S    
C32   N1    A    
C20   C32   A    
C40   H28   S    
C6    C17   A    
C12   O3    A    
C34   H9    S    
C34   C38   S    
C23   O5    A    
C20   H13   S    
C10   C13   A    
C39   H29   S    
C25   C27   A    
Cu2   O8    S    
C13   C17   A    
C36   C38   S    
C2    C3    S    
C4    H2    S    
C3    C36   S    
C6    C23   S    
C30   H18   S    
Cu1   O3    S    
C31   H14   S    
C12   C38   S    
C10   C11   A    
C33   O7    A    
C4    C37   S    
C27   C28   A    
C14   C15   A    
C36   H3    S    
C13   C14   A    
C29   H12   S    
