data_mof_unit_13317.cif
_audit_creation_date              2012-12-10T17:29:16-0500
_audit_creation_method            fapswitch 2.2
_symmetry_space_group_name_H-M    P1
_symmetry_Int_Tables_number       1
_space_group_crystal_system       triclinic
_cell_length_a                    12.081664
_cell_length_b                    12.83288
_cell_length_c                    13.075307
_cell_angle_alpha                 86.798937
_cell_angle_beta                  112.586652
_cell_angle_gamma                 92.465432
_cell_volume                      1868.30779679

loop_
_atom_site_label
_atom_site_type_symbol
_atom_type_description
_atom_site_fract_x
_atom_site_fract_y
_atom_site_fract_z
_atom_type_partial_charge
C1    C     C_R   0.477387 0.300145 0.496340 0.938490
C2    C     C_R   0.555325 0.555782 0.982123 0.074409
C3    C     C_R   0.525026 0.566211 0.867641 0.054487
C4    C     C_R   0.460743 0.549341 0.020545 0.015930
C5    C     C_R   0.343965 0.581533 0.950634 0.133657
C6    C     C_R   0.324577 0.619437 0.842924 -0.240788
C7    C     C_R   0.413896 0.611410 0.801558 -0.193985
C8    C     C_R   0.479766 0.507280 0.125850 -0.198534
C9    C     C_R   0.278040 0.546031 0.102911 -0.278207
C10   C     C_R   0.606862 0.530487 0.824411 -0.130772
C11   C     C_R   0.532156 0.811133 0.493341 -0.073280
C12   C     C_R   0.565981 0.505874 0.707384 0.889757
C13   C     C_R   0.463804 0.189342 0.494392 -0.100769
C14   C     C_R   0.400292 0.031995 0.564630 -0.185769
C15   C     C_R   0.403604 0.139163 0.555965 -0.222544
C16   C     C_R   0.517783 0.134029 0.437226 0.121510
C17   C     C_R   0.531760 0.026515 0.460359 0.071526
C18   C     C_R   0.465575 0.975783 0.519543 0.127688
C19   C     C_R   0.464981 0.868841 0.533622 -0.263392
C20   C     C_R   0.606849 0.859141 0.444951 -0.243652
C21   C     C_R   0.609383 0.966803 0.429652 0.197273
C22   C     C_R   0.030083 0.630239 0.444970 0.073153
C23   C     C_R   0.521404 0.700129 0.500140 0.878672
C24   C     C_R   0.143043 0.612025 0.439399 0.317569
C25   C     C_R   0.149687 0.443571 0.524950 -0.110550
C26   C     C_R   0.033773 0.455871 0.527174 -0.045926
C27   C     C_R   0.970630 0.548014 0.481109 -0.059550
C28   C     C_R   0.850493 0.556238 0.474584 -0.093626
C29   C     C_R   0.866437 0.397563 0.579360 0.295303
C30   C     C_R   0.981896 0.381257 0.579848 0.094074
C31   C     C_R   0.433821 0.502969 0.291220 0.899841
C32   C     C_R   0.250976 0.576671 0.991432 0.224467
C33   C     C_R   0.394066 0.515164 0.170906 -0.098195
C34   C     C_R   0.726083 0.512605 0.895899 -0.208203
C35   C     C_R   0.763126 0.529876 0.008494 -0.203739
C36   C     C_R   0.678929 0.553707 0.052846 0.215811
H1    H     H_    0.208748 0.546474 0.135913 0.158557
H2    H     H_    0.663738 0.812665 0.419299 0.166265
H3    H     H_    0.351282 0.993262 0.610720 0.146946
H4    H     H_    0.360029 0.183008 0.597875 0.161751
H5    H     H_    0.798420 0.623599 0.434103 0.152999
H6    H     H_    0.239655 0.652086 0.789106 0.179461
H7    H     H_    0.200012 0.373911 0.560043 0.156021
H8    H     H_    0.563654 0.470840 0.175423 0.210243
H9    H     H_    0.791299 0.488232 0.864410 0.185555
H10   H     H_    0.857334 0.524687 0.061124 0.139484
H11   H     H_    0.395243 0.642650 0.718258 0.176195
H12   H     H_    0.411819 0.830113 0.575918 0.144687
N1    N     N_R   0.798200 0.480260 0.519790 -0.130079
N2    N     N_R   0.201820 0.519740 0.480210 -0.125194
O1    O     O_R   0.579910 0.341070 0.505280 -0.565981
O2    O     O_R   0.388440 0.353740 0.492580 -0.628671
O3    O     O_R   0.643280 0.490550 0.663120 -0.597257
O4    O     O_R   0.451810 0.503220 0.650420 -0.624117
O5    O     O_R   0.611560 0.646260 0.507420 -0.632386
O6    O     O_R   0.420090 0.658930 0.494720 -0.611142
O7    O     O_R   0.548190 0.496780 0.349580 -0.598765
O8    O     O_R   0.356720 0.509450 0.336880 -0.606984
Zn1   Zn    Zn3+2 0.627850 0.491540 0.508480 0.982861
Zn2   Zn    Zn3+2 0.372150 0.508460 0.491520 0.946619
I1    I     I_    0.754465 0.023975 0.386435 -0.396137
I2    I     I_    0.532297 0.210878 0.292258 -0.318173
I3    I     I_    0.813888 0.298953 0.690487 -0.321853
N3    N     N_2   0.989190 0.734801 0.434675 -0.319563
H13   H     H_    0.942447 0.752884 0.482537 0.236578
C37   C     C_3   0.954330 0.790775 0.328305 -0.769638
H14   H     H_    0.868192 0.829910 0.309056 0.255739
H15   H     H_    0.944501 0.737750 0.260953 0.249608
H16   H     H_    0.021972 0.853205 0.332062 0.254703
N4    N     N_2   0.047943 0.293855 0.641738 -0.303514
H17   H     H_    0.136145 0.310078 0.691078 0.223850
C38   C     C_3   0.031757 0.201361 0.578875 -0.684285
H18   H     H_    0.067662 0.215082 0.512624 0.226826
H19   H     H_    0.935176 0.179260 0.541098 0.288454
H20   H     H_    0.080060 0.135698 0.634890 0.237482
N5    N     N_2   0.199851 0.693440 0.398207 -0.254221
H21   H     H_    0.202894 0.766125 0.429116 0.227934
C39   C     C_3   0.178975 0.693531 0.281511 -0.723439
H22   H     H_    0.132778 0.765571 0.238072 0.214072
H23   H     H_    0.123162 0.624934 0.241132 0.211665
H24   H     H_    0.266294 0.693320 0.272069 0.253090
N6    N     N_2   0.131914 0.605434 0.922561 -0.321870
H25   H     H_    0.085580 0.636829 0.964915 0.226327
C40   C     C_3   0.062319 0.524644 0.850491 -0.775154
H26   H     H_    0.047475 0.456588 0.900464 0.254048
H27   H     H_    0.108593 0.498781 0.797880 0.249913
H28   H     H_    0.973866 0.555473 0.795102 0.243030
N7    N     N_2   0.719892 0.586739 0.164025 -0.321509
H29   H     H_    0.808237 0.570896 0.212049 0.231178
C41   C     C_3   0.687918 0.692084 0.174727 -0.770905
H30   H     H_    0.713799 0.707507 0.263392 0.238464
H31   H     H_    0.590018 0.703655 0.134551 0.253273
H32   H     H_    0.733597 0.749329 0.136323 0.244824

loop_
_geom_bond_atom_site_label_1
_geom_bond_atom_site_label_2
_ccdc_geom_bond_type
C37   H15   S    
C29   I3    S    
O5    Zn1   S    
C14   C18   A    
C35   C36   A    
C40   H28   S    
C4    C8    A    
C25   H7    S    
O3    Zn1   S    
C23   O6    A    
O4    Zn2   S    
C36   N7    S    
C11   C19   A    
C26   C27   A    
C31   O8    A    
C40   H27   S    
C18   C19   A    
C3    C7    A    
C5    C6    A    
C39   H23   S    
O7    Zn1   S    
C37   H16   S    
O8    Zn2   S    
C28   H5    S    
C34   C35   A    
C25   N2    A    
O2    Zn2   S    
C9    C32   A    
C14   H3    S    
C16   C17   A    
C31   C33   S    
N4    H17   S    
C21   I1    S    
C12   O3    A    
C5    C32   A    
N7    H29   S    
C37   H14   S    
C9    C33   A    
C16   I2    S    
C38   H20   S    
C30   N4    S    
C24   N2    A    
C11   C20   A    
N5    H21   S    
C38   H19   S    
C39   H22   S    
C24   N5    S    
C29   N1    A    
C25   C26   A    
C17   C21   A    
O6    Zn2   S    
C7    H11   S    
C2    C4    A    
C29   C30   A    
C20   H2    S    
C28   N1    A    
C41   H31   S    
C9    H1    S    
C17   C18   A    
C10   C34   A    
C34   H9    S    
C40   H26   S    
C1    O1    A    
C10   C12   S    
N7    C41   S    
C26   C30   A    
N6    C40   S    
C22   C27   A    
C13   C15   A    
C22   C24   A    
C1    C13   S    
C41   H32   S    
C2    C36   A    
C19   H12   S    
C8    H8    S    
N5    C39   S    
C38   H18   S    
C23   O5    A    
C6    C7    A    
C32   N6    S    
N1    Zn1   S    
N2    Zn2   S    
N3    H13   S    
C31   O7    A    
C2    C3    A    
C3    C10   A    
C39   H24   S    
C41   H30   S    
C11   C23   S    
C8    C33   A    
C1    O2    A    
C15   H4    S    
C22   N3    S    
C4    C5    A    
O1    Zn1   S    
C20   C21   A    
N6    H25   S    
C6    H6    S    
C13   C16   A    
C27   C28   A    
C14   C15   A    
N4    C38   S    
C35   H10   S    
C12   O4    A    
N3    C37   S    
