data_mof_unit_48304.cif
_audit_creation_date              2012-12-10T17:26:14-0500
_audit_creation_method            fapswitch 2.2
_symmetry_space_group_name_H-M    P1
_symmetry_Int_Tables_number       1
_space_group_crystal_system       triclinic
_cell_length_a                    10.186873
_cell_length_b                    10.796271
_cell_length_c                    27.234563
_cell_angle_alpha                 92.15342
_cell_angle_beta                  81.283784
_cell_angle_gamma                 97.083517
_cell_volume                      2937.5294233

loop_
_atom_site_label
_atom_site_type_symbol
_atom_type_description
_atom_site_fract_x
_atom_site_fract_y
_atom_site_fract_z
_atom_type_partial_charge
C1    C     C_R   0.558289 0.732674 0.496204 0.826926
C2    C     C_R   0.684387 0.471626 0.115575 -0.130575
C3    C     C_R   0.493557 0.456606 0.646138 -0.239688
C4    C     C_R   0.499550 0.494696 0.352453 -0.198298
C5    C     C_R   0.699773 0.444063 0.011399 0.018248
C6    C     C_R   0.498501 0.293752 0.971609 -0.026055
C7    C     C_R   0.474145 0.333063 0.021985 -0.069935
C8    C     C_R   0.693754 0.449821 0.959828 0.015771
C9    C     C_R   0.581281 0.400014 0.042654 0.007940
C10   C     C_R   0.596713 0.367023 0.939701 0.003298
C11   C     C_R   0.817114 0.481229 0.032594 0.204835
C12   C     C_R   0.442196 0.266911 0.501469 0.811235
C13   C     C_R   0.430652 0.185599 0.951967 0.113648
C14   C     C_R   0.808819 0.501908 0.084314 0.170895
C15   C     C_R   0.429191 0.174583 0.900280 0.179685
C16   C     C_R   0.498454 0.493734 0.594251 0.993383
C17   C     C_R   0.499594 0.498848 0.405958 0.999828
C18   C     C_R   0.770274 0.543628 0.929533 0.390283
C19   C     C_R   0.345919 0.315240 0.051227 0.396552
C20   C     C_2   0.597128 0.864009 0.485664 0.249494
C21   C     C_2   0.406251 0.132224 0.503091 0.233570
C22   C     C_2   0.515624 0.945003 0.506938 0.124417
C23   C     C_R   0.590900 0.363043 0.888497 -0.119481
C24   C     C_2   0.499202 0.060599 0.482344 0.146405
C25   C     C_2   0.933138 0.531516 0.494515 0.643544
C26   C     C_2   0.076551 0.507532 0.489039 0.509748
C27   C     C_R   0.651238 0.455930 0.807690 0.633857
C28   C     C_R   0.433028 0.437120 0.174108 0.617684
C29   C     C_R   0.477073 0.285095 0.819845 0.645916
C30   C     C_R   0.670156 0.479979 0.167901 0.668707
C31   C     C_R   0.581747 0.328772 0.702676 0.391780
C32   C     C_R   0.572710 0.589137 0.271774 0.399317
C33   C     C_R   0.562382 0.354642 0.654141 0.296121
C34   C     C_R   0.569629 0.423644 0.094097 -0.115915
C35   C     C_R   0.565486 0.596097 0.324098 0.281730
C36   C     C_R   0.424480 0.518035 0.687058 0.061387
C37   C     C_R   0.446429 0.385006 0.329441 0.044297
C38   C     C_R   0.437662 0.486220 0.735568 0.118604
C39   C     C_R   0.473888 0.371033 0.277736 0.137976
C40   C     C_R   0.520055 0.395211 0.742718 0.119857
C41   C     C_R   0.532834 0.474647 0.248858 0.101943
C42   C     C_R   0.674327 0.451968 0.857252 -0.129228
C43   C     C_R   0.442760 0.400504 0.123832 -0.181692
C44   C     C_R   0.769476 0.538813 0.877694 0.115779
C45   C     C_R   0.331252 0.344068 0.102129 0.242866
C46   C     C_R   0.498070 0.272300 0.869157 -0.123649
H1    H     H_    0.236678 0.147251 0.545400 0.367968
H2    H     H_    0.732314 0.234229 0.682787 0.362845
H3    H     H_    0.840785 0.719592 0.931441 0.367577
H4    H     H_    0.245014 0.306588 0.995932 0.353319
H5    H     H_    0.747425 0.826881 0.436202 0.378660
H6    H     H_    0.184943 0.384739 0.459220 0.377724
H7    H     H_    0.975749 0.706779 0.510230 0.354166
H8    H     H_    0.180637 0.634392 0.579482 0.402774
H9    H     H_    0.797068 0.284498 0.460057 0.395093
H10   H     H_    0.695596 0.743331 0.325662 0.369883
H11   H     H_    0.608734 0.195185 0.625377 0.360105
H12   H     H_    0.601883 0.768231 0.261817 0.362790
I1    I     I_    0.302384 0.659084 0.677118 -0.120916
I2    I     I_    0.357564 0.029927 0.999607 -0.145400
I3    I     I_    0.609645 0.113316 0.410430 -0.159935
I4    I     I_    0.434081 0.916216 0.583858 -0.180825
I5    I     I_    0.318858 0.243448 0.372106 -0.152047
I6    I     I_    0.340653 0.577405 0.799657 -0.138636
I7    I     I_    0.436522 0.191233 0.243071 -0.144582
I8    I     I_    0.926688 0.656197 0.833702 -0.067178
I9    I     I_    0.137438 0.285233 0.142827 -0.004629
I10   I     I_    0.982523 0.599495 0.110751 -0.037431
I11   I     I_    0.331968 0.005340 0.871200 -0.056758
I12   I     I_    0.009598 0.467030 0.988939 -0.167880
N1    N     N_R   0.551109 0.377008 0.791242 -0.318658
N2    N     N_R   0.545901 0.465213 0.195596 -0.319638
N3    N     N_2   0.842700 0.448890 0.480020 0.030644
N4    N     N_2   0.157300 0.551110 0.519980 -0.027785
O1    O     O_R   0.431060 0.692470 0.504020 -0.599627
O2    O     O_2   0.313053 0.444691 0.201925 -0.483644
O3    O     O_2   0.778135 0.498056 0.191470 -0.475012
O4    O     O_2   0.379169 0.212085 0.800928 -0.484690
O5    O     O_3   0.287772 0.079659 0.530144 -0.706075
O6    O     O_3   0.707066 0.901317 0.450861 -0.697040
O7    O     O_3   0.122232 0.436993 0.448373 -0.703315
O8    O     O_3   0.894970 0.644696 0.512677 -0.731679
O9    O     O_3   0.103884 0.606792 0.561843 -0.674519
O10   O     O_3   0.878953 0.335091 0.467660 -0.637934
O11   O     O_3   0.620936 0.699488 0.348539 -0.746768
O12   O     O_R   0.568940 0.307530 0.495980 -0.606473
O13   O     O_3   0.607445 0.280986 0.613938 -0.726415
O14   O     O_3   0.617173 0.691147 0.242017 -0.704752
O15   O     O_3   0.664228 0.243079 0.712373 -0.711620
O16   O     O_3   0.834585 0.645337 0.952237 -0.719359
O17   O     O_3   0.230848 0.278784 0.030753 -0.700293
O18   O     O_R   0.651120 0.659650 0.491200 -0.567388
O19   O     O_R   0.348880 0.340350 0.508800 -0.647101
O20   O     O_R   0.389980 0.516390 0.577660 -0.614304
O21   O     O_R   0.610020 0.483610 0.422340 -0.597353
O22   O     O_R   0.610040 0.483570 0.564830 -0.528740
O23   O     O_R   0.389960 0.516430 0.435170 -0.601107
O24   O     O_2   0.722169 0.541409 0.776315 -0.491913
Zn1   Zn    Zn3+2 0.353060 0.521910 0.508560 1.033884
Zn2   Zn    Zn3+2 0.646940 0.478090 0.491440 1.098977

loop_
_geom_bond_atom_site_label_1
_geom_bond_atom_site_label_2
_ccdc_geom_bond_type
N3    Zn2   S    
C27   O24   S    
C24   I3    S    
C40   N1    S    
C44   I8    S    
H1    O5    S    
N4    O9    S    
C36   I1    S    
C11   I12   S    
C39   C41   A    
C13   I2    S    
C23   C42   A    
C3    C36   A    
C5    C11   A    
C11   C14   A    
C3    C33   A    
C32   O14   S    
C31   C40   A    
H5    O6    S    
C37   I5    S    
C30   O3    S    
C29   O4    S    
C31   O15   S    
C45   I9    S    
C32   C41   A    
C31   C33   A    
C17   O21   A    
O12   Zn2   S    
H3    O16   S    
N3    O10   S    
C2    C34   A    
C4    C35   A    
C23   C46   A    
C39   I7    S    
C28   N2    A    
C42   C44   A    
H8    O9    S    
O23   Zn1   S    
C38   I6    S    
C15   I11   S    
C16   O22   A    
C20   O6    S    
C1    O1    A    
C32   C35   A    
O21   Zn2   S    
C25   C26   S    
C12   C21   S    
C8    C18   A    
H11   O13   S    
H7    O8    S    
C18   O16   S    
C5    C9    A    
C18   C44   A    
C22   I4    S    
C21   O5    S    
O1    Zn1   S    
C43   C45   A    
N4    Zn1   S    
C41   N2    S    
C4    C17   S    
C20   C22   D    
C26   O7    S    
C7    C19   A    
H2    O15   S    
C13   C15   A    
C25   O8    S    
C22   C24   S    
C12   O19   A    
C28   O2    S    
C27   N1    A    
O18   Zn2   S    
C7    C9    A    
O19   Zn1   S    
C1    C20   S    
C34   C43   A    
H12   O14   S    
C6    C10   A    
C5    C8    A    
C30   N2    A    
C19   C45   A    
C6    C7    A    
C10   C23   A    
C1    O18   A    
C28   C43   A    
C16   O20   A    
C12   O12   A    
C29   C46   A    
C2    C30   A    
C36   C38   A    
C33   O13   S    
C37   C39   A    
C6    C13   A    
C38   C40   A    
C35   O11   S    
C27   C42   A    
H10   O11   S    
C9    C34   A    
O20   Zn1   S    
O22   Zn2   S    
C26   N4    D    
C25   N3    D    
H6    O7    S    
C2    C14   A    
C19   O17   S    
H4    O17   S    
C4    C37   A    
C8    C10   A    
C21   C24   D    
C14   I10   S    
C15   C46   A    
H9    O10   S    
C17   O23   A    
C3    C16   S    
C29   N1    A    
