data_mof_unit_66070.cif
_audit_creation_date              2012-12-10T21:18:24-0500
_audit_creation_method            fapswitch 2.2
_symmetry_space_group_name_H-M    P1
_symmetry_Int_Tables_number       1
_space_group_crystal_system       triclinic
_cell_length_a                    17.556413
_cell_length_b                    16.766386
_cell_length_c                    10.575909
_cell_angle_alpha                 90.667134
_cell_angle_beta                  90.339736
_cell_angle_gamma                 89.967131
_cell_volume                      3112.83301385

loop_
_atom_site_label
_atom_site_type_symbol
_atom_type_description
_atom_site_fract_x
_atom_site_fract_y
_atom_site_fract_z
_atom_type_partial_charge
C1    C     C_R   0.353543 0.500055 0.498754 0.932014
C2    C     C_R   0.646894 0.500001 0.497260 0.920501
C3    C     C_1   0.967084 0.506004 0.457449 -0.002142
C4    C     C_1   0.034654 0.507604 0.459058 -0.003246
C5    C     C_R   0.442956 0.831508 0.435677 0.082038
C6    C     C_R   0.524404 0.168711 0.607146 0.087371
C7    C     C_R   0.557177 0.832333 0.564255 0.085824
C8    C     C_R   0.475470 0.167117 0.393255 0.085287
C9    C     C_R   0.444376 0.747442 0.436739 -0.012314
C10   C     C_R   0.524269 0.252757 0.604347 -0.010948
C11   C     C_R   0.555652 0.748260 0.563267 -0.003356
C12   C     C_R   0.475325 0.251184 0.396160 -0.007785
C13   C     C_R   0.500085 0.875480 0.499974 0.008912
C14   C     C_R   0.500066 0.124329 0.500136 0.005828
C15   C     C_1   0.500109 0.963375 0.500038 0.106054
C16   C     C_1   0.500112 0.036440 0.500104 0.107132
C17   C     C_R   0.499522 0.499474 0.257231 0.932810
C18   C     C_R   0.499770 0.500589 0.742750 0.931708
C19   C     C_3   0.437578 0.537297 0.042371 0.116343
C20   C     C_3   0.560353 0.463400 0.957877 0.079303
C21   C     C_3   0.499684 0.575571 0.963373 0.096511
C22   C     C_3   0.498212 0.425037 0.036380 0.092922
C23   C     C_3   0.434783 0.462817 0.955008 -0.242401
C24   C     C_3   0.563075 0.537866 0.044829 -0.272197
C25   C     C_3   0.498574 0.501852 0.876571 -0.066084
C26   C     C_3   0.499487 0.498579 0.123369 -0.055154
C27   C     C_R   0.844108 0.561093 0.402746 -0.159596
C28   C     C_R   0.156257 0.462826 0.379425 -0.154752
C29   C     C_R   0.150453 0.548998 0.565173 -0.154004
C30   C     C_R   0.852749 0.442240 0.529812 -0.163128
C31   C     C_R   0.765345 0.560410 0.412621 0.129060
C32   C     C_R   0.234935 0.459068 0.390233 0.131491
C33   C     C_R   0.229095 0.545960 0.577537 0.119578
C34   C     C_R   0.774175 0.440130 0.541634 0.144612
C35   C     C_R   0.729474 0.500297 0.484537 -0.160362
C36   C     C_R   0.271578 0.500678 0.489937 -0.141620
C37   C     C_R   0.887010 0.502661 0.461797 0.057107
C38   C     C_R   0.114742 0.507637 0.466490 0.058744
H1    H     H_    0.382994 0.432958 0.916741 0.181954
H2    H     H_    0.615041 0.567679 0.082130 0.189836
H3    H     H_    0.871947 0.607296 0.349073 0.176701
H4    H     H_    0.127507 0.430802 0.303401 0.174874
H5    H     H_    0.117159 0.582729 0.633246 0.174317
H6    H     H_    0.887370 0.397195 0.575288 0.175883
H7    H     H_    0.400648 0.714062 0.386823 0.155867
H8    H     H_    0.543524 0.286088 0.686527 0.158268
H9    H     H_    0.599362 0.715525 0.613156 0.158632
H10   H     H_    0.455225 0.283362 0.314910 0.170102
N1    N     N_R   0.500000 0.707230 0.500000 -0.114029
N2    N     N_R   0.500000 0.292770 0.500000 -0.117068
O1    O     O_R   0.389110 0.566570 0.499990 -0.604800
O2    O     O_R   0.610890 0.433430 0.500010 -0.588016
O3    O     O_R   0.610890 0.566570 0.500010 -0.605578
O4    O     O_R   0.389110 0.433430 0.499990 -0.596645
O5    O     O_R   0.499980 0.566530 0.313950 -0.624475
O6    O     O_R   0.500020 0.433470 0.686050 -0.639695
O7    O     O_R   0.500020 0.566530 0.686050 -0.605058
O8    O     O_R   0.499980 0.433470 0.313950 -0.613301
Zn1   Zn    Zn3+2 0.500000 0.588860 0.500000 0.993080
Zn2   Zn    Zn3+2 0.500000 0.411140 0.500000 0.994045
N3    N     N_3   0.371188 0.578298 0.093562 -0.420660
H11   H     H_    0.340384 0.600912 0.017231 0.236124
H12   H     H_    0.390708 0.627404 0.146138 0.194801
N4    N     N_3   0.627111 0.422300 0.908787 -0.421714
H13   H     H_    0.659092 0.403357 0.986484 0.219954
H14   H     H_    0.607960 0.370862 0.861946 0.208936
N5    N     N_3   0.498356 0.657936 0.921116 -0.404494
H15   H     H_    0.498252 0.694369 0.001950 0.203331
H16   H     H_    0.549825 0.668549 0.875128 0.206871
N6    N     N_3   0.499361 0.342406 0.077166 -0.422574
H17   H     H_    0.508312 0.306761 0.996924 0.203277
H18   H     H_    0.444541 0.329017 0.108089 0.218654
I1    I     I_    0.707573 0.650340 0.308099 -0.335956
I2    I     I_    0.293810 0.393173 0.248442 -0.353315
I3    I     I_    0.279150 0.607800 0.733719 -0.336529
I4    I     I_    0.731210 0.344967 0.651748 -0.320532
I5    I     I_    0.353172 0.887880 0.336143 -0.250036
I6    I     I_    0.561236 0.113178 0.775780 -0.244794
I7    I     I_    0.647093 0.889984 0.663555 -0.238803
I8    I     I_    0.438513 0.109128 0.224723 -0.239494

loop_
_geom_bond_atom_site_label_1
_geom_bond_atom_site_label_2
_ccdc_geom_bond_type
C2    C35   S    
C9    H7    S    
O5    Zn1   S    
C11   H9    S    
C12   H10   S    
O3    Zn1   S    
O4    Zn2   S    
C7    C11   A    
C17   C26   S    
C32   C36   A    
C19   C21   S    
C24   C26   S    
C32   I2    S    
C31   I1    S    
C20   C25   S    
O8    Zn2   S    
C15   C16   T    
C29   C33   A    
C33   C36   A    
C6    I6    S    
C34   C35   A    
N3    H12   S    
C19   C26   S    
O2    Zn2   S    
C33   I3    S    
C20   C24   S    
C29   C38   A    
C10   H8    S    
N6    H17   S    
C17   O5    A    
C5    C13   A    
C18   O6    A    
C17   O8    A    
C29   H5    S    
C30   H6    S    
C18   C25   S    
C30   C34   A    
C27   C31   A    
N5    H15   S    
C28   C32   A    
C9    N1    A    
O6    Zn2   S    
C30   C37   A    
N5    H16   S    
N4    H14   S    
C20   N4    S    
C19   C23   S    
C1    O4    A    
C5    C9    A    
C11   N1    A    
C6    C14   A    
C27   H3    S    
C18   O7    A    
C28   C38   A    
C8    C12   A    
C1    O1    A    
C2    O2    A    
C4    C38   S    
C13   C15   S    
C31   C35   A    
O1    Zn1   S    
C5    I5    S    
C3    C4    T    
C10   N2    A    
C7    I7    S    
C21   C25   S    
C8    C14   A    
C20   C22   S    
C2    O3    A    
C6    C10   A    
C12   N2    A    
N1    Zn1   S    
N2    Zn2   S    
N4    H13   S    
C19   N3    S    
C23   H1    S    
C28   H4    S    
C24   H2    S    
C14   C16   S    
C23   C25   S    
N3    H11   S    
O7    Zn1   S    
C7    C13   A    
C3    C37   S    
C22   C26   S    
C21   C24   S    
C8    I8    S    
C22   C23   S    
N6    H18   S    
C22   N6    S    
C21   N5    S    
C27   C37   A    
C1    C36   S    
C34   I4    S    
