data_mof_unit_28236.cif
_audit_creation_date              2013-03-05T15:55:21-0500
_audit_creation_method            fapswitch 2.2
_symmetry_space_group_name_H-M    P1
_symmetry_Int_Tables_number       1
_space_group_crystal_system       triclinic
_cell_length_a                    27.706834
_cell_length_b                    10.668382
_cell_length_c                    9.913962
_cell_angle_alpha                 90.097677
_cell_angle_beta                  91.417464
_cell_angle_gamma                 92.324032
_cell_volume                      2927.12206441

loop_
_atom_site_label
_atom_site_type_symbol
_atom_site_description
_atom_site_fract_x
_atom_site_fract_y
_atom_site_fract_z
_atom_type_partial_charge
O1    O     O_R   0.500000 0.316780 0.614690 -0.647465
O2    O     O_R   0.500000 0.316750 0.385360 -0.638809
C1    C     C_R   0.506738 0.261868 0.501153 0.867101
O3    O     O_R   0.428760 0.500030 0.614650 -0.631844
O4    O     O_R   0.428750 0.500010 0.385320 -0.625109
C2    C     C_R   0.406417 0.498323 0.498779 0.854530
Zn1   Zn    Zn3+2 0.500000 0.500020 0.653130 0.910443
Zn2   Zn    Zn3+2 0.500000 0.499980 0.346870 0.924848
O5    O     O_R   0.500000 0.683250 0.614640 -0.647139
O6    O     O_R   0.500000 0.683220 0.385310 -0.613756
O7    O     O_R   0.571250 0.499990 0.614680 -0.636167
O8    O     O_R   0.571240 0.499970 0.385350 -0.618278
C3    C     C_R   0.497277 0.740102 0.500183 0.894198
C4    C     C_R   0.593873 0.499101 0.501435 0.849426
C5    C     C_R   0.177365 0.404602 0.572582 0.506407
O9    O     O_2   0.201610 0.313949 0.636580 -0.578876
N1    N     N_R   0.202049 0.498627 0.506127 -0.347341
C6    C     C_R   0.178400 0.594476 0.445281 0.507758
C7    C     C_R   0.281739 0.601270 0.549204 -0.092632
C8    C     C_R   0.331690 0.600583 0.545044 -0.252859
C9    C     C_R   0.326515 0.386808 0.455610 0.062525
C10   C     C_R   0.276165 0.391532 0.453546 -0.119261
C11   C     C_R   0.253692 0.497587 0.501704 0.268060
C12   C     C_R   0.102112 0.502363 0.517607 -0.056053
C13   C     C_R   0.126906 0.402642 0.575796 -0.016572
C14   C     C_R   0.100962 0.304145 0.637158 -0.137927
C15   C     C_R   0.128211 0.600160 0.453513 -0.019910
C16   C     C_R   0.354173 0.494933 0.497055 -0.037510
H1    H     H_    0.254261 0.311210 0.417819 0.155842
H2    H     H_    0.119274 0.227331 0.684640 0.188908
C17   C     C_R   0.646467 0.495524 0.504785 -0.041019
C18   C     C_R   0.973900 0.396895 0.568623 0.057842
C19   C     C_R   0.976660 0.616282 0.492946 0.014526
C20   C     C_R   0.949897 0.507366 0.531537 0.069672
C21   C     C_R   0.946004 0.286359 0.593794 -0.227016
C22   C     C_R   0.896065 0.285642 0.586757 -0.165423
C23   C     C_R   0.872187 0.395438 0.556622 -0.000506
C24   C     C_R   0.898814 0.508208 0.531475 -0.078060
C25   C     C_R   0.874441 0.620731 0.505742 -0.056861
C26   C     C_R   0.823271 0.613451 0.501360 0.488014
N2    N     N_R   0.798742 0.501500 0.521704 -0.349985
C27   C     C_R   0.821928 0.393948 0.549184 0.494775
C28   C     C_R   0.721060 0.466283 0.630206 -0.106668
C29   C     C_R   0.670950 0.463900 0.624625 -0.235580
C30   C     C_R   0.672638 0.523847 0.388563 -0.230033
C31   C     C_R   0.722814 0.523995 0.393627 -0.107188
C32   C     C_R   0.747118 0.496978 0.514990 0.325569
O10   O     O_2   0.796190 0.285328 0.567562 -0.578806
C33   C     C_R   0.024974 0.399804 0.576781 0.042546
C34   C     C_R   0.051227 0.504228 0.523408 0.073920
C35   C     C_R   0.027042 0.610426 0.475571 0.054285
C36   C     C_R   0.050822 0.301900 0.636561 -0.224089
H3    H     H_    0.651414 0.437368 0.713862 0.159995
H4    H     H_    0.739718 0.444579 0.724033 0.143375
H5    H     H_    0.876197 0.198000 0.605193 0.185728
H6    H     H_    0.961854 0.197386 0.613802 0.137818
H7    H     H_    0.033234 0.224102 0.687599 0.143405
O11   O     O_2   0.203364 0.683589 0.376273 -0.568000
C37   C     C_R   0.103717 0.700548 0.397951 -0.137377
H8    H     H_    0.352956 0.682235 0.580369 0.141377
H9    H     H_    0.264773 0.682569 0.589342 0.160150
H10   H     H_    0.122899 0.775884 0.346021 0.189449
C38   C     C_R   0.952539 0.728783 0.476162 -0.248087
C39   C     C_R   0.902401 0.734146 0.485922 0.121608
O12   O     O_2   0.797665 0.715723 0.475789 -0.586946
C40   C     C_R   0.054034 0.706368 0.409742 -0.224071
H11   H     H_    0.972666 0.816175 0.460957 0.140440
H12   H     H_    0.654440 0.547245 0.294515 0.156259
H13   H     H_    0.742892 0.546454 0.303888 0.139216
H14   H     H_    0.037343 0.784910 0.361713 0.143607
C41   C     C_R   0.519630 0.117931 0.759174 -0.133526
H15   H     H_    0.541511 0.203494 0.773031 0.158827
C42   C     C_R   0.501320 0.060341 0.874212 -0.153575
H16   H     H_    0.507104 0.104585 0.971729 0.138798
C43   C     C_R   0.473820 0.948891 0.862183 -0.166573
H17   H     H_    0.457466 0.906931 0.950213 0.143631
C44   C     C_R   0.468938 0.889112 0.737155 -0.160442
H18   H     H_    0.447076 0.802897 0.731624 0.162481
C45   C     C_R   0.491722 0.941262 0.622354 0.082124
C46   C     C_R   0.510217 0.064453 0.629620 0.076313
C47   C     C_R   0.517312 0.129849 0.506446 -0.176896
C48   C     C_R   0.525309 0.062930 0.386228 0.096030
H19   H     H_    0.523214 0.881798 0.296811 0.165640
C49   C     C_R   0.515992 0.934992 0.386847 -0.245235
C50   C     C_R   0.498145 0.874630 0.501517 -0.157932
H20   H     H_    0.551809 0.645488 0.134217 0.148214
C51   C     C_R   0.437301 0.333461 0.135219 -0.168916
H21   H     H_    0.435327 0.330467 0.241698 0.203474
C52   C     C_R   0.406620 0.249689 0.063530 -0.202776
H22   H     H_    0.382836 0.184843 0.116632 0.151186
C53   C     C_R   0.406382 0.249426 0.923922 -0.169747
H23   H     H_    0.382499 0.184048 0.868321 0.151934
C54   C     C_R   0.436938 0.332642 0.855417 -0.128387
H24   H     H_    0.434569 0.326767 0.748282 0.208479
C55   C     C_R   0.468989 0.417573 0.925228 0.124529
C56   C     C_R   0.469155 0.417602 0.069670 0.148590
N3    N     N_R   0.499540 0.498800 0.142780 -0.134213
C57   C     C_R   0.528923 0.579967 0.075789 -0.146271
C58   C     C_R   0.530185 0.579243 0.932989 0.126765
N4    N     N_R   0.499520 0.498720 0.857170 -0.144080
C59   C     C_3   0.349032 0.264039 0.420951 -0.459388
C60   C     C_3   0.339521 0.165343 0.530505 -0.315196
C61   C     C_3   0.366074 0.045688 0.502637 -0.874386
H25   H     H_    0.353548 0.004040 0.404501 0.268583
H26   H     H_    0.405644 0.066461 0.500177 0.261386
H27   H     H_    0.358808 0.976339 0.583793 0.249675
H28   H     H_    0.352167 0.203665 0.630125 0.220742
H29   H     H_    0.300164 0.141678 0.535214 0.245753
H30   H     H_    0.334013 0.229420 0.322147 0.205055
H31   H     H_    0.388585 0.276191 0.411662 0.199086
C62   C     C_3   0.881955 0.864144 0.477416 -0.350061
C63   C     C_3   0.867834 0.897345 0.331518 -0.319110
C64   C     C_3   0.845994 0.026268 0.323808 -0.816358
H32   H     H_    0.813323 0.028563 0.386402 0.292160
H33   H     H_    0.872794 0.099877 0.359693 0.255800
H34   H     H_    0.835472 0.046918 0.217620 0.244788
H35   H     H_    0.900492 0.897973 0.268491 0.205751
H36   H     H_    0.841372 0.826275 0.288538 0.258380
H37   H     H_    0.851807 0.874420 0.547492 0.244990
H38   H     H_    0.909591 0.935567 0.514451 0.163429
C65   C     C_3   0.545279 0.121398 0.257885 -0.403250
C66   C     C_3   0.594872 0.187866 0.283076 -0.284943
C67   C     C_3   0.611382 0.259278 0.157983 -0.875202
H39   H     H_    0.613624 0.194162 0.071001 0.251447
H40   H     H_    0.585725 0.333375 0.131907 0.267687
H41   H     H_    0.647642 0.304530 0.178184 0.251902
H42   H     H_    0.593716 0.255008 0.368248 0.224361
H43   H     H_    0.621821 0.117078 0.310043 0.218146
H44   H     H_    0.550057 0.048009 0.180072 0.174009
H45   H     H_    0.519183 0.185013 0.210924 0.227557
C68   C     C_3   0.565867 0.671476 0.870390 -0.373838
C69   C     C_3   0.618218 0.646798 0.914316 -0.409974
C70   C     C_3   0.654133 0.729624 0.836732 -0.828527
H46   H     H_    0.649835 0.712257 0.726530 0.270407
H47   H     H_    0.648356 0.830176 0.857613 0.260810
H48   H     H_    0.691574 0.708138 0.868802 0.252294
H49   H     H_    0.623955 0.666648 0.023667 0.215393
H50   H     H_    0.625699 0.546753 0.896944 0.228429
H51   H     H_    0.563694 0.668359 0.760600 0.276522
H52   H     H_    0.557083 0.768105 0.900908 0.186843

loop_
_geom_bond_atom_site_label_1
_geom_bond_atom_site_label_2
_geom_bond_distance
_ccdc_geom_bond_type
C51   H21   1.058871 S    
C54   H24   1.064115 S    
C10   H1    1.083608 S    
N2    C27   1.362226 A    
C55   C56   1.431889 A    
C12   C15   1.406775 A    
C4    C17   1.458823 S    
C28   C29   1.387337 A    
C47   C48   1.415005 A    
C67   H39   1.110932 S    
C40   H14   1.079155 S    
C44   H18   1.081148 S    
Zn1   O7    2.019828 S    
C25   C39   1.426556 A    
C59   C60   1.534043 S    
C22   C23   1.397581 A    
C37   C40   1.388275 A    
O4    C2    1.296949 A    
O7    C4    1.299506 A    
C67   H40   1.110971 S    
C69   H50   1.109455 S    
C5    O9    1.350119 S    
C57   C58   1.417028 A    
C23   C27   1.392080 A    
C62   H37   1.108290 S    
C42   H16   1.080649 S    
C66   H42   1.108260 S    
O5    C3    1.289562 A    
C63   C64   1.526198 S    
C31   H13   1.082960 S    
C68   H52   1.111930 S    
C29   H3    1.080693 S    
C6    O11   1.350041 S    
C2    C16   1.446172 S    
C58   N4    1.389909 A    
C69   C70   1.526926 S    
C1    C47   1.450941 S    
C70   H48   1.110398 S    
C60   H29   1.111421 S    
C8    H8    1.084324 S    
C65   H45   1.106513 S    
C48   C65   1.524376 S    
C19   C38   1.405364 A    
C64   H34   1.110229 S    
C9    C59   1.515939 S    
C54   C55   1.410953 A    
O1    Zn1   1.991036 S    
C9    C10   1.397636 A    
C51   C56   1.404674 A    
C42   C43   1.389252 A    
O3    Zn1   2.001083 S    
C41   C46   1.418464 A    
N3    C57   1.351006 A    
C44   C45   1.418664 A    
C12   C34   1.413377 A    
C24   C25   1.421420 A    
C38   H11   1.079555 S    
C17   C29   1.401983 A    
C18   C21   1.409570 A    
C49   C50   1.398594 A    
O3    C2    1.291122 A    
Zn1   N4    2.023284 S    
C53   H23   1.082333 S    
C41   C42   1.393309 A    
C55   N4    1.375172 A    
C39   C62   1.520908 S    
C27   O10   1.350817 S    
C8    C16   1.398054 A    
C34   C35   1.416066 A    
C59   H31   1.104446 S    
C30   C31   1.389828 A    
C38   C39   1.398384 A    
C62   H38   1.113336 S    
O1    C1    1.289203 A    
C35   C40   1.413216 A    
C18   C20   1.421046 A    
C7    C11   1.399837 A    
C43   H17   1.082493 S    
C23   C24   1.411381 A    
C14   C36   1.388311 A    
C53   C54   1.391291 A    
C28   H4    1.082946 S    
H19   C49   1.084056 S    
Zn2   O8    2.001080 S    
C33   C36   1.413100 A    
C56   N3    1.375868 A    
C30   H12   1.083330 S    
N1    C6    1.369572 A    
N2    C32   1.429087 S    
C60   H28   1.111394 S    
C61   H26   1.110539 S    
N1    C11   1.433123 S    
C12   C13   1.406523 A    
C43   C44   1.394077 A    
C65   C66   1.535128 S    
C26   N2    1.367766 A    
C9    C16   1.413438 A    
O8    C4    1.297148 A    
C14   H2    1.083423 S    
C48   C49   1.378824 A    
C26   O12   1.346435 S    
C51   C52   1.390261 A    
C70   H46   1.110511 S    
C52   C53   1.383919 A    
C68   C69   1.537186 S    
C52   H22   1.082307 S    
C45   C50   1.410687 A    
C64   H32   1.111131 S    
C5    N1    1.369988 A    
C31   C32   1.400373 A    
C37   H10   1.083418 S    
C62   C63   1.534830 S    
C21   H6    1.078573 S    
C20   C24   1.415729 A    
O2    Zn2   1.992301 S    
C6    C15   1.398741 A    
C65   H44   1.112217 S    
C46   C47   1.421348 A    
C67   H41   1.110336 S    
O6    C3    1.294808 A    
O4    Zn2   2.019831 S    
C19   C35   1.414621 A    
C58   C68   1.511392 S    
C7    C8    1.385933 A    
O2    C1    1.302320 A    
C13   C14   1.397693 A    
C41   H15   1.081765 S    
C22   H5    1.083734 S    
C15   C37   1.397656 A    
C63   H36   1.110107 S    
C63   H35   1.112101 S    
C28   C32   1.398613 A    
C7    H9    1.082918 S    
Zn2   N3    2.023080 S    
C19   C20   1.411391 A    
C61   H27   1.110504 S    
C66   H43   1.111697 S    
C60   C61   1.527136 S    
H20   C57   1.082001 S    
C18   C33   1.414482 A    
C68   H51   1.089011 S    
C36   H7    1.078512 S    
C45   C46   1.392217 A    
C25   C26   1.416306 A    
Zn1   O5    1.992304 S    
C5    C13   1.398522 A    
Zn2   O6    1.991036 S    
C33   C34   1.416161 A    
C17   C30   1.403368 A    
C3    C50   1.434452 S    
C61   H25   1.110741 S    
C70   H47   1.110868 S    
C10   C11   1.402058 A    
C21   C22   1.383406 A    
C69   H49   1.110566 S    
C66   C67   1.526660 S    
C59   H30   1.111383 S    
C64   H33   1.110558 S    
