data_mof_unit_52430.cif
_audit_creation_date              2013-03-05T15:49:17-0500
_audit_creation_method            fapswitch 2.2
_symmetry_space_group_name_H-M    P1
_symmetry_Int_Tables_number       1
_space_group_crystal_system       triclinic
_cell_length_a                    10.659479
_cell_length_b                    11.951462
_cell_length_c                    12.818902
_cell_angle_alpha                 94.262851
_cell_angle_beta                  89.334503
_cell_angle_gamma                 87.362196
_cell_volume                      1626.65266463

loop_
_atom_site_label
_atom_site_type_symbol
_atom_site_description
_atom_site_fract_x
_atom_site_fract_y
_atom_site_fract_z
_atom_type_partial_charge
O1    O     O_R   0.506170 0.421690 0.658830 -0.624052
O2    O     O_R   0.491330 0.609320 0.646410 -0.640168
C1    C     C_R   0.497978 0.523010 0.700599 0.883674
O3    O     O_R   0.690660 0.406170 0.506210 -0.627258
O4    O     O_R   0.675810 0.593790 0.493790 -0.628683
C2    C     C_R   0.740017 0.500183 0.492584 0.867359
Zn1   Zn    Zn3+2 0.509910 0.374720 0.508290 0.914923
Zn2   Zn    Zn3+2 0.490090 0.625280 0.491710 0.926417
O5    O     O_R   0.508670 0.390680 0.353590 -0.630983
O6    O     O_R   0.493830 0.578310 0.341170 -0.614370
O7    O     O_R   0.324190 0.406210 0.506210 -0.627119
O8    O     O_R   0.309340 0.593830 0.493790 -0.610951
C3    C     C_R   0.502650 0.476842 0.299664 0.874205
C4    C     C_R   0.259981 0.500104 0.512536 0.894743
H1    H     H_    0.868013 0.672147 0.555427 0.166170
C5    C     C_R   0.903340 0.307314 0.396616 0.199256
C6    C     C_R   0.961080 0.201206 0.408810 -0.145229
H2    H     H_    0.925753 0.126391 0.368715 0.141716
C7    C     C_R   0.065029 0.190896 0.472421 -0.236261
H3    H     H_    0.106838 0.108607 0.484318 0.152149
C8    C     C_R   0.118905 0.286879 0.516687 -0.148644
H4    H     H_    0.198565 0.274691 0.566653 0.167979
C9    C     C_R   0.065642 0.395116 0.501433 0.054084
C10   C     C_R   0.946505 0.402527 0.457742 0.046465
C11   C     C_R   0.873555 0.502149 0.484603 -0.171768
C12   C     C_R   0.926432 0.597884 0.530819 -0.222216
C13   C     C_R   0.053046 0.598476 0.550393 0.162382
C14   C     C_R   0.125492 0.496978 0.528654 -0.191991
C15   C     C_R   0.501408 0.460081 0.188558 -0.038813
C16   C     C_R   0.501835 0.538955 0.812832 -0.140203
C17   C     C_R   0.604386 0.611383 0.968145 -0.210832
C18   C     C_R   0.591214 0.610282 0.860244 0.108759
C19   C     C_R   0.426902 0.470656 0.871549 0.080321
C20   C     C_R   0.458777 0.459247 0.975992 0.136819
C21   C     C_R   0.542038 0.535376 0.024704 0.095828
C22   C     C_R   0.560917 0.536292 0.131053 -0.255381
C23   C     C_R   0.432445 0.375218 0.140243 -0.202507
C24   C     C_R   0.411330 0.374325 0.033978 -0.207766
H5    H     H_    0.619132 0.598380 0.170049 0.144401
H6    H     H_    0.389894 0.313345 0.185340 0.152857
H7    H     H_    0.667066 0.667761 0.008882 0.162752
H8    H     H_    0.359664 0.305864 0.999363 0.132077
N1    N     N_R   0.523130 0.207800 0.519340 -0.130662
N2    N     N_R   0.476870 0.792180 0.480660 -0.094169
C25   C     C_R   0.377593 0.952819 0.410112 -0.330772
C26   C     C_R   0.390656 0.836738 0.416350 0.038139
C27   C     C_R   0.555786 0.858277 0.537551 -0.067732
C28   C     C_R   0.548829 0.976347 0.532859 0.013661
C29   C     C_R   0.456284 0.023331 0.468717 0.078291
C30   C     C_R   0.445347 0.140122 0.463487 -0.102237
C31   C     C_R   0.614223 0.165215 0.580472 0.006317
C32   C     C_R   0.631100 0.048253 0.589120 0.058185
H9    H     H_    0.375443 0.177588 0.414444 0.144672
H10   H     H_    0.673509 0.223955 0.621659 0.162862
H11   H     H_    0.307137 0.987072 0.359545 0.143308
H12   H     H_    0.331780 0.781810 0.369870 0.132493
H13   H     H_    0.623658 0.817593 0.585848 0.115649
C33   C     C_3   0.671570 0.682404 0.794586 -0.356121
C34   C     C_3   0.777487 0.743009 0.851294 -0.940272
H14   H     H_    0.738420 0.807599 0.911229 0.263624
H15   H     H_    0.841650 0.681945 0.888033 0.268462
H16   H     H_    0.832956 0.786419 0.793910 0.250010
H17   H     H_    0.716375 0.627972 0.729105 0.205652
H18   H     H_    0.609238 0.747164 0.761132 0.214763
C35   C     C_3   0.308227 0.420024 0.824575 -0.412514
C36   C     C_3   0.211370 0.512044 0.800136 -0.887173
H19   H     H_    0.250764 0.567571 0.744284 0.241876
H20   H     H_    0.127254 0.473725 0.764925 0.251255
H21   H     H_    0.182194 0.563220 0.873000 0.266224
H22   H     H_    0.330397 0.364218 0.753266 0.226485
H23   H     H_    0.258884 0.367320 0.877253 0.201749
C37   C     C_3   0.734863 0.999119 0.655476 -0.434240
C38   C     C_3   0.823875 0.083074 0.706607 -0.884047
H24   H     H_    0.871758 0.128546 0.646173 0.266741
H25   H     H_    0.771833 0.143674 0.763196 0.257906
H26   H     H_    0.896875 0.037095 0.750050 0.254327
H27   H     H_    0.690948 0.954440 0.718502 0.215704
H28   H     H_    0.793327 0.936783 0.605167 0.205713
C39   C     C_3   0.804985 0.316838 0.312573 -0.374286
C40   C     C_3   0.858637 0.279579 0.203790 -0.905262
H29   H     H_    0.941642 0.328457 0.186648 0.266589
H30   H     H_    0.886328 0.188635 0.197651 0.255495
H31   H     H_    0.786154 0.294628 0.144194 0.261966
H32   H     H_    0.725135 0.264275 0.329995 0.232268
H33   H     H_    0.768854 0.404762 0.308494 0.192998
C41   C     C_3   0.101879 0.706036 0.602810 -0.384177
C42   C     C_3   0.093070 0.802203 0.530630 -0.839554
H34   H     H_    0.144362 0.874548 0.565045 0.245318
H35   H     H_    0.134474 0.774770 0.452672 0.263603
H36   H     H_    0.993568 0.830461 0.520528 0.238717
H37   H     H_    0.044650 0.730599 0.674654 0.191188
H38   H     H_    0.199414 0.696067 0.630074 0.220861

loop_
_geom_bond_atom_site_label_1
_geom_bond_atom_site_label_2
_geom_bond_distance
_ccdc_geom_bond_type
C36   H20   1.110804 S    
C42   H34   1.110650 S    
C1    C16   1.438480 S    
C38   H24   1.111289 S    
C21   C22   1.379678 A    
C18   C33   1.531053 S    
C19   C35   1.537213 S    
C25   C26   1.396234 A    
Zn1   O7    1.998904 S    
C15   C22   1.384748 A    
C12   C13   1.375868 A    
C37   H27   1.111466 S    
C3    C15   1.423753 S    
C7    C8    1.392534 A    
C24   H8    1.078358 S    
C23   H6    1.084006 S    
C41   H37   1.112094 S    
O3    Zn1   1.980184 S    
C39   H32   1.111146 S    
O7    C4    1.284050 A    
C36   H21   1.110876 S    
C35   H22   1.107301 S    
C20   C21   1.417099 A    
O5    C3    1.281858 A    
C37   H28   1.111672 S    
C17   C18   1.391048 A    
C5    C6    1.404029 A    
C9    C10   1.395637 A    
Zn1   N1    2.009053 S    
N2    C27   1.361354 A    
C36   H19   1.103918 S    
C34   H14   1.111046 S    
C5    C10   1.429900 A    
C20   C24   1.410352 A    
C8    H4    1.080567 S    
C38   H25   1.110880 S    
C40   H31   1.110992 S    
N2    C26   1.358515 A    
C19   C20   1.399994 A    
C33   H18   1.110419 S    
C34   H15   1.111232 S    
C30   H9    1.083052 S    
C31   C32   1.413872 A    
C10   C11   1.410123 A    
O3    C2    1.284997 A    
C41   C42   1.528431 S    
C37   C38   1.530018 S    
H1    C12   1.085339 S    
C11   C12   1.394328 A    
C35   H23   1.102215 S    
O1    C1    1.285858 A    
C13   C41   1.521929 S    
C23   C24   1.382586 A    
C32   C37   1.525809 S    
C27   H13   1.079778 S    
C27   C28   1.415431 A    
C25   C29   1.401329 A    
Zn2   O8    1.980181 S    
C6    H2    1.082882 S    
C9    C14   1.422792 A    
C40   H30   1.109923 S    
C28   C29   1.414575 A    
O8    C4    1.296397 A    
C35   C36   1.525718 S    
C42   H35   1.108456 S    
C38   H26   1.110774 S    
C17   C21   1.390979 A    
C26   H12   1.080877 S    
C39   H33   1.107551 S    
C33   H17   1.112113 S    
Zn1   O5    2.006436 S    
C34   H16   1.111184 S    
C17   H7    1.081823 S    
C16   C19   1.417120 A    
O1    Zn1   1.968702 S    
C22   H5    1.086296 S    
O2    Zn2   2.006438 S    
Zn2   N2    2.008816 S    
C40   H29   1.111090 S    
O6    C3    1.286456 A    
O4    Zn2   1.998904 S    
N1    C30   1.357843 A    
C5    C39   1.518639 S    
C31   H10   1.079104 S    
C7    H3    1.082882 S    
C8    C9    1.416519 A    
O2    C1    1.285510 A    
C33   C34   1.530953 S    
C41   H38   1.104752 S    
C16   C18   1.419496 A    
N1    C31   1.359214 A    
O4    C2    1.283337 A    
C6    C7    1.389690 A    
C39   C40   1.528281 S    
C2    C11   1.427330 S    
C28   C32   1.421146 A    
C25   H11   1.083629 S    
Zn2   O6    1.968702 S    
C29   C30   1.401972 A    
C42   H36   1.110187 S    
C15   C23   1.392287 A    
C13   C14   1.415632 A    
C4    C14   1.448609 S    
