data_mof_unit_12926.cif
_audit_creation_date              2012-12-10T17:46:22-0500
_audit_creation_method            fapswitch 2.2
_symmetry_space_group_name_H-M    P1
_symmetry_Int_Tables_number       1
_space_group_crystal_system       triclinic
_cell_length_a                    14.14307
_cell_length_b                    10.637923
_cell_length_c                    9.980388
_cell_angle_alpha                 89.842562
_cell_angle_beta                  89.27118
_cell_angle_gamma                 92.964606
_cell_volume                      1499.43857502

loop_
_atom_site_label
_atom_site_type_symbol
_atom_type_description
_atom_site_fract_x
_atom_site_fract_y
_atom_site_fract_z
_atom_type_partial_charge
C1    C     C_R   0.502344 0.260885 0.500171 0.868493
C2    C     C_R   0.437891 0.060057 0.433216 -0.187471
C3    C     C_R   0.438212 0.931609 0.432539 -0.185202
C4    C     C_R   0.329412 0.499807 0.500710 0.903520
C5    C     C_R   0.509358 0.872236 0.499125 -0.065348
C6    C     C_R   0.387489 0.322519 0.148898 -0.198000
C7    C     C_R   0.342107 0.220305 0.089665 -0.380003
C8    C     C_R   0.341285 0.210698 0.951672 0.384072
C9    C     C_R   0.382696 0.310090 0.872588 0.445078
C10   C     C_R   0.443730 0.408060 0.931188 0.036316
C11   C     C_R   0.444549 0.410741 0.075476 0.106568
C12   C     C_1   0.772123 0.500320 0.498128 -0.183897
C13   C     C_R   0.553182 0.585407 0.069735 -0.090128
C14   C     C_R   0.553067 0.585561 0.927253 -0.095107
C15   C     C_R   0.502839 0.739392 0.499759 0.847025
C16   C     C_R   0.670601 0.500660 0.499267 0.847959
C17   C     C_1   0.227862 0.499530 0.501989 -0.195025
C18   C     C_1   0.142553 0.499391 0.501884 -0.000861
C19   C     C_1   0.042613 0.499425 0.500862 0.018912
C20   C     C_1   0.957327 0.499610 0.499697 0.021087
C21   C     C_1   0.857406 0.499967 0.498481 0.010762
C22   C     C_R   0.659524 0.141431 0.624694 -0.228143
C23   C     C_R   0.733143 0.080937 0.684954 -0.250779
C24   C     C_R   0.733937 0.949171 0.684541 0.509826
C25   C     C_R   0.660205 0.879507 0.623217 -0.198388
C26   C     C_R   0.584290 0.939681 0.563441 0.008790
C27   C     C_R   0.583965 0.071412 0.564099 0.094809
C28   C     C_R   0.508800 0.128898 0.500223 -0.061900
H1    H     H_    0.596573 0.655798 0.873112 0.155004
H2    H     H_    0.271023 0.047708 0.959873 0.343578
H3    H     H_    0.301092 0.257135 0.722844 0.357911
H4    H     H_    0.852450 0.948186 0.780433 0.332702
H5    H     H_    0.663438 0.243101 0.624589 0.164834
H6    H     H_    0.790020 0.137055 0.730663 0.145028
H7    H     H_    0.664146 0.778267 0.621330 0.159576
H8    H     H_    0.381663 0.878049 0.382651 0.150540
H9    H     H_    0.596862 0.655566 0.121699 0.149090
H10   H     H_    0.375519 0.328654 0.253514 0.229485
H11   H     H_    0.304095 0.150575 0.152016 0.165929
H12   H     H_    0.381092 0.106004 0.383912 0.137180
N1    N     N_R   0.499190 0.498800 0.142780 -0.097318
N2    N     N_R   0.499160 0.498720 0.857170 -0.088023
O1    O     O_R   0.500000 0.316780 0.614690 -0.550615
O2    O     O_3   0.356238 0.315254 0.741889 -0.719047
O3    O     O_3   0.806020 0.885822 0.741679 -0.770173
O4    O     O_R   0.499990 0.316750 0.385360 -0.635295
O5    O     O_R   0.373720 0.500010 0.614690 -0.518867
O6    O     O_R   0.373710 0.499990 0.385360 -0.629259
O7    O     O_R   0.500010 0.683250 0.614640 -0.613788
O8    O     O_R   0.500000 0.683220 0.385310 -0.610127
O9    O     O_R   0.626290 0.500010 0.614640 -0.608720
O10   O     O_R   0.626280 0.499990 0.385310 -0.588652
O11   O     O_3   0.295597 0.108375 0.890546 -0.774899
Zn1   Zn    Zn3+2 0.500010 0.500020 0.653130 0.988257
Zn2   Zn    Zn3+2 0.499990 0.499980 0.346870 0.942708

loop_
_geom_bond_atom_site_label_1
_geom_bond_atom_site_label_2
_ccdc_geom_bond_type
C8    O11   S    
O4    Zn2   S    
C1    C28   S    
C23   C24   A    
C16   O9    A    
C6    C7    A    
C2    H12   S    
C10   N2    A    
H4    O3    S    
O1    Zn1   S    
C13   H9    S    
O8    Zn2   S    
O10   Zn2   S    
C14   N2    A    
C23   H6    S    
C10   C11   A    
O9    Zn1   S    
C6    H10   S    
C17   C18   T    
C25   C26   A    
O6    Zn2   S    
C7    C8    A    
O7    Zn1   S    
C13   C14   A    
N2    Zn1   S    
C26   C27   A    
C3    H8    S    
C25   H7    S    
O5    Zn1   S    
C4    C17   S    
C13   N1    A    
C11   N1    A    
C2    C3    A    
C22   C27   A    
C15   O7    A    
C4    O6    A    
H2    O11   S    
C1    O4    A    
C5    C15   S    
H3    O2    S    
C24   O3    S    
C14   H1    S    
C5    C26   A    
C12   C16   S    
C6    C11   A    
C24   C25   A    
C16   O10   A    
C18   C19   S    
C9    C10   A    
C15   O8    A    
C27   C28   A    
C22   H5    S    
C7    H11   S    
C22   C23   A    
N1    Zn2   S    
C9    O2    S    
C2    C28   A    
C20   C21   S    
C12   C21   T    
C1    O1    A    
C19   C20   T    
C8    C9    A    
C3    C5    A    
C4    O5    A    
