data_mof_unit_65720.cif
_audit_creation_date              2012-12-10T19:52:14-0500
_audit_creation_method            fapswitch 2.2
_symmetry_space_group_name_H-M    P1
_symmetry_Int_Tables_number       1
_space_group_crystal_system       triclinic
_cell_length_a                    18.277508
_cell_length_b                    18.278302
_cell_length_c                    31.880423
_cell_angle_alpha                 90.0
_cell_angle_beta                  90.00001
_cell_angle_gamma                 90.000011
_cell_volume                      10650.6694523

loop_
_atom_site_label
_atom_site_type_symbol
_atom_type_description
_atom_site_fract_x
_atom_site_fract_y
_atom_site_fract_z
_atom_type_partial_charge
C1    C     C_R   0.641225 0.500020 1.000000 0.938182
C2    C     C_1   0.499996 0.500530 0.163301 0.071244
C3    C     C_1   0.999994 0.000530 0.336699 0.071244
C4    C     C_1   0.000008 0.000530 0.663301 0.071245
C5    C     C_1   0.500005 0.500367 0.663319 -0.046966
C6    C     C_1   0.499998 0.500367 0.336681 -0.046966
C7    C     C_1   0.999997 0.000367 0.163319 -0.046966
C8    C     C_1   0.000004 0.000367 0.836681 -0.046967
C9    C     C_1   0.717648 0.500056 1.000000 -0.169065
C10   C     C_1   0.282352 0.500056 0.000000 -0.169162
C11   C     C_1   0.217648 0.000056 0.500000 -0.169094
C12   C     C_R   0.358775 0.500020 0.000000 0.938088
C13   C     C_1   0.782352 0.000056 0.500000 -0.169132
C14   C     C_1   0.782390 0.500048 1.000000 -0.171780
C15   C     C_1   0.217610 0.500048 0.000000 -0.171863
C16   C     C_1   0.282390 0.000048 0.500000 -0.171805
C17   C     C_1   0.717610 0.000048 0.500000 -0.171838
C18   C     C_R   0.500000 0.358651 0.500000 0.933957
C19   C     C_R   0.000000 0.858651 0.000000 0.933957
C20   C     C_R   0.500000 0.499859 0.581385 0.907576
C21   C     C_R   0.500000 0.499859 0.418615 0.907576
C22   C     C_R   1.000000 0.999859 0.081385 0.907576
C23   C     C_R   0.141225 0.000020 0.500000 0.938154
C24   C     C_R   0.000000 0.999859 0.918615 0.907576
C25   C     C_R   0.500000 0.641068 0.500000 0.930260
C26   C     C_R   1.000000 0.141068 0.000000 0.930260
C27   C     C_R   0.000000 0.641152 0.000000 0.931373
C28   C     C_R   0.500000 0.141152 0.500000 0.931373
C29   C     C_R   0.858814 0.500018 0.000000 0.928654
C30   C     C_R   0.141186 0.500018 0.000000 0.928651
C31   C     C_R   0.358814 0.000018 0.500000 0.928654
C32   C     C_R   0.641186 0.000018 0.500000 0.928652
C33   C     C_R   0.500000 0.500007 0.918619 0.904665
C34   C     C_R   0.858775 0.000020 0.500000 0.938117
C35   C     C_R   0.500000 0.500007 0.081381 0.904666
C36   C     C_R   0.000000 0.000007 0.418619 0.904666
C37   C     C_R   1.000000 0.000007 0.581381 0.904666
C38   C     C_R   1.000000 0.358795 0.000000 0.927007
C39   C     C_R   0.500000 0.858795 0.500000 0.927007
C40   C     C_1   0.500000 0.282263 0.500000 -0.180606
C41   C     C_1   1.000000 0.782263 0.000000 -0.180606
C42   C     C_1   1.000000 0.717541 0.000000 -0.175282
C43   C     C_1   0.500000 0.217541 0.500000 -0.175282
C44   C     C_1   0.500000 0.717545 0.500000 -0.186563
C45   C     C_3   0.500843 0.570795 0.735503 -0.304829
C46   C     C_1   1.000000 0.217545 0.000000 -0.186562
C47   C     C_1   1.000000 0.282318 0.000000 -0.182033
C48   C     C_1   0.500000 0.782318 0.500000 -0.182033
C49   C     C_3   0.559871 0.465515 0.735877 -0.210506
C50   C     C_3   0.560436 0.466521 0.264122 -0.210535
C51   C     C_3   0.439331 0.466947 0.735878 -0.210546
C52   C     C_3   0.439889 0.465938 0.264122 -0.210517
C53   C     C_3   0.060491 0.966620 0.235878 -0.210538
C54   C     C_3   0.059962 0.965675 0.764123 -0.210510
C55   C     C_3   0.939945 0.965838 0.235877 -0.210515
C56   C     C_3   0.499656 0.570800 0.264497 -0.304829
C57   C     C_3   0.939419 0.966786 0.764122 -0.210542
C58   C     C_3   0.559786 0.534850 0.763463 0.026359
C59   C     C_3   0.559190 0.535844 0.236536 0.026339
C60   C     C_3   0.441065 0.536260 0.763464 0.026328
C61   C     C_3   0.440463 0.535270 0.236536 0.026347
C62   C     C_3   0.059131 0.035942 0.263464 0.026336
C63   C     C_3   0.059692 0.035009 0.736537 0.026355
C64   C     C_3   0.940404 0.035172 0.263463 0.026351
C65   C     C_3   0.940968 0.036103 0.736536 0.026332
C66   C     C_1   0.500004 0.500104 0.874177 -0.116537
C67   C     C_3   0.999539 0.070799 0.235503 -0.304829
C68   C     C_1   0.499998 0.500104 0.125823 -0.116537
C69   C     C_1   0.999998 0.000104 0.374177 -0.116537
C70   C     C_1   0.000003 0.000104 0.625823 -0.116537
C71   C     C_1   0.500001 0.500080 0.625837 -0.179709
C72   C     C_1   0.499999 0.500080 0.374163 -0.179708
C73   C     C_1   0.999999 0.000079 0.125836 -0.179709
C74   C     C_1   0.000001 0.000079 0.874163 -0.179708
C75   C     C_3   0.499193 0.431803 0.763982 -0.195967
C76   C     C_3   0.500328 0.431799 0.236018 -0.195967
C77   C     C_3   0.000441 0.931800 0.263982 -0.195966
C78   C     C_3   0.000655 0.070797 0.764497 -0.304830
C79   C     C_3   0.999374 0.931801 0.736018 -0.195967
C80   C     C_3   0.500021 0.501406 0.791229 0.164099
C81   C     C_3   0.499991 0.501406 0.208771 0.164099
C82   C     C_3   0.999989 0.001406 0.291229 0.164099
C83   C     C_3   0.000016 0.001406 0.708771 0.164099
C84   C     C_3   0.500011 0.500836 0.708714 0.184177
C85   C     C_3   0.499995 0.500836 0.291286 0.184177
C86   C     C_3   0.999994 0.000836 0.208714 0.184177
C87   C     C_3   0.000009 0.000836 0.791286 0.184177
C88   C     C_2   0.627925 0.573133 0.777518 0.391068
C89   C     C_1   0.500011 0.500531 0.836699 0.071244
C90   C     C_2   0.626680 0.575260 0.222480 0.391049
C91   C     C_2   0.373855 0.576150 0.777520 0.391043
C92   C     C_2   0.372595 0.574031 0.222481 0.391063
C93   C     C_2   0.126555 0.075469 0.277520 0.391048
C94   C     C_2   0.127729 0.073472 0.722482 0.391065
C95   C     C_2   0.872472 0.073820 0.277519 0.391064
C96   C     C_2   0.873653 0.075814 0.722480 0.391045
H1    H     H_    0.609037 0.436609 0.723892 0.145680
H2    H     H_    0.499381 0.627761 0.276604 0.148368
H3    H     H_    0.999170 0.127760 0.223396 0.148369
H4    H     H_    0.001179 0.127757 0.776604 0.148369
H5    H     H_    0.498518 0.374880 0.776114 0.153161
H6    H     H_    0.500604 0.374873 0.223886 0.153161
H7    H     H_    0.000810 0.874874 0.276114 0.153161
H8    H     H_    0.998849 0.874877 0.723886 0.153161
H9    H     H_    0.665895 0.594129 0.754318 0.062309
H10   H     H_    0.664295 0.596888 0.245680 0.062294
H11   H     H_    0.336393 0.598043 0.754321 0.062284
H12   H     H_    0.610078 0.438440 0.276106 0.145656
H13   H     H_    0.334773 0.595295 0.245681 0.062298
H14   H     H_    0.164134 0.097159 0.254320 0.062289
H15   H     H_    0.165644 0.094569 0.745682 0.062301
H16   H     H_    0.834616 0.095022 0.254319 0.062303
H17   H     H_    0.836133 0.097608 0.745679 0.062291
H18   H     H_    0.389493 0.439216 0.723895 0.145649
H19   H     H_    0.390521 0.437378 0.276107 0.145674
H20   H     H_    0.110179 0.938622 0.223894 0.145657
H21   H     H_    0.109204 0.936899 0.776107 0.145680
H22   H     H_    0.890624 0.937197 0.223893 0.145673
H23   H     H_    0.889654 0.938923 0.776105 0.145649
H24   H     H_    0.501519 0.627754 0.723396 0.148369
O1    O     O_R   0.607370 0.439420 0.000000 -0.622049
O2    O     O_R   0.392710 0.560580 0.000000 -0.612113
O3    O     O_R   0.107290 0.060580 0.500000 -0.612136
O4    O     O_R   0.892710 0.060580 0.500000 -0.612124
O5    O     O_R   0.500000 0.439420 0.938390 -0.627497
O6    O     O_R   0.500000 0.439420 0.061610 -0.627498
O7    O     O_R   1.000000 0.939420 0.438390 -0.627498
O8    O     O_R   0.000000 0.939420 0.561610 -0.627498
O9    O     O_R   0.500000 0.560580 0.938390 -0.598993
O10   O     O_R   0.500000 0.560580 0.061610 -0.598992
O11   O     O_R   0.000000 0.060580 0.438390 -0.598993
O12   O     O_R   0.392630 0.439420 0.000000 -0.622090
O13   O     O_R   0.000000 0.060580 0.561610 -0.598992
O14   O     O_R   0.560550 0.392540 0.500000 -0.616962
O15   O     O_R   0.439450 0.392540 0.500000 -0.616961
O16   O     O_R   0.060550 0.892540 0.000000 -0.616958
O17   O     O_R   0.939450 0.892540 0.000000 -0.616965
O18   O     O_R   0.560580 0.499860 0.561610 -0.616744
O19   O     O_R   0.560580 0.499860 0.438390 -0.616735
O20   O     O_R   0.439420 0.499860 0.561610 -0.616732
O21   O     O_R   0.439420 0.499860 0.438390 -0.616741
O22   O     O_R   0.060580 0.999860 0.061610 -0.616734
O23   O     O_R   0.107370 0.939420 0.500000 -0.622062
O24   O     O_R   0.060580 0.999860 0.938390 -0.616742
O25   O     O_R   0.939420 0.999860 0.061610 -0.616742
O26   O     O_R   0.939420 0.999860 0.938390 -0.616734
O27   O     O_R   0.560630 0.607160 0.500000 -0.618980
O28   O     O_R   0.439370 0.607160 0.500000 -0.618977
O29   O     O_R   0.060630 0.107160 0.000000 -0.618983
O30   O     O_R   0.939370 0.107160 0.000000 -0.618973
O31   O     O_R   0.000000 0.607310 0.965210 -0.617214
O32   O     O_R   1.000000 0.607310 0.034790 -0.617213
O33   O     O_R   0.500000 0.107310 0.465210 -0.617213
O34   O     O_R   0.892630 0.939420 0.500000 -0.622077
O35   O     O_R   0.500000 0.107310 0.534790 -0.617214
O36   O     O_R   0.892680 0.500000 0.965220 -0.616435
O37   O     O_R   0.892680 0.500000 0.034780 -0.616595
O38   O     O_R   0.107320 0.500000 0.965220 -0.616633
O39   O     O_R   0.107320 0.500000 0.034780 -0.616474
O40   O     O_R   0.392680 1.000000 0.465220 -0.616602
O41   O     O_R   0.392680 1.000000 0.534780 -0.616452
O42   O     O_R   0.607320 1.000000 0.465220 -0.616467
O43   O     O_R   0.607320 1.000000 0.534780 -0.616618
O44   O     O_2   0.641129 0.580946 0.814759 -0.557555
O45   O     O_R   1.000000 0.392690 0.965220 -0.620049
O46   O     O_2   0.639750 0.583294 0.185239 -0.557475
O47   O     O_2   0.360842 0.584274 0.814762 -0.557435
O48   O     O_2   0.359447 0.581937 0.185240 -0.557516
O49   O     O_2   0.139611 0.083524 0.314761 -0.557465
O50   O     O_2   0.140912 0.081321 0.685241 -0.557540
O51   O     O_2   0.859311 0.081705 0.314760 -0.557526
O52   O     O_2   0.860617 0.083904 0.685238 -0.557450
O53   O     O_R   1.000000 0.392690 0.034780 -0.620050
O54   O     O_R   0.500000 0.892690 0.465220 -0.620049
O55   O     O_R   0.500000 0.892690 0.534780 -0.620050
O56   O     O_R   0.607290 0.560580 0.000000 -0.612147
Zn1   Zn    Zn3+2 0.500000 0.419100 0.000000 0.978679
Zn2   Zn    Zn3+2 0.000000 0.500000 0.046450 0.990317
Zn3   Zn    Zn3+2 0.500000 1.000000 0.453550 0.990318
Zn4   Zn    Zn3+2 0.500000 0.000000 0.546450 0.990317
Zn5   Zn    Zn3+2 0.000000 0.919100 0.500000 0.978679
Zn6   Zn    Zn3+2 0.500000 0.580900 0.000000 1.022157
Zn7   Zn    Zn3+2 0.000000 0.080900 0.500000 1.022157
Zn8   Zn    Zn3+2 0.580910 0.499830 0.500000 0.980828
Zn9   Zn    Zn3+2 0.419090 0.499830 0.500000 0.980834
Zn10  Zn    Zn3+2 0.080910 0.999830 0.000000 0.980832
Zn11  Zn    Zn3+2 0.919090 0.999830 0.000000 0.980831
Zn12  Zn    Zn3+2 0.000000 0.500000 0.953550 0.990317

loop_
_geom_bond_atom_site_label_1
_geom_bond_atom_site_label_2
_ccdc_geom_bond_type
O27   Zn8   S    
C78   C87   S    
C38   O45   A    
O9    Zn6   S    
C31   O41   A    
C1    O56   A    
C27   O32   A    
C55   H22   S    
C41   C42   T    
C57   C79   S    
C53   C77   S    
C56   H2    S    
C4    C70   T    
C7    C73   T    
O24   Zn10  S    
C36   C69   S    
C16   C31   S    
O56   Zn6   S    
C63   C94   S    
C93   O49   D    
C6    C85   S    
C62   C67   S    
O25   Zn11  S    
C50   C59   S    
O23   Zn5   S    
C49   C84   S    
C91   O47   D    
C52   C85   S    
C3    C69   T    
C51   C75   S    
C2    C68   T    
C52   C61   S    
C54   C87   S    
C55   C77   S    
C92   H13   S    
C60   C91   S    
C7    C86   S    
C54   C63   S    
O5    Zn1   S    
O34   Zn5   S    
C94   H15   S    
C58   C88   S    
C35   C68   S    
O6    Zn1   S    
C11   C16   T    
C20   O18   A    
C80   C89   S    
C18   C40   S    
C45   C60   S    
O3    Zn7   S    
C95   H16   S    
C50   C85   S    
O11   Zn7   S    
O13   Zn7   S    
C65   C96   S    
O53   Zn2   S    
C32   O42   A    
C28   O35   A    
C34   O4    A    
C49   C75   S    
C20   C71   S    
C53   C86   S    
O18   Zn8   S    
C75   C80   S    
C31   O40   A    
C61   C92   S    
C67   H3    S    
O12   Zn1   S    
C57   H23   S    
C37   O8    A    
C32   O43   A    
C34   O34   A    
C62   C82   S    
O29   Zn10  S    
C37   C70   S    
C90   O46   D    
C50   H12   S    
C23   O23   A    
O31   Zn12  S    
C39   O54   A    
C25   C44   S    
C8    C74   T    
C33   C66   S    
C66   C89   T    
O36   Zn12  S    
C76   H6    S    
C30   O39   A    
O22   Zn10  S    
C45   C58   S    
O45   Zn12  S    
C21   C72   S    
C51   H18   S    
C64   C67   S    
C91   H11   S    
O26   Zn11  S    
C26   O30   A    
C1    C9    S    
C90   H10   S    
O4    Zn7   S    
C39   O55   A    
O10   Zn6   S    
C36   O11   A    
C57   C65   S    
O30   Zn11  S    
C62   C93   S    
C5    C84   S    
C38   O53   A    
O1    Zn1   S    
O28   Zn9   S    
C88   O44   D    
C49   C58   S    
C57   C87   S    
C63   C83   S    
C59   C90   S    
C35   O6    A    
C6    C72   T    
C9    C14   T    
O40   Zn3   S    
C50   C76   S    
C53   C62   S    
C92   O48   D    
C22   O25   A    
C19   O17   A    
C55   C64   S    
C40   C43   T    
C3    C82   S    
C33   O5    A    
O42   Zn3   S    
C18   O15   A    
C25   O27   A    
O41   Zn4   S    
C35   O10   A    
C64   C82   S    
C38   C47   S    
C10   C12   S    
C29   O36   A    
C45   H24   S    
C78   H4    S    
C28   O33   A    
O7    Zn5   S    
C37   O13   A    
C79   H8    S    
C77   H7    S    
C36   O7    A    
O21   Zn9   S    
C21   O19   A    
O39   Zn2   S    
O35   Zn4   S    
C15   C30   S    
C54   C79   S    
C52   H19   S    
C33   O9    A    
C30   O38   A    
C46   C47   T    
C60   C80   S    
C67   C86   S    
C27   O31   A    
C65   C78   S    
C12   O12   A    
O16   Zn10  S    
C26   O29   A    
C29   O37   A    
O8    Zn5   S    
C59   C81   S    
C64   C95   S    
O14   Zn8   S    
O33   Zn3   S    
C52   C76   S    
O38   Zn12  S    
C76   C81   S    
C23   O3    A    
C22   O22   A    
C53   H20   S    
O55   Zn4   S    
C58   C80   S    
C93   H14   S    
C28   C43   S    
C56   C59   S    
C13   C17   T    
C10   C15   T    
C8    C87   S    
C20   O20   A    
C55   C86   S    
C19   O16   A    
C21   O21   A    
C13   C34   S    
C5    C71   T    
C24   O26   A    
C94   O50   D    
C79   C83   S    
C88   H9    S    
C27   C42   S    
C24   C74   S    
C56   C85   S    
C4    C83   S    
C77   C82   S    
C24   O24   A    
C51   C84   S    
C11   C23   S    
C18   O14   A    
C25   O28   A    
O37   Zn2   S    
O32   Zn2   S    
C96   H17   S    
C1    O1    A    
C65   C83   S    
C26   C46   S    
C49   H1    S    
O20   Zn9   S    
C45   C84   S    
C19   C41   S    
O2    Zn6   S    
C12   O2    A    
C96   O52   D    
C54   H21   S    
O43   Zn4   S    
C75   H5    S    
C17   C32   S    
C56   C61   S    
C2    C81   S    
C61   C81   S    
C51   C60   S    
C14   C29   S    
C22   C73   S    
C95   O51   D    
O54   Zn3   S    
O15   Zn9   S    
O19   Zn8   S    
C44   C48   T    
C39   C48   S    
O17   Zn11  S    
C63   C78   S    
