data_mof_unit_39802.cif
_audit_creation_date              2012-12-10T17:12:29-0500
_audit_creation_method            fapswitch 2.2
_symmetry_space_group_name_H-M    P1
_symmetry_Int_Tables_number       1
_space_group_crystal_system       triclinic
_cell_length_a                    11.699687
_cell_length_b                    13.074221
_cell_length_c                    11.646905
_cell_angle_alpha                 100.46943
_cell_angle_beta                  93.850448
_cell_angle_gamma                 90.196622
_cell_volume                      1747.72472697

loop_
_atom_site_label
_atom_site_type_symbol
_atom_type_description
_atom_site_fract_x
_atom_site_fract_y
_atom_site_fract_z
_atom_type_partial_charge
C1    C     C_R   0.502947 0.298820 0.478252 0.861527
C2    C     C_R   0.504881 0.701025 0.522161 0.881974
C3    C     C_R   0.387823 0.403881 0.020427 0.369576
C4    C     C_R   0.616594 0.589082 0.978735 0.351521
C5    C     C_R   0.402099 0.412271 0.144041 -0.023535
C6    C     C_R   0.603231 0.581821 0.856097 -0.025650
C7    C     C_R   0.548197 0.539974 0.157439 0.029305
C8    C     C_R   0.450313 0.460540 0.842271 0.047660
C9    C     C_R   0.541302 0.532623 0.034403 -0.104425
C10   C     C_R   0.459021 0.465075 0.965362 -0.096856
C11   C     C_R   0.283780 0.499857 0.500168 0.830606
C12   C     C_R   0.716193 0.500182 0.499744 0.781953
C13   C     C_1   0.162201 0.499763 0.500262 -0.183995
C14   C     C_1   0.837671 0.500006 0.499107 -0.198940
C15   C     C_1   0.059749 0.499735 0.499687 -0.009038
C16   C     C_1   0.940060 0.499841 0.499087 -0.013825
C17   C     C_R   0.508867 0.814735 0.536417 -0.340307
C18   C     C_R   0.512615 0.185121 0.466203 -0.340144
C19   C     C_R   0.531471 0.013313 0.346475 0.384368
C20   C     C_R   0.467595 0.984380 0.647575 0.392755
C21   C     C_R   0.527565 0.121975 0.356192 0.277548
C22   C     C_R   0.481289 0.877261 0.642400 0.283060
C23   C     C_R   0.508118 0.138937 0.566689 0.394730
C24   C     C_R   0.538305 0.860824 0.441935 0.397105
C25   C     C_R   0.498968 0.030727 0.553907 -0.223721
C26   C     C_R   0.523566 0.967915 0.446690 -0.209497
Cu1   Cu    Cu3+1 0.508350 0.507730 0.615930 0.948374
Cu2   Cu    Cu3+1 0.491650 0.492270 0.384070 0.936874
H1    H     H_    0.387453 0.409582 0.787496 0.188968
H2    H     H_    0.609692 0.592243 0.211775 0.185601
H3    H     H_    0.660151 0.625156 0.813243 0.132464
H4    H     H_    0.352176 0.364116 0.188581 0.149233
N1    N     N_R   0.520920 0.519350 0.790130 -0.215410
N2    N     N_R   0.479080 0.480650 0.209870 -0.219938
O1    O     O_R   0.505930 0.354460 0.582000 -0.570185
O2    O     O_R   0.494070 0.645540 0.418000 -0.559508
O3    O     O_R   0.491820 0.341410 0.386200 -0.547332
O4    O     O_R   0.508180 0.658590 0.613800 -0.536569
O5    O     O_R   0.344250 0.506540 0.597900 -0.573057
O6    O     O_R   0.655750 0.493460 0.402100 -0.604537
O7    O     O_R   0.330140 0.493480 0.402100 -0.583643
O8    O     O_R   0.669860 0.506520 0.597900 -0.595547
O9    O     O_3   0.587841 0.801737 0.347477 -0.559472
C27   C     C_3   0.706171 0.788913 0.376371 0.106108
H5    H     H_    0.725571 0.705080 0.351801 0.147681
H6    H     H_    0.732963 0.811547 0.471677 0.083503
C28   C     C_3   0.778233 0.850539 0.306812 -0.286980
H7    H     H_    0.750595 0.829900 0.212238 0.266232
H8    H     H_    0.764955 0.935070 0.336249 0.206572
C29   C     C_3   0.905566 0.828167 0.323847 -0.968132
H9    H     H_    0.935635 0.850431 0.417648 0.258341
H10   H     H_    0.955147 0.874014 0.272207 0.256678
H11   H     H_    0.921757 0.744287 0.293463 0.264267
O10   O     O_3   0.511234 0.198863 0.678432 -0.547229
C30   C     C_3   0.626092 0.228516 0.718486 0.157942
H12   H     H_    0.623128 0.302145 0.783026 0.167552
H13   H     H_    0.678949 0.245477 0.647650 0.099124
C31   C     C_3   0.684883 0.146579 0.779420 -0.355912
H14   H     H_    0.629829 0.126020 0.846243 0.249642
H15   H     H_    0.698448 0.076165 0.713124 0.199188
C32   C     C_3   0.801118 0.185948 0.838605 -0.973428
H16   H     H_    0.858676 0.204294 0.772770 0.264784
H17   H     H_    0.841375 0.124989 0.882231 0.265336
H18   H     H_    0.790719 0.256928 0.905503 0.254773
O11   O     O_3   0.462492 0.831778 0.738558 -0.586697
C33   C     C_3   0.541475 0.869740 0.835296 0.105897
H19   H     H_    0.527518 0.822505 0.903279 0.172050
H20   H     H_    0.523098 0.951068 0.875478 0.164998
C34   C     C_3   0.668364 0.859471 0.807061 -0.397400
H21   H     H_    0.685839 0.778770 0.764789 0.220301
H22   H     H_    0.688654 0.910390 0.744689 0.194248
C35   C     C_3   0.747663 0.890234 0.917634 -0.911922
H23   H     H_    0.733722 0.972499 0.958340 0.252905
H24   H     H_    0.838283 0.881779 0.895119 0.252913
H25   H     H_    0.731387 0.839601 0.981769 0.285638
O12   O     O_3   0.531512 0.165633 0.256438 -0.590855
C36   C     C_3   0.643418 0.159473 0.216032 0.085391
H26   H     H_    0.634742 0.145187 0.118796 0.160160
H27   H     H_    0.695019 0.094377 0.241176 0.140204
C37   C     C_3   0.708215 0.262457 0.259396 -0.311023
H28   H     H_    0.659545 0.326377 0.228772 0.253473
H29   H     H_    0.716743 0.278042 0.356594 0.203012
C38   C     C_3   0.827454 0.260113 0.214275 -0.975523
H30   H     H_    0.877906 0.196366 0.243068 0.265623
H31   H     H_    0.872498 0.335166 0.249804 0.271015
H32   H     H_    0.821316 0.248612 0.117291 0.264678
O13   O     O_3   0.542265 0.951515 0.237859 -0.587317
C39   C     C_3   0.435486 0.940273 0.171535 0.112814
H33   H     H_    0.443618 0.977353 0.093757 0.153474
H34   H     H_    0.362051 0.977466 0.219171 0.115894
C40   C     C_3   0.407626 0.824375 0.130872 -0.307209
H35   H     H_    0.482318 0.784741 0.089404 0.247601
H36   H     H_    0.390427 0.788845 0.207844 0.244849
C41   C     C_3   0.303053 0.806913 0.043625 -0.961893
H37   H     H_    0.226516 0.843129 0.084793 0.254895
H38   H     H_    0.286129 0.722112 0.015489 0.268967
H39   H     H_    0.318248 0.840947 0.965154 0.267101
O14   O     O_3   0.419170 0.043173 0.742795 -0.578345
C42   C     C_3   0.298930 0.025967 0.733639 0.108946
H40   H     H_    0.272477 0.021227 0.822245 0.144766
H41   H     H_    0.269766 0.951239 0.676123 0.125413
C43   C     C_3   0.238214 0.116955 0.690661 -0.310783
H42   H     H_    0.266197 0.191090 0.748679 0.274670
H43   H     H_    0.262089 0.120222 0.600648 0.211902
C44   C     C_3   0.108172 0.105682 0.689204 -0.970612
H44   H     H_    0.078058 0.033325 0.629012 0.260436
H45   H     H_    0.067149 0.173157 0.658322 0.261221
H46   H     H_    0.081414 0.103382 0.778400 0.261745
O15   O     O_3   0.314792 0.330188 0.950348 -0.623678
C45   C     C_3   0.207139 0.321896 0.996960 0.029418
H47   H     H_    0.139977 0.323284 0.925134 0.169819
H48   H     H_    0.187981 0.388108 0.067613 0.132220
C46   C     C_3   0.197293 0.217607 0.038131 -0.327358
H49   H     H_    0.203289 0.153404 0.962411 0.221498
H50   H     H_    0.268609 0.209139 0.103350 0.225396
C47   C     C_3   0.083766 0.207343 0.092128 -0.953068
H51   H     H_    0.078164 0.268377 0.171360 0.266911
H52   H     H_    0.077524 0.129888 0.117820 0.257678
H53   H     H_    0.011206 0.214999 0.027890 0.267470
O16   O     O_3   0.697936 0.656050 0.045042 -0.644033
C48   C     C_3   0.809490 0.617689 0.026291 0.024572
H54   H     H_    0.870234 0.684813 0.050963 0.176994
H55   H     H_    0.821673 0.584622 0.932831 0.130412
C49   C     C_3   0.840719 0.537366 0.103872 -0.345342
H56   H     H_    0.828199 0.571268 0.196706 0.220368
H57   H     H_    0.784009 0.467505 0.077568 0.212422
C50   C     C_3   0.964991 0.504048 0.093276 -0.933434
H58   H     H_    0.978447 0.466638 0.001749 0.251571
H59   H     H_    0.985801 0.447337 0.151486 0.258515
H60   H     H_    0.023885 0.572337 0.119699 0.257914

loop_
_geom_bond_atom_site_label_1
_geom_bond_atom_site_label_2
_ccdc_geom_bond_type
C33   H20   S    
O13   C39   S    
C34   C35   S    
C18   C21   A    
C39   H34   S    
C30   H12   S    
C28   H8    S    
C36   H26   S    
Cu1   N1    S    
C44   H45   S    
C21   O12   S    
C1    C18   S    
C8    H1    S    
C19   C21   A    
C24   C26   A    
C19   O13   S    
C35   H25   S    
C43   H43   S    
C33   C34   S    
C20   C25   A    
Cu2   O6    S    
Cu1   O4    S    
C31   H15   S    
C15   C16   S    
Cu2   O7    S    
C47   H51   S    
C43   C44   S    
C32   H17   S    
C34   H22   S    
C19   C26   A    
C45   H47   S    
C48   C49   S    
C12   O8    A    
C42   H40   S    
Cu1   O5    S    
C29   H10   S    
C11   O7    A    
C9    C10   A    
C32   H16   S    
C27   C28   S    
C1    O3    A    
C5    H4    S    
C31   C32   S    
C6    H3    S    
Cu2   N2    S    
C7    H2    S    
C2    C17   S    
C34   H21   S    
C37   C38   S    
C27   H6    S    
C28   C29   S    
C36   H27   S    
C44   H46   S    
C17   C24   A    
C43   H42   S    
C29   H11   S    
C28   H7    S    
O12   C36   S    
C4    C6    A    
C40   H35   S    
C35   H23   S    
C41   H39   S    
Cu1   O1    S    
C31   H14   S    
C18   C23   A    
C12   O6    A    
C32   H18   S    
C41   H38   S    
O9    C27   S    
C50   H59   S    
C22   O11   S    
C40   H36   S    
C2    O4    A    
C38   H30   S    
C39   C40   S    
C5    N2    A    
C42   C43   S    
C29   H9    S    
C11   O5    A    
C45   C46   S    
C48   H54   S    
C49   C50   S    
C35   H24   S    
C42   H41   S    
C12   C14   S    
O14   C42   S    
C13   C15   T    
C7    N2    A    
C14   C16   T    
C50   H58   S    
C27   H5    S    
C1    O1    A    
C23   O10   S    
C49   H57   S    
C46   H49   S    
C36   C37   S    
C2    O2    A    
C7    C9    A    
O10   C30   S    
C38   H31   S    
C20   C22   A    
C37   H28   S    
C3    C5    A    
C47   H53   S    
C44   H44   S    
C17   C22   A    
C6    N1    A    
C46   C47   S    
C30   H13   S    
C25   C26   A    
C50   H60   S    
C3    C10   A    
O15   C45   S    
C40   C41   S    
C11   C13   S    
Cu1   O8    S    
Cu2   O3    S    
C3    O15   S    
C37   H29   S    
C47   H52   S    
C33   H19   S    
C8    N1    A    
C23   C25   A    
C41   H37   S    
C45   H48   S    
C48   H55   S    
C38   H32   S    
C20   O14   S    
C39   H33   S    
Cu2   O2    S    
C8    C10   A    
O11   C33   S    
C30   C31   S    
Cu1   Cu2   S    
C24   O9    S    
O16   C48   S    
C4    O16   S    
C4    C9    A    
C49   H56   S    
C46   H50   S    
