data_mof_unit_51413.cif
_audit_creation_date              2012-12-10T20:57:58-0500
_audit_creation_method            fapswitch 2.2
_symmetry_space_group_name_H-M    P1
_symmetry_Int_Tables_number       1
_space_group_crystal_system       triclinic
_cell_length_a                    18.221011
_cell_length_b                    18.235879
_cell_length_c                    18.377476
_cell_angle_alpha                 119.937384
_cell_angle_beta                  90.044023
_cell_angle_gamma                 120.033144
_cell_volume                      4318.13502179

loop_
_atom_site_label
_atom_site_type_symbol
_atom_type_description
_atom_site_fract_x
_atom_site_fract_y
_atom_site_fract_z
_atom_type_partial_charge
C1    C     C_R   0.358001 0.220113 0.361139 0.793728
C2    C     C_3   0.277330 0.578460 0.359998 -0.390737
C3    C     C_3   0.300046 0.500436 0.302140 0.205089
C4    C     C_3   0.197716 0.500112 0.200678 0.199906
C5    C     C_3   0.150310 0.390847 0.181061 -0.399294
C6    C     C_3   0.217714 0.578518 0.300901 -0.375701
C7    C     C_3   0.645075 0.939874 0.689683 -0.370551
C8    C     C_3   0.703632 0.059355 0.751442 -0.391052
C9    C     C_3   0.730382 0.937989 0.795349 -0.509106
C10   C     C_3   0.783717 0.942133 0.669826 0.381465
C11   C     C_3   0.698830 0.897570 0.696607 0.130326
C12   C     C_R   0.640968 0.780975 0.638915 0.780392
C13   C     C_3   0.799299 0.102422 0.801214 0.144198
C14   C     C_3   0.791193 0.058068 0.856348 -0.419949
C15   C     C_3   0.840834 0.062593 0.729909 -0.430318
C16   C     C_3   0.677325 0.390618 0.239944 -0.413385
C17   C     C_3   0.733794 0.389085 0.177215 -0.409115
C18   C     C_3   0.683460 0.535131 0.245915 -0.405070
C19   C     C_3   0.799923 0.577159 0.361480 -0.432686
C20   C     C_3   0.699081 0.500699 0.302892 0.145780
C21   C     C_3   0.800440 0.500031 0.201314 0.123521
C22   C     C_3   0.744434 0.536762 0.187424 -0.491521
C23   C     C_R   0.359110 0.500316 0.640560 0.790252
C24   C     C_3   0.859780 0.576097 0.302243 0.309784
C25   C     C_R   0.297109 0.149489 0.584516 -0.119216
C26   C     C_R   0.303134 0.107696 0.498806 0.501329
C27   C     C_R   0.251181 0.099310 0.433647 0.035083
C28   C     C_R   0.195823 0.134108 0.456739 -0.184838
C29   C     C_R   0.191096 0.175926 0.542743 -0.137258
C30   C     C_R   0.241319 0.183024 0.606284 -0.227323
C31   C     C_R   0.199143 0.943592 0.284874 -0.255490
C32   C     C_R   0.197145 0.892280 0.196760 -0.052545
C33   C     C_R   0.248345 0.949282 0.163411 0.048754
C34   C     C_R   0.640869 0.500195 0.359599 0.763132
C35   C     C_R   0.298028 0.056369 0.218184 -0.256963
C36   C     C_R   0.300450 0.107787 0.306355 -0.053476
C37   C     C_R   0.250916 0.050853 0.340555 -0.026528
C38   C     C_R   0.303915 0.856768 0.054739 -0.260132
C39   C     C_R   0.315835 0.816387 0.971301 0.471734
C40   C     C_R   0.278673 0.820140 0.907659 -0.289075
C41   C     C_R   0.227282 0.861080 0.924974 0.469320
C42   C     C_R   0.218692 0.903743 0.009381 -0.193929
C43   C     C_R   0.256093 0.901194 0.073977 0.028101
C44   C     C_R   0.904517 0.790101 0.699262 0.495769
C45   C     C_R   0.641911 0.501601 0.641414 0.801943
C46   C     C_R   0.863181 0.696648 0.691497 -0.093734
C47   C     C_R   0.831773 0.688580 0.758770 0.046339
C48   C     C_R   0.845206 0.776258 0.835735 -0.174054
C49   C     C_R   0.888143 0.870256 0.844779 -0.199305
C50   C     C_R   0.917337 0.877380 0.776864 -0.249663
C51   C     C_R   0.837881 0.585740 0.804219 -0.251431
C52   C     C_R   0.799379 0.498224 0.805526 -0.054206
C53   C     C_R   0.708996 0.412697 0.753242 -0.020888
C54   C     C_R   0.660321 0.416103 0.698979 -0.253151
C55   C     C_R   0.698645 0.503419 0.697706 -0.051467
C56   C     C_R   0.358039 0.500205 0.359443 0.737432
C57   C     C_R   0.788502 0.590050 0.751234 0.012521
C58   C     C_R   0.644079 0.225162 0.678527 -0.154789
C59   C     C_R   0.592587 0.133663 0.673623 -0.132697
C60   C     C_R   0.558998 0.134571 0.742211 -0.120355
C61   C     C_R   0.576148 0.226842 0.815478 -0.131799
C62   C     C_R   0.626457 0.318196 0.819998 -0.075681
C63   C     C_R   0.661776 0.318150 0.752050 0.146059
C64   C     C_R   0.366660 0.777814 0.688998 -0.146415
C65   C     C_R   0.354703 0.719873 0.722275 -0.175808
C66   C     C_R   0.276991 0.618351 0.679737 0.027823
C67   C     C_3   0.348802 0.531729 0.243046 -0.396604
C68   C     C_R   0.212580 0.573827 0.601605 0.505599
C69   C     C_R   0.224003 0.633786 0.570177 -0.265551
C70   C     C_R   0.301083 0.735059 0.613383 -0.190639
C71   C     C_R   0.209903 0.553644 0.768198 -0.143662
C72   C     C_R   0.193662 0.496832 0.803762 -0.057589
C73   C     C_R   0.231277 0.440047 0.784142 -0.019997
C74   C     C_R   0.286072 0.444371 0.731937 -0.270134
C75   C     C_R   0.302744 0.501658 0.696888 -0.056824
C76   C     C_R   0.264417 0.557522 0.715603 0.071554
C77   C     C_R   0.279903 0.413541 0.890883 -0.149503
C78   C     C_3   0.288602 0.531513 0.183379 -0.400444
C79   C     C_R   0.265245 0.351698 0.920623 -0.151581
C80   C     C_R   0.186490 0.251235 0.875786 -0.101648
C81   C     C_R   0.122430 0.212188 0.800824 -0.125663
C82   C     C_R   0.136725 0.273747 0.770850 -0.121447
C83   C     C_R   0.215498 0.375033 0.816087 0.151600
C84   C     C_R   0.857186 0.499686 0.142984 0.773330
C85   C     C_R   0.138216 0.499217 0.861153 0.796052
C86   C     C_R   0.856797 0.219002 0.861352 0.758166
C87   C     C_R   0.139615 0.779909 0.141280 0.788151
C88   C     C_R   0.855855 0.499044 0.861286 0.796676
C89   C     C_3   0.210465 0.391057 0.240755 -0.401159
C90   C     C_R   0.139677 0.499893 0.142926 0.742154
H1    H     H_    0.365604 0.476739 0.200211 0.174926
H2    H     H_    0.153719 0.557970 0.315771 0.186827
H3    H     H_    0.174146 0.367330 0.281885 0.151593
H4    H     H_    0.084940 0.366831 0.193365 0.152859
H5    H     H_    0.584374 0.909711 0.709006 0.172985
H6    H     H_    0.621316 0.913041 0.619749 0.195946
H7    H     H_    0.708395 0.090186 0.711234 0.177598
H8    H     H_    0.670883 0.085108 0.800111 0.188735
H9    H     H_    0.670983 0.908802 0.816615 0.188091
H10   H     H_    0.762515 0.086352 0.908645 0.172336
H11   H     H_    0.825533 0.919149 0.683785 0.064358
H12   H     H_    0.413173 0.610301 0.285780 0.154059
H13   H     H_    0.846283 0.092645 0.688811 0.181720
H14   H     H_    0.910283 0.093173 0.763039 0.137760
H15   H     H_    0.767839 0.908035 0.802960 0.184498
H16   H     H_    0.859051 0.085728 0.890749 0.171768
H17   H     H_    0.604635 0.333110 0.199246 0.190032
H18   H     H_    0.691835 0.366615 0.279946 0.153910
H19   H     H_    0.770092 0.356357 0.181032 0.153905
H20   H     H_    0.687857 0.336422 0.107179 0.189134
H21   H     H_    0.611810 0.480991 0.202402 0.190237
H22   H     H_    0.323989 0.609943 0.197277 0.152747
H23   H     H_    0.701979 0.485689 0.116208 0.197224
H24   H     H_    0.817562 0.657142 0.406120 0.167123
H25   H     H_    0.812741 0.556358 0.405298 0.200766
H26   H     H_    0.903572 0.655909 0.318912 0.138315
H27   H     H_    0.698136 0.613730 0.290025 0.149327
H28   H     H_    0.790071 0.616733 0.204932 0.151495
H29   H     H_    0.237461 0.214856 0.672748 0.161504
H30   H     H_    0.336158 0.156154 0.634721 0.153482
H31   H     H_    0.276634 0.476390 0.112210 0.180078
H32   H     H_    0.155751 0.127913 0.407737 0.143083
H33   H     H_    0.148123 0.202361 0.560045 0.138379
H34   H     H_    0.159817 0.900134 0.310791 0.179823
H35   H     H_    0.337889 0.099795 0.192432 0.171789
H36   H     H_    0.333003 0.855419 0.105132 0.116970
H37   H     H_    0.290519 0.791485 0.845123 0.144871
H38   H     H_    0.181954 0.938448 0.024551 0.158334
H39   H     H_    0.949863 0.950727 0.784816 0.111781
H40   H     H_    0.224217 0.332959 0.197926 0.183724
H41   H     H_    0.854612 0.629846 0.632535 0.142519
H42   H     H_    0.822559 0.771744 0.888758 0.138819
H43   H     H_    0.898335 0.937642 0.904357 0.147506
H44   H     H_    0.906667 0.652259 0.845842 0.174886
H45   H     H_    0.591360 0.349756 0.657741 0.186290
H46   H     H_    0.669127 0.223405 0.624657 0.127082
H47   H     H_    0.578719 0.061990 0.616640 0.130051
H48   H     H_    0.519509 0.063714 0.738438 0.118000
H49   H     H_    0.549695 0.227363 0.868317 0.120929
H50   H     H_    0.135592 0.332813 0.109799 0.179225
H51   H     H_    0.637807 0.388843 0.876145 0.111933
H52   H     H_    0.309891 0.780432 0.588281 0.152960
H53   H     H_    0.426358 0.856243 0.722348 0.128028
H54   H     H_    0.405624 0.754071 0.781400 0.171452
H55   H     H_    0.173195 0.601602 0.512069 0.143757
H56   H     H_    0.179799 0.595403 0.781121 0.150628
H57   H     H_    0.315791 0.402177 0.718588 0.181006
H58   H     H_    0.341117 0.491281 0.926069 0.122963
H59   H     H_    0.315025 0.381557 0.978316 0.120011
H60   H     H_    0.241305 0.556503 0.401952 0.168634
H61   H     H_    0.175275 0.203491 0.898904 0.121785
H62   H     H_    0.061972 0.134096 0.765831 0.101993
H63   H     H_    0.086785 0.242723 0.712575 0.108439
H64   H     H_    0.340123 0.658096 0.405301 0.181669
H65   H     H_    0.252410 0.658100 0.317411 0.181977
O1    O     O_3   0.500000 0.500000 0.500000 -0.474777
O2    O     O_R   0.383400 0.560740 0.616060 -0.648146
O3    O     O_R   0.555060 0.439270 0.322940 -0.648460
O4    O     O_R   0.383950 0.268380 0.445700 -0.634895
O5    O     O_R   0.677590 0.731610 0.615290 -0.651667
O6    O     O_3   0.997750 0.500010 0.002220 -0.479486
O7    O     O_R   0.942690 0.560750 0.179280 -0.603968
O8    O     O_R   0.114340 0.439270 0.886160 -0.635094
O9    O     O_R   0.820160 0.268410 0.886930 -0.640270
O10   O     O_R   0.113800 0.731630 0.056520 -0.635670
O11   O     O_R   0.819390 0.439310 0.886160 -0.644560
O12   O     O_R   0.383400 0.268380 0.323710 -0.650246
O13   O     O_R   0.115110 0.560720 0.179280 -0.636346
O14   O     O_R   0.941380 0.560750 0.885620 -0.648509
O15   O     O_R   0.115110 0.439270 0.057830 -0.642364
O16   O     O_R   0.942690 0.268390 0.886930 -0.645112
O17   O     O_R   0.114340 0.731630 0.178520 -0.648237
O18   O     O_R   0.820160 0.439310 0.057830 -0.658544
O19   O     O_R   0.113800 0.560730 0.885620 -0.645255
O20   O     O_R   0.555060 0.731630 0.615290 -0.643964
O21   O     O_R   0.383950 0.439280 0.616600 -0.638169
O22   O     O_R   0.677590 0.560710 0.444390 -0.648293
O23   O     O_R   0.556370 0.439260 0.616600 -0.644952
O24   O     O_R   0.382640 0.439290 0.322940 -0.646974
O25   O     O_R   0.678360 0.560700 0.616060 -0.647335
O26   O     O_R   0.382640 0.560750 0.444390 -0.650377
Zn1   Zn    Zn3+2 0.456040 0.586770 0.543190 0.958128
Zn2   Zn    Zn3+2 0.456820 0.413240 0.543960 0.975443
Zn3   Zn    Zn3+2 0.631110 0.586750 0.543190 0.965632
Zn4   Zn    Zn3+2 0.456040 0.413240 0.369660 0.946582
Zn5   Zn    Zn3+2 0.041710 0.413240 0.959030 0.963274
Zn6   Zn    Zn3+2 0.866640 0.413270 0.959030 0.953307
Zn7   Zn    Zn3+2 0.040930 0.586780 0.958260 0.964050
Zn8   Zn    Zn3+2 0.041710 0.586770 0.132560 0.981554
O27   O     O_3   0.757024 0.905244 0.578979 -0.662296
C91   C     C_3   0.800864 0.861570 0.529792 0.074932
H66   H     H_    0.761642 0.813191 0.458037 0.156618
H67   H     H_    0.800725 0.808059 0.542860 0.169073
C92   C     C_3   0.896759 0.946219 0.546574 -0.385246
H68   H     H_    0.894805 0.999124 0.534267 0.232687
H69   H     H_    0.938659 0.992335 0.616921 0.198045
C93   C     C_3   0.940504 0.899697 0.485990 -0.955439
H70   H     H_    0.945526 0.848789 0.498948 0.280986
H71   H     H_    0.009329 0.962955 0.499251 0.275450
H72   H     H_    0.900611 0.853809 0.414890 0.253858
O28   O     O_3   0.917262 0.552849 0.321192 -0.748891
H73   H     H_    0.880151 0.487020 0.316136 0.329850
O29   O     O_3   0.360359 0.076951 0.482401 -0.789765
H74   H     H_    0.363699 0.055698 0.422085 0.335637
O30   O     O_3   0.364082 0.774003 0.950324 -0.789466
H75   H     H_    0.384746 0.775890 0.001553 0.321646
O31   O     O_3   0.188898 0.867782 0.864973 -0.645984
C94   C     C_3   0.164199 0.787745 0.774997 0.053638
H76   H     H_    0.136701 0.712033 0.765054 0.137343
H77   H     H_    0.223575 0.810040 0.752461 0.166739
C95   C     C_3   0.090778 0.773832 0.718548 -0.294153
H78   H     H_    0.030998 0.748432 0.739794 0.221823
H79   H     H_    0.114214 0.849033 0.729815 0.241848
C96   C     C_3   0.064526 0.693215 0.619493 -0.914724
H80   H     H_    0.121986 0.721052 0.595835 0.266510
H81   H     H_    0.007276 0.680530 0.581179 0.296926
H82   H     H_    0.043892 0.618216 0.606878 0.263207
O32   O     O_3   0.931915 0.793827 0.630553 -0.805934
H83   H     H_    0.959845 0.864843 0.646475 0.319830
O33   O     O_3   0.138371 0.472073 0.557399 -0.663513
C97   C     C_3   0.144063 0.410711 0.474414 0.063592
H84   H     H_    0.214687 0.435782 0.477996 0.141477
H85   H     H_    0.116120 0.415110 0.424013 0.138437
C98   C     C_3   0.089020 0.298245 0.444714 -0.314180
H86   H     H_    0.116326 0.293831 0.495425 0.217282
H87   H     H_    0.017972 0.270515 0.439253 0.229585
C99   C     C_3   0.092075 0.227908 0.354943 -1.009649
H88   H     H_    0.063399 0.229479 0.302808 0.265202
H89   H     H_    0.051697 0.146988 0.335459 0.265519
H90   H     H_    0.162473 0.253253 0.359252 0.258653

loop_
_geom_bond_atom_site_label_1
_geom_bond_atom_site_label_2
_ccdc_geom_bond_type
C2    H60   S    
C80   H61   S    
C66   C68   A    
O29   H74   S    
C25   H30   S    
O27   C91   S    
O21   Zn2   S    
C69   H55   S    
C73   C74   A    
C92   H69   S    
C35   C36   A    
C8    H7    S    
O9    Zn6   S    
C98   H86   S    
C72   C85   S    
O1    Zn3   S    
C7    C8    S    
C2    C6    S    
O26   Zn1   S    
C7    C11   S    
C7    H6    S    
C26   C27   A    
C10   O27   S    
O8    Zn5   S    
C36   C37   A    
C68   O33   S    
C31   H34   S    
C97   C98   S    
C10   C15   S    
C71   C76   A    
C87   O17   A    
C51   H44   S    
C28   H32   S    
C92   C93   S    
C30   H29   S    
C77   C83   A    
C9    H15   S    
O12   Zn4   S    
C23   O2    A    
C58   C63   A    
C71   H56   S    
C51   C52   A    
C35   H35   S    
C41   C42   A    
C93   H71   S    
C78   H31   S    
C8    H8    S    
C49   H43   S    
C45   O25   A    
O19   Zn7   S    
C54   C55   A    
C82   H63   S    
C22   H23   S    
O18   Zn6   S    
C99   H88   S    
C53   C54   A    
C16   C17   S    
C13   C86   S    
C51   C57   A    
C64   C70   A    
C15   H14   S    
C42   C43   A    
C18   C20   S    
C6    H65   S    
C16   H17   S    
C42   H38   S    
C79   H59   S    
C69   C70   A    
C90   O13   A    
C92   H68   S    
C29   H33   S    
C59   C60   A    
C2    H64   S    
C21   C22   S    
C17   H20   S    
C90   O15   A    
C93   H70   S    
C67   C78   S    
O33   C97   S    
C38   H36   S    
O1    Zn2   S    
C44   C46   A    
C5    H4    S    
C4    C90   S    
C77   C79   A    
C59   H47   S    
C3    C67   S    
C24   O28   S    
C70   H52   S    
O10   Zn7   S    
C74   C75   A    
O11   Zn6   S    
C33   C43   S    
C47   C48   A    
C74   H57   S    
C1    O4    A    
C44   O32   S    
C18   H21   S    
C72   C73   A    
C4    C6    S    
C39   C40   A    
C65   H54   S    
O1    Zn1   S    
C96   H80   S    
C94   H76   S    
C23   O21   A    
C19   H24   S    
C58   H46   S    
C58   C59   A    
O1    Zn4   S    
C40   H37   S    
C81   C82   A    
C89   H40   S    
O31   C94   S    
C56   O24   A    
C98   H87   S    
C60   C61   A    
C41   O31   S    
C93   H72   S    
C75   C76   A    
C91   H67   S    
C95   H78   S    
C4    C78   S    
C29   C30   A    
C50   H39   S    
C47   C57   S    
C97   H84   S    
C3    C56   S    
C31   C32   A    
C77   H58   S    
C21   C84   S    
C19   H25   S    
C16   C20   S    
C66   C76   S    
O15   Zn5   S    
C62   C63   A    
C67   H1    S    
C85   O19   A    
C9    C14   S    
C55   C57   A    
C12   O5    A    
C9    C11   S    
C18   H27   S    
C45   O23   A    
C12   O20   A    
C34   O3    A    
O6    Zn8   S    
C40   C41   A    
C99   H89   S    
C24   H26   S    
C16   H18   S    
C88   O11   A    
O20   Zn1   S    
O6    Zn6   S    
C85   O8    A    
C49   C50   A    
C79   C80   A    
C21   C24   S    
C86   O9    A    
O2    Zn1   S    
C32   C87   S    
C62   H51   S    
C26   O29   S    
C84   O18   A    
C81   H62   S    
O3    Zn4   S    
C46   H41   S    
C84   O7    A    
C52   C53   A    
C5    H50   S    
C44   C50   A    
C25   C30   A    
C22   H28   S    
O30   H75   S    
C46   C47   A    
C28   C29   A    
O13   Zn8   S    
C88   O14   A    
O16   Zn5   S    
C95   H79   S    
C18   C22   S    
C68   C69   A    
C10   H11   S    
C61   H49   S    
O23   Zn2   S    
O14   Zn7   S    
C23   C75   S    
C80   C81   A    
C96   H82   S    
C17   H19   S    
C11   C12   S    
C14   H10   S    
O24   Zn4   S    
C64   H53   S    
O17   Zn8   S    
O6    Zn7   S    
O22   Zn3   S    
C7    H5    S    
O28   H73   S    
C1    C36   S    
C3    C89   S    
C15   H13   S    
C32   C33   A    
C19   C20   S    
C13   C15   S    
C2    C3    S    
C25   C26   A    
C91   C92   S    
C20   C34   S    
C38   C43   A    
C97   H85   S    
C94   H77   S    
C64   C65   A    
C53   C63   S    
O32   H83   S    
C38   C39   A    
C27   C37   S    
C94   C95   S    
C48   C49   A    
C54   H45   S    
C39   O30   S    
C33   C35   A    
C73   C83   S    
C19   C24   S    
C96   H81   S    
C6    H2    S    
C65   C66   A    
C89   H3    S    
C61   C62   A    
C91   H66   S    
C52   C88   S    
C17   C21   S    
C10   C11   S    
C87   O10   A    
C86   O16   A    
C8    C13   S    
C31   C37   A    
C4    C5    S    
C99   H90   S    
C71   C72   A    
C45   C55   S    
C9    H9    S    
C82   C83   A    
C56   O26   A    
C14   H16   S    
C98   C99   S    
C1    O12   A    
C48   H42   S    
C34   O22   A    
C78   H22   S    
O4    Zn2   S    
C95   C96   S    
C13   C14   S    
O5    Zn3   S    
O7    Zn8   S    
C5    C89   S    
O25   Zn3   S    
C67   H12   S    
C60   H48   S    
C27   C28   A    
O6    Zn5   S    
