data_mof_unit_41557.cif
_audit_creation_date              2012-12-11T15:33:49-0500
_audit_creation_method            fapswitch 2.2
_symmetry_space_group_name_H-M    P1
_symmetry_Int_Tables_number       1
_space_group_crystal_system       triclinic
_cell_length_a                    27.186967
_cell_length_b                    7.196073
_cell_length_c                    22.719136
_cell_angle_alpha                 89.949764
_cell_angle_beta                  101.091062
_cell_angle_gamma                 89.938477
_cell_volume                      4361.73679705

loop_
_atom_site_label
_atom_site_type_symbol
_atom_type_description
_atom_site_fract_x
_atom_site_fract_y
_atom_site_fract_z
_atom_type_partial_charge
O1    O     O_R   0.207310 0.594030 0.676830 -0.548149
O2    O     O_R   0.792690 0.405970 0.323170 -0.548148
O3    O     O_R   0.292690 0.094030 0.823170 -0.542456
O4    O     O_R   0.707310 0.905970 0.176830 -0.542447
O5    O     O_R   0.197320 0.262370 0.795700 -0.505965
O6    O     O_R   0.802680 0.737630 0.204300 -0.505923
O7    O     O_R   0.302680 0.762370 0.704300 -0.505613
O8    O     O_R   0.697320 0.237630 0.295700 -0.505614
C1    C     C_R   0.185040 0.432854 0.812574 0.772944
C2    C     C_R   0.814960 0.567144 0.187425 0.772890
C3    C     C_R   0.314953 0.932822 0.687409 0.768485
C4    C     C_R   0.685047 0.067177 0.312591 0.768478
O9    O     O_R   0.201410 0.264250 0.675590 -0.528536
O10   O     O_R   0.798590 0.735750 0.324410 -0.528546
O11   O     O_R   0.298590 0.764250 0.824410 -0.529512
O12   O     O_R   0.701410 0.235750 0.175590 -0.529531
O13   O     O_R   0.296810 0.094940 0.702210 -0.502537
O14   O     O_R   0.703190 0.905060 0.297790 -0.502540
O15   O     O_R   0.203190 0.594940 0.797790 -0.503238
O16   O     O_R   0.796810 0.405060 0.202210 -0.503225
C5    C     C_R   0.189827 0.432752 0.653445 0.811761
C6    C     C_R   0.810173 0.567247 0.346555 0.811739
C7    C     C_R   0.310190 0.932441 0.846583 0.808905
C8    C     C_R   0.689811 0.067560 0.153416 0.808897
O17   O     O_3   0.281300 0.427390 0.758870 -0.371238
O18   O     O_3   0.718700 0.572610 0.241130 -0.371246
O19   O     O_3   0.218700 0.927390 0.741130 -0.375131
O20   O     O_3   0.781300 0.072610 0.258870 -0.375102
V1    V     V_3+5 0.244190 0.152150 0.748350 1.695206
V2    V     V_3+5 0.755810 0.847850 0.251650 1.695262
V3    V     V_3+5 0.255810 0.652150 0.751650 1.691432
V4    V     V_3+5 0.744190 0.347850 0.248350 1.691442
C9    C     C_R   0.655058 0.062577 0.094861 -0.313858
C10   C     C_R   0.344944 0.937424 0.905138 -0.313863
C11   C     C_R   0.844908 0.560706 0.405051 -0.315584
C12   C     C_R   0.155092 0.439294 0.594949 -0.315589
C13   C     C_R   0.639088 0.131694 0.988795 0.606367
C14   C     C_R   0.360917 0.868297 0.011203 0.606345
C15   C     C_R   0.858955 0.590012 0.512880 0.606773
C16   C     C_R   0.141045 0.409988 0.487120 0.606774
C17   C     C_R   0.672376 0.115057 0.043326 0.577443
C18   C     C_R   0.327627 0.884934 0.956673 0.577474
C19   C     C_R   0.826783 0.597162 0.457299 0.574053
C20   C     C_R   0.173217 0.402838 0.542701 0.574051
C21   C     C_R   0.604006 0.020741 0.091009 -0.203971
C22   C     C_R   0.395996 0.979266 0.908989 -0.203982
C23   C     C_R   0.896207 0.523945 0.408618 -0.211743
C24   C     C_R   0.103793 0.476055 0.591382 -0.211724
C25   C     C_R   0.569278 0.027858 0.035226 0.046733
C26   C     C_R   0.430725 0.972144 0.964771 0.046737
C27   C     C_R   0.930851 0.529961 0.464436 0.044312
C28   C     C_R   0.069149 0.470039 0.535563 0.044308
C29   C     C_R   0.587744 0.093483 0.984673 -0.211818
C30   C     C_R   0.412260 0.906513 0.015324 -0.211816
C31   C     C_R   0.910432 0.553932 0.516931 -0.215915
C32   C     C_R   0.089567 0.446069 0.483069 -0.215915
C33   C     C_R   0.516790 0.981262 0.028105 -0.082706
C34   C     C_R   0.483214 0.018740 0.971892 -0.082704
C35   C     C_R   0.984423 0.507956 0.470528 -0.088035
C36   C     C_R   0.015577 0.492044 0.529472 -0.088039
C37   C     C_R   0.503462 0.103688 0.925464 0.617649
C38   C     C_R   0.496542 0.896310 0.074533 0.617643
C39   C     C_R   0.991665 0.495249 0.579753 0.620736
C40   C     C_R   0.008334 0.504752 0.420247 0.620726
C41   C     C_R   0.554640 0.130696 0.931121 -0.114044
C42   C     C_R   0.445365 0.869299 0.068876 -0.114040
C43   C     C_R   0.940962 0.534331 0.573284 -0.110716
C44   C     C_R   0.059038 0.465670 0.426716 -0.110713
H1    H     H_    0.568134 0.191164 0.893495 0.225664
H2    H     H_    0.431871 0.808827 0.106502 0.225665
H3    H     H_    0.925037 0.541276 0.613456 0.227757
H4    H     H_    0.074963 0.458725 0.386543 0.227757
H5    H     H_    0.407473 0.004179 0.866993 0.224894
H6    H     H_    0.592528 0.995838 0.133004 0.224889
H7    H     H_    0.092972 0.514235 0.632784 0.225986
H8    H     H_    0.907028 0.485765 0.367215 0.225979
C45   C     C_R   0.643394 0.888775 0.385653 0.550832
C46   C     C_R   0.356606 0.111225 0.614347 0.550834
C47   C     C_R   0.856709 0.388790 0.114449 0.550478
C48   C     C_R   0.143338 0.611138 0.885603 0.550366
C49   C     C_R   0.606002 0.866918 0.420366 -0.127596
C50   C     C_R   0.393998 0.133082 0.579634 -0.127596
C51   C     C_R   0.894108 0.366947 0.079742 -0.127579
C52   C     C_R   0.105951 0.632988 0.920327 -0.127618
C53   C     C_R   0.572335 0.015209 0.424247 -0.160601
C54   C     C_R   0.427665 0.984791 0.575753 -0.160601
C55   C     C_R   0.927725 0.515115 0.075832 -0.161444
C56   C     C_R   0.072307 0.484883 0.924211 -0.161443
C57   C     C_R   0.575785 0.177645 0.390844 -0.206477
C58   C     C_R   0.424215 0.822354 0.609156 -0.206477
C59   C     C_R   0.924230 0.677397 0.109215 -0.203234
C60   C     C_R   0.075763 0.322671 0.890780 -0.203115
H9    H     H_    0.550191 0.291919 0.392768 0.212787
H10   H     H_    0.449809 0.708081 0.607232 0.212787
H11   H     H_    0.949796 0.791555 0.107283 0.212823
H12   H     H_    0.050178 0.208563 0.892692 0.212761
C61   C     C_R   0.612325 0.196896 0.355310 0.588527
C62   C     C_R   0.387675 0.803104 0.644690 0.588527
C63   C     C_R   0.887679 0.696653 0.144734 0.596061
C64   C     C_R   0.112301 0.303418 0.855241 0.596053
C65   C     C_R   0.646729 0.052573 0.351971 -0.284670
C66   C     C_R   0.353271 0.947427 0.648029 -0.284673
C67   C     C_R   0.853306 0.552478 0.148082 -0.286070
C68   C     C_R   0.146701 0.447518 0.851924 -0.286026
N1    N     N_R   0.487046 0.069367 0.444107 -0.234246
N2    N     N_R   0.512954 0.930633 0.555893 -0.234246
N3    N     N_R   0.012965 0.569167 0.055890 -0.232486
N4    N     N_R   0.987070 0.430810 0.944161 -0.232609
N5    N     N_R   0.453147 0.061283 0.479407 -0.222727
N6    N     N_R   0.546853 0.938717 0.520593 -0.222727
N7    N     N_R   0.046844 0.561128 0.020562 -0.222725
N8    N     N_R   0.953191 0.438839 0.979489 -0.222860
C69   C     C_R   0.465428 0.992683 0.536158 0.638875
C70   C     C_R   0.534573 0.007317 0.463842 0.638875
C71   C     C_R   0.034568 0.492730 0.963837 0.638546
C72   C     C_R   0.965467 0.507258 0.036211 0.638527
F1    F     F_    0.278518 0.842960 0.953653 -0.593507
F2    F     F_    0.721487 0.157026 0.046347 -0.593556
F3    F     F_    0.222597 0.365795 0.545452 -0.594114
F4    F     F_    0.777403 0.634205 0.454548 -0.594115
F5    F     F_    0.656966 0.190410 0.940070 -0.604085
F6    F     F_    0.343040 0.809572 0.059928 -0.604090
F7    F     F_    0.839617 0.617935 0.563049 -0.602454
F8    F     F_    0.160383 0.382065 0.436951 -0.602453
F9    F     F_    0.474670 0.174256 0.875107 -0.677716
F10   F     F_    0.525334 0.825739 0.124889 -0.677717
F11   F     F_    0.015359 0.449921 0.635924 -0.673778
F12   F     F_    0.984641 0.550079 0.364076 -0.673801
F13   F     F_    0.676213 0.746780 0.384319 -0.610583
F14   F     F_    0.323787 0.253220 0.615681 -0.610583
F15   F     F_    0.823962 0.246851 0.115837 -0.610593
F16   F     F_    0.176116 0.752993 0.884244 -0.610658
C73   C     C_2   0.602173 0.683094 0.449085 0.548428
H13   H     H_    0.635033 0.594794 0.460410 0.130800
O21   O     O_2   0.562090 0.623624 0.457600 -0.510907
C74   C     C_2   0.397828 0.316907 0.550915 0.548428
H14   H     H_    0.364967 0.405207 0.539590 0.130800
O22   O     O_2   0.437910 0.376376 0.542400 -0.510906
C75   C     C_2   0.898002 0.183244 0.051055 0.547985
H15   H     H_    0.865150 0.095273 0.039646 0.128591
O23   O     O_2   0.938122 0.123514 0.042656 -0.510709
C76   C     C_2   0.102101 0.816635 0.949062 0.547960
H16   H     H_    0.134964 0.904552 0.960453 0.128646
O24   O     O_2   0.061999 0.876387 0.957512 -0.510663
F17   F     F_    0.613293 0.356395 0.323621 -0.626875
F18   F     F_    0.386706 0.643605 0.676379 -0.626874
F19   F     F_    0.886666 0.856007 0.176400 -0.625670
F20   F     F_    0.113275 0.144141 0.823526 -0.625731

loop_
_geom_bond_atom_site_label_1
_geom_bond_atom_site_label_2
_ccdc_geom_bond_type
O17   V3    S    
C51   C55   A    
O1    C5    A    
C48   F16   S    
C55   C59   A    
O19   V1    S    
C9    C21   A    
O3    C7    A    
C10   C18   A    
C60   H12   S    
C48   C52   A    
C11   C23   A    
C51   C75   S    
C15   F7    S    
C33   C38   A    
C5    C12   S    
O7    C3    A    
C6    C11   S    
C35   C40   A    
C26   C30   A    
C48   C68   A    
C36   C39   A    
C39   F11   S    
C40   C44   A    
N4    C71   A    
O9    V1    S    
C53   C70   S    
C23   H8    S    
C14   C18   A    
O16   V4    S    
O4    C8    A    
C25   C29   A    
C44   H4    S    
C46   C66   A    
O1    V3    S    
O13   V1    S    
O2    V4    S    
C32   C44   A    
O3    V1    S    
C63   F19   S    
C28   C36   A    
C45   C65   A    
C1    O15   A    
C64   C68   A    
C15   C31   A    
C56   C60   A    
C2    O16   A    
C40   F12   S    
O2    C6    A    
C10   C22   A    
C52   C76   S    
C17   F2    S    
C11   C19   A    
N6    C70   A    
C16   C20   A    
C43   H3    S    
N5    C69   A    
C19   F4    S    
C13   C29   A    
C34   C37   A    
O11   C7    A    
O15   V3    S    
C35   C36   A    
O12   C8    A    
C50   C74   S    
C24   H7    S    
C47   C67   A    
N3    N7    A    
O10   V2    S    
C49   C53   A    
C58   H10   S    
O5    V1    S    
C16   F8    S    
C39   C43   A    
O7    V3    S    
C38   C42   A    
N2    C69   A    
C26   C34   A    
N1    C70   A    
C74   O22   D    
C63   C67   A    
C54   C58   A    
C38   F10   S    
C53   C57   A    
O18   V4    S    
C15   C19   A    
C62   F18   S    
C20   F3    S    
C16   C32   A    
C62   C66   A    
C57   H9    S    
N4    N8    A    
C57   C61   A    
C21   H6    S    
O8    V4    S    
O5    C1    A    
N7    C71   A    
C46   C50   A    
C31   C43   A    
C14   C30   A    
C45   C49   A    
O8    C4    A    
C7    C10   S    
C47   F15   S    
C21   C25   A    
O9    C5    A    
C45   F13   S    
O11   V3    S    
C55   C72   S    
C14   F6    S    
C13   F5    S    
O6    V2    S    
C54   C69   S    
C73   H13   S    
C76   O24   D    
C12   C20   A    
C27   C35   A    
N8    C72   A    
C29   C41   A    
C60   C64   A    
N2    N6    A    
N1    N5    A    
C2    C67   S    
C61   F17   S    
C52   C56   A    
C74   H14   S    
C3    O13   A    
O6    C2    A    
C25   C33   A    
C23   C27   A    
C75   H15   S    
C18   F1    S    
C49   C73   S    
C30   C42   A    
O12   V4    S    
C22   C26   A    
C8    C9    S    
C9    C17   A    
O10   C6    A    
C56   C71   S    
O20   V2    S    
C46   F14   S    
C4    C65   S    
C50   C54   A    
C47   C51   A    
C75   O23   D    
C33   C34   A    
C42   H2    S    
C64   F20   S    
C1    C68   S    
C41   H1    S    
C12   C24   A    
C3    C66   S    
C27   C31   A    
C13   C17   A    
C61   C65   A    
N3    C72   A    
O14   V2    S    
C59   H11   S    
C37   C41   A    
C24   C28   A    
C4    O14   A    
C73   O21   D    
C76   H16   S    
C37   F9    S    
C59   C63   A    
C58   C62   A    
C22   H5    S    
O4    V2    S    
C28   C32   A    
