data_mof_unit_28766.cif
_audit_creation_date              2012-12-11T20:14:01-0500
_audit_creation_method            fapswitch 2.2
_symmetry_space_group_name_H-M    P1
_symmetry_Int_Tables_number       1
_space_group_crystal_system       triclinic
_cell_length_a                    21.775692
_cell_length_b                    26.84956
_cell_length_c                    8.666407
_cell_angle_alpha                 90.616851
_cell_angle_beta                  103.578555
_cell_angle_gamma                 89.718131
_cell_volume                      4925.04118657

loop_
_atom_site_label
_atom_site_type_symbol
_atom_type_description
_atom_site_fract_x
_atom_site_fract_y
_atom_site_fract_z
_atom_type_partial_charge
Ba1   Ba    Ba6+2 0.999850 0.464270 0.844920 1.529310
Ba2   Ba    Ba6+2 0.999850 0.535730 0.344920 1.263668
Ba3   Ba    Ba6+2 0.499850 0.964270 0.844920 1.569157
Ba4   Ba    Ba6+2 0.499850 0.035730 0.344920 1.592750
C1    C     C_3   0.045625 0.269570 0.669925 -0.272579
C2    C     C_2   0.824595 0.684426 0.798100 -0.100724
C3    C     C_2   0.322974 0.818421 0.296691 -0.024977
C4    C     C_2   0.324594 0.184426 0.798104 -0.051962
C5    C     C_2   0.800562 0.312764 0.130698 0.452248
C6    C     C_2   0.799682 0.687721 0.632114 0.147583
C7    C     C_2   0.300562 0.812764 0.130699 0.011376
C8    C     C_2   0.299679 0.187719 0.632118 0.113471
C9    C     C_2   0.820049 0.348397 0.031083 -0.424749
C10   C     C_2   0.818372 0.650821 0.532871 -0.124089
C11   C     C_2   0.320050 0.848397 0.031084 -0.074531
C12   C     C_3   0.046175 0.729825 0.182202 -0.303024
C13   C     C_2   0.318370 0.150819 0.532875 -0.235671
C14   C     C_1   0.860643 0.387024 0.096094 0.107633
C15   C     C_1   0.860018 0.613037 0.597761 0.144679
C16   C     C_1   0.360643 0.887023 0.096094 0.130968
C17   C     C_1   0.360018 0.113036 0.597764 0.103957
C18   C     C_R   0.148295 0.704544 0.915138 -0.056945
C19   C     C_R   0.146983 0.294904 0.407391 0.005764
C20   C     C_R   0.648294 0.204544 0.915136 -0.030552
C21   C     C_R   0.646984 0.794905 0.407390 -0.038070
C22   C     C_R   0.100760 0.667472 0.848478 0.077660
C23   C     C_3   0.545626 0.769571 0.669925 -0.156309
C24   C     C_R   0.102552 0.333807 0.336603 0.129440
C25   C     C_R   0.600760 0.167472 0.848477 0.147179
C26   C     C_R   0.602553 0.833808 0.336603 0.140777
C27   C     C_R   0.130178 0.617936 0.095798 0.014074
C28   C     C_R   0.130351 0.383356 0.587873 0.035644
C29   C     C_R   0.630177 0.117936 0.095797 0.183447
C30   C     C_R   0.630351 0.883356 0.587874 0.101969
C31   C     C_R   0.176992 0.651224 0.154910 0.082334
C32   C     C_R   0.173431 0.348026 0.651069 -0.227896
C33   C     C_R   0.676992 0.151224 0.154909 -0.084803
C34   C     C_3   0.546179 0.229820 0.182238 -0.141605
C35   C     C_R   0.673431 0.848026 0.651069 -0.071388
C36   C     C_R   0.187112 0.697221 0.066257 -0.008912
C37   C     C_R   0.183833 0.301899 0.561485 0.283340
C38   C     C_R   0.687112 0.197221 0.066255 0.030313
C39   C     C_R   0.683834 0.801899 0.561484 0.011820
C40   C     C_3   0.961985 0.286003 0.032720 0.211679
C41   C     C_3   0.962651 0.714242 0.545674 0.236150
C42   C     C_3   0.461985 0.786003 0.032718 0.182755
C43   C     C_3   0.462655 0.214248 0.545737 0.208240
C44   C     C_2   0.756182 0.271862 0.058394 -0.235769
C45   C     C_3   0.861473 0.360059 0.361424 0.024043
C46   C     C_2   0.755402 0.728355 0.558182 -0.082386
C47   C     C_2   0.256183 0.771862 0.058394 -0.006227
C48   C     C_2   0.255397 0.228352 0.558185 -0.030077
C49   C     C_2   0.236450 0.734472 0.139971 -0.009990
C50   C     C_2   0.230905 0.263856 0.639257 -0.193213
C51   C     C_2   0.736450 0.234472 0.139970 -0.013213
C52   C     C_2   0.730905 0.763856 0.639257 0.010386
C53   C     C_R   0.088700 0.627354 0.955456 -0.177986
C54   C     C_R   0.094496 0.377594 0.437785 -0.199533
C55   C     C_R   0.588700 0.127354 0.955454 -0.067664
C56   C     C_3   0.861602 0.642077 0.862808 0.000247
C57   C     C_R   0.594497 0.877593 0.437785 -0.164305
C58   C     C_3   0.925690 0.239555 0.962798 0.031260
C59   C     C_3   0.926983 0.761231 0.480236 -0.196139
C60   C     C_3   0.425690 0.739555 0.962797 -0.276856
C61   C     C_3   0.426984 0.261236 0.480297 -0.337043
C62   C     C_3   0.224737 0.484173 0.295524 0.896283
C63   C     C_3   0.241801 0.508310 0.805602 1.110617
C64   C     C_3   0.724736 0.984173 0.295525 0.923435
C65   C     C_3   0.741802 0.008309 0.805603 1.038302
C66   C     C_3   0.296541 0.486340 0.363660 -0.241100
C67   C     C_3   0.361473 0.860059 0.361424 -0.009433
C68   C     C_3   0.293556 0.524357 0.722554 -0.358632
C69   C     C_3   0.796540 0.986335 0.363661 -0.276362
C70   C     C_3   0.793558 0.024355 0.722554 -0.233306
C71   C     C_3   0.813096 0.526167 0.878251 0.164261
C72   C     C_3   0.812615 0.473421 0.380509 0.332303
C73   C     C_3   0.313096 0.026167 0.878253 0.251389
C74   C     C_3   0.312615 0.973421 0.380509 0.259505
C75   C     C_3   0.750862 0.554157 0.824952 -0.334639
C76   C     C_3   0.749440 0.447806 0.315650 -0.215766
C77   C     C_3   0.250862 0.054157 0.824954 -0.112104
C78   C     C_3   0.361603 0.142077 0.862812 0.066339
C79   C     C_3   0.249441 0.947806 0.315649 -0.281978
C80   C     C_3   0.988551 0.272798 0.529208 0.747171
C81   C     C_3   0.988530 0.727868 0.042513 0.663710
C82   C     C_3   0.488551 0.772798 0.529207 0.672266
C83   C     C_3   0.488539 0.227866 0.042535 0.978439
C84   C     C_2   0.894122 0.380512 0.251061 -0.506781
C85   C     C_2   0.893763 0.620180 0.752390 -0.522072
C86   C     C_2   0.394122 0.880512 0.251061 -0.312349
C87   C     C_2   0.393764 0.120181 0.752392 -0.345591
C88   C     C_2   0.822974 0.318421 0.296691 -0.125867
Cl1   Cl    Cl    0.187386 0.484069 0.444450 -0.739482
Cl2   Cl    Cl    0.287940 0.498260 0.997359 -0.629353
Cl3   Cl    Cl    0.687386 0.984070 0.444452 -0.725901
Cl4   Cl    Cl    0.787941 0.998259 0.997360 -0.572173
H1    H     H_    0.997393 0.300605 0.442781 -0.175084
H2    H     H_    0.323294 0.554552 0.790651 0.177638
H3    H     H_    0.432685 0.268384 0.358658 0.219749
H4    H     H_    0.896925 0.178320 0.270305 0.356537
H5    H     H_    0.025717 0.830880 0.807956 0.380586
H6    H     H_    0.396936 0.678321 0.270265 0.390010
H7    H     H_    0.525744 0.330878 0.807990 0.410199
H8    H     H_    0.274029 0.377097 0.355814 0.360636
H9    H     H_    0.090315 0.551961 0.745188 0.351792
H10   H     H_    0.773996 0.877014 0.355544 0.362696
H11   H     H_    0.590317 0.051961 0.745186 0.351811
H12   H     H_    0.810263 0.963284 0.471472 0.095412
H13   H     H_    0.823297 0.054549 0.790654 0.142473
H14   H     H_    0.323631 0.469717 0.283165 0.188567
H15   H     H_    0.274360 0.540843 0.605419 0.113004
H16   H     H_    0.823629 0.969713 0.283162 0.205466
H17   H     H_    0.774361 0.040843 0.605421 0.100124
H18   H     H_    0.830630 0.516637 0.771382 0.076110
H19   H     H_    0.834768 0.480412 0.279948 0.044238
H20   H     H_    0.330631 0.016638 0.771384 0.058519
H21   H     H_    0.996653 0.700771 0.951608 -0.033818
H22   H     H_    0.334768 0.980412 0.279948 0.055557
H23   H     H_    0.847856 0.550050 0.960165 0.124252
H24   H     H_    0.843543 0.449235 0.469221 0.027805
H25   H     H_    0.347856 0.050050 0.960169 0.021907
H26   H     H_    0.343543 0.949235 0.469220 0.050276
H27   H     H_    0.714147 0.528860 0.755432 0.171973
H28   H     H_    0.716322 0.473761 0.238216 0.164985
H29   H     H_    0.214147 0.028861 0.755432 0.153054
H30   H     H_    0.216323 0.973761 0.238217 0.164420
H31   H     H_    0.756217 0.585800 0.748253 0.088244
H32   H     H_    0.497392 0.800605 0.442779 -3.743863
H33   H     H_    0.755401 0.414578 0.243759 0.039872
H34   H     H_    0.256217 0.085801 0.748257 0.029625
H35   H     H_    0.255401 0.914578 0.243758 0.068390
H36   H     H_    0.735107 0.568515 0.930039 0.148688
H37   H     H_    0.728724 0.436195 0.415116 0.087155
H38   H     H_    0.235107 0.068514 0.930042 0.071538
H39   H     H_    0.228725 0.936195 0.415116 0.141219
H40   H     H_    0.086938 0.254135 0.631733 0.090948
H41   H     H_    0.087818 0.743802 0.143476 0.088572
H42   H     H_    0.586938 0.754136 0.631732 0.084787
H43   H     H_    0.496665 0.200769 0.951638 -1.067251
H44   H     H_    0.587826 0.243795 0.143527 0.102501
H45   H     H_    0.057420 0.307064 0.723140 0.082476
H46   H     H_    0.056767 0.692179 0.233133 0.073013
H47   H     H_    0.557420 0.807065 0.723138 0.083664
H48   H     H_    0.556766 0.192173 0.233167 0.083433
H49   H     H_    0.931304 0.232593 0.840532 0.106889
H50   H     H_    0.945378 0.793807 0.556605 0.175777
H51   H     H_    0.443721 0.706608 0.035925 0.219820
H52   H     H_    0.445404 0.293818 0.556613 0.253478
H53   H     H_    0.756249 0.230454 0.265905 0.099423
H54   H     H_    0.312593 0.525342 0.389779 0.126903
H55   H     H_    0.745142 0.765918 0.767377 0.120545
H56   H     H_    0.256249 0.730454 0.265907 0.110017
H57   H     H_    0.245148 0.265922 0.767375 0.132278
H58   H     H_    0.803078 0.345637 0.903174 0.191012
H59   H     H_    0.800145 0.652046 0.405177 0.116415
H60   H     H_    0.303079 0.845637 0.903174 0.085933
H61   H     H_    0.300141 0.152043 0.405182 0.124973
H62   H     H_    0.151631 0.736848 0.844674 0.106927
H63   H     H_    0.150166 0.261679 0.338308 0.043783
H64   H     H_    0.651631 0.236848 0.844673 0.129297
H65   H     H_    0.325374 0.492574 0.714266 0.187379
H66   H     H_    0.650168 0.761679 0.338307 0.121504
H67   H     H_    0.239483 0.773382 0.930717 0.109659
H68   H     H_    0.242648 0.228428 0.429589 0.092717
H69   H     H_    0.739482 0.273383 0.930716 0.113729
H70   H     H_    0.742658 0.728436 0.429586 0.103600
H71   H     H_    0.806480 0.294548 0.378296 0.094735
H72   H     H_    0.812778 0.711606 0.879651 0.101467
H73   H     H_    0.306481 0.794548 0.378297 0.117725
H74   H     H_    0.312775 0.211605 0.879655 0.113436
H75   H     H_    0.210349 0.643128 0.265730 0.079473
H76   H     H_    0.812596 0.025336 0.389790 0.118544
H77   H     H_    0.203344 0.354092 0.768483 0.169867
H78   H     H_    0.710349 0.143128 0.265728 0.109603
H79   H     H_    0.703345 0.854092 0.768483 0.158426
H80   H     H_    0.944909 0.385882 0.282907 0.163544
H81   H     H_    0.944344 0.614094 0.783691 0.091323
H82   H     H_    0.444909 0.885882 0.282907 0.066108
H83   H     H_    0.444344 0.114096 0.783691 0.087697
H84   H     H_    0.049980 0.602175 0.911230 0.069411
H85   H     H_    0.062415 0.406867 0.384722 0.111332
H86   H     H_    0.549981 0.102174 0.911228 0.029458
H87   H     H_    0.825373 0.992571 0.714260 0.140934
H88   H     H_    0.562415 0.906866 0.384723 0.099015
H89   H     H_    0.035382 0.244626 0.761940 0.171166
H90   H     H_    0.037310 0.755316 0.276278 0.177126
H91   H     H_    0.535383 0.744627 0.761940 0.144808
H92   H     H_    0.537312 0.255311 0.276310 0.123049
H93   H     H_    0.944393 0.317346 0.951512 0.076421
H94   H     H_    0.944141 0.683173 0.462303 0.064408
H95   H     H_    0.444394 0.817346 0.951509 0.104247
H96   H     H_    0.444130 0.183175 0.462407 0.099117
H97   H     H_    0.952751 0.293672 0.151462 0.036989
H98   H     H_    0.310266 0.463292 0.471479 0.076731
H99   H     H_    0.953791 0.706734 0.664355 0.018053
H100  H     H_    0.452751 0.793673 0.151460 0.110894
H101  H     H_    0.453817 0.206751 0.664442 0.151784
H102  H     H_    0.943720 0.206608 0.035927 0.153494
H103  H     H_    0.875947 0.756828 0.475628 0.063076
H104  H     H_    0.374716 0.744500 0.958659 0.095488
H105  H     H_    0.375953 0.256843 0.475781 0.104288
H106  H     H_    0.874715 0.244500 0.958660 0.020455
H107  H     H_    0.932716 0.768397 0.358637 0.155347
H108  H     H_    0.431304 0.732593 0.840530 0.187807
O1    O     O_2   0.875320 0.428620 0.822840 -0.450698
O2    O     O_3   0.027416 0.721320 0.557374 -0.535505
O3    O     O_3   0.526711 0.777904 0.045845 -0.569399
O4    O     O_3   0.527414 0.221317 0.557359 -0.556082
O5    O     O_3   0.072510 0.524860 0.092920 -0.385863
O6    O     O_3   0.072510 0.475140 0.592920 -0.439032
O7    O     O_3   0.572510 0.024860 0.092920 -0.379429
O8    O     O_3   0.572510 0.975140 0.592920 -0.445300
O9    O     O_3   0.927380 0.474960 0.096800 -0.517942
O10   O     O_3   0.927380 0.525040 0.596800 -0.525313
O11   O     O_3   0.427380 0.974960 0.096800 -0.430687
O12   O     O_2   0.875320 0.571380 0.322840 -0.450745
O13   O     O_3   0.427380 0.025040 0.596800 -0.464159
O14   O     O_3   0.978260 0.384470 0.628120 -0.480859
O15   O     O_3   0.978260 0.615530 0.128120 -0.572138
O16   O     O_3   0.478260 0.884470 0.628120 -0.483288
O17   O     O_3   0.478260 0.115530 0.128120 -0.503958
O18   O     O_2   0.871103 0.350498 0.681642 -0.492406
O19   O     O_2   0.870756 0.649227 0.184348 -0.445669
O20   O     O_2   0.371103 0.850497 0.681642 -0.480567
O21   O     O_2   0.370759 0.149229 0.184355 -0.499541
O22   O     O_3   0.802018 0.483333 0.957593 -0.582059
O23   O     O_2   0.375320 0.928620 0.822840 -0.451681
O24   O     O_3   0.801314 0.517771 0.454629 -0.650651
O25   O     O_3   0.302018 0.983333 0.957593 -0.603378
O26   O     O_3   0.301314 0.017770 0.454630 -0.619107
O27   O     O_3   0.934576 0.283203 0.586108 -0.599894
O28   O     O_3   0.934844 0.717183 0.099450 -0.619339
O29   O     O_3   0.434576 0.783203 0.586108 -0.557859
O30   O     O_3   0.434847 0.217185 0.099452 -0.578179
O31   O     O_2   0.124210 0.428020 0.866900 -0.349081
O32   O     O_2   0.124210 0.571980 0.366900 -0.390182
O33   O     O_2   0.624210 0.928020 0.866900 -0.361645
O34   O     O_2   0.375320 0.071380 0.322840 -0.439912
O35   O     O_2   0.624210 0.071980 0.366900 -0.404029
O36   O     O_3   0.021040 0.384370 0.061630 -0.423080
O37   O     O_3   0.021040 0.615630 0.561630 -0.494366
O38   O     O_3   0.521040 0.884370 0.061630 -0.451350
O39   O     O_3   0.521040 0.115630 0.561630 -0.482466
O40   O     O_2   0.121018 0.334696 0.026933 -0.419955
O41   O     O_2   0.122057 0.665067 0.540355 -0.416985
O42   O     O_2   0.621019 0.834697 0.026932 -0.384384
O43   O     O_2   0.622058 0.165065 0.540353 -0.413998
O44   O     O_2   0.025838 0.206049 0.335383 -0.328838
O45   O     O_3   0.213229 0.462315 0.741189 -0.581111
O46   O     O_2   0.980827 0.172938 0.547727 -0.242410
O47   O     O_3   0.904200 0.213428 0.305864 -0.549738
O48   O     O_2   0.913697 0.788278 0.833860 -0.314738
O49   O     O_2   0.978651 0.827432 0.073432 -0.230073
O50   O     O_3   0.034464 0.797298 0.854270 -0.554590
O51   O     O_2   0.525838 0.706050 0.335380 -0.275410
O52   O     O_2   0.480830 0.672938 0.547728 -0.205728
O53   O     O_3   0.404200 0.713427 0.305869 -0.534462
O54   O     O_2   0.413706 0.288292 0.833937 -0.313303
O55   O     O_2   0.478710 0.327434 0.073458 -0.198523
O56   O     O_3   0.203376 0.524404 0.192056 -0.565657
O57   O     O_3   0.534466 0.297276 0.854219 -0.568699
O58   O     O_2   0.134039 0.426179 0.159421 -0.200016
O59   O     O_2   0.231873 0.412443 0.069493 -0.211121
O60   O     O_3   0.228070 0.381021 0.346520 -0.550432
O61   O     O_2   0.224278 0.595268 0.932266 -0.334672
O62   O     O_2   0.181070 0.585327 0.650655 -0.258107
O63   O     O_3   0.122631 0.540675 0.838538 -0.579570
O64   O     O_2   0.634036 0.926179 0.159427 -0.270487
O65   O     O_2   0.731868 0.912444 0.069491 -0.259017
O66   O     O_3   0.728072 0.881026 0.346531 -0.541342
O67   O     O_3   0.713229 0.962315 0.741189 -0.587103
O68   O     O_2   0.724280 0.095267 0.932267 -0.349255
O69   O     O_2   0.681072 0.085327 0.650656 -0.316819
O70   O     O_3   0.622633 0.040675 0.838537 -0.561047
O71   O     O_3   0.703377 0.024405 0.192060 -0.567213
O72   O     O_3   0.026711 0.277904 0.045845 -0.594516
P1    P     P_3+3 0.869190 0.445350 0.992760 1.054608
P2    P     P_3+3 0.068276 0.666884 0.629872 1.080624
P3    P     P_3+3 0.568149 0.832163 0.119333 1.029754
P4    P     P_3+3 0.568276 0.166883 0.629869 1.000221
P5    P     P_3+3 0.912585 0.654734 0.064669 1.197663
P6    P     P_3+3 0.912583 0.345896 0.560468 1.103359
P7    P     P_3+3 0.412586 0.154736 0.064673 1.102269
P8    P     P_3+3 0.412583 0.845896 0.560468 1.035697
P9    P     P_3+3 0.869190 0.554650 0.492760 1.079192
P10   P     P_3+3 0.369190 0.945350 0.992760 0.911497
P11   P     P_3+3 0.369190 0.054650 0.492760 0.981273
P12   P     P_3+3 0.130420 0.444720 0.696970 1.251636
P13   P     P_3+3 0.130420 0.555280 0.196970 1.286172
P14   P     P_3+3 0.630420 0.944720 0.696970 1.272481
P15   P     P_3+3 0.630420 0.055280 0.196970 1.203506
P16   P     P_3+3 0.068149 0.332164 0.119333 1.136641
S1    S     S_3+6 0.976499 0.213958 0.428844 0.037981
S2    S     S_3+6 0.976908 0.787352 0.949990 -0.038701
S3    S     S_3+6 0.476500 0.713958 0.428845 -0.055955
S4    S     S_3+6 0.476929 0.287351 0.950013 -0.133756
S5    S     S_3+6 0.204470 0.424997 0.208470 -0.095322
S6    S     S_3+6 0.191391 0.559529 0.806112 -0.011805
S7    S     S_3+6 0.704466 0.924998 0.208472 0.056026
S8    S     S_3+6 0.691393 0.059529 0.806113 -0.088984

loop_
_geom_bond_atom_site_label_1
_geom_bond_atom_site_label_2
_ccdc_geom_bond_type
C41   H99   S    
C1    H40   S    
C86   H82   S    
Ba2   O12   S    
C41   O2    S    
C10   H59   S    
C72   O24   S    
C31   H75   S    
O27   P6    S    
C12   H41   S    
C66   H54   S    
C28   C54   D    
C42   H95   S    
O18   P6    D    
H4    O47   S    
C59   H103  S    
C21   C39   A    
C50   H57   S    
C77   H34   S    
C58   H102  S    
C60   H104  S    
C77   H38   S    
C68   H2    S    
C20   C38   A    
C25   P4    S    
C3    C7    A    
C67   C86   A    
C26   P3    S    
C72   H24   S    
Ba4   O7    S    
C59   H107  S    
C43   O4    S    
C54   H85   S    
O48   S2    D    
C80   H1    S    
C28   C32   D    
Ba2   P13   S    
C74   H22   S    
Ba1   Ba2   S    
O64   S7    D    
C62   O56   S    
O33   P14   D    
C40   H97   S    
C40   H93   S    
O62   S6    D    
C81   S2    S    
Ba4   O17   S    
C15   P9    S    
O11   P10   S    
C71   C75   S    
C45   P6    S    
O43   P4    D    
C72   H19   S    
O6    P12   S    
O53   S3    S    
O2    P2    S    
O63   S6    S    
C63   C68   S    
C43   H96   S    
C80   O27   S    
H11   O70   S    
O7    P15   S    
C20   C25   S    
C58   H106  S    
C5    C9    A    
C66   H14   S    
O65   S7    D    
C8    C48   S    
C33   H78   S    
O22   P1    S    
C7    C11   A    
O24   P9    S    
O40   P16   D    
C44   H69   S    
C25   C55   S    
C4    H74   S    
Ba3   O16   S    
C57   H88   S    
O58   S5    D    
C19   H63   S    
C8    C13   A    
C46   H70   S    
C63   Cl2   S    
C23   H47   S    
C68   H65   S    
O52   S3    D    
C49   H56   S    
C47   H67   S    
O41   P2    D    
C85   H81   S    
O28   P5    S    
C73   H20   S    
C13   H61   S    
O32   P13   D    
O68   S8    D    
C59   H50   S    
C79   H39   S    
O19   P5    D    
C66   H98   S    
C65   Cl4   S    
O59   S5    D    
C60   H108  S    
C68   H15   S    
C32   H77   S    
C29   C55   D    
Ba4   O11   S    
O46   S1    D    
C45   C84   A    
C76   H28   S    
C32   C37   S    
C42   O3    S    
C81   O28   S    
O5    P13   S    
O38   P3    S    
C70   H13   S    
C78   P7    S    
C74   C79   S    
C5    C88   A    
C29   P15   S    
C48   C50   D    
C51   H53   S    
C2    H72   S    
Ba1   O36   S    
Ba3   O7    S    
C11   C16   A    
O36   P16   S    
C64   S7    S    
O9    P1    S    
O14   P6    S    
Ba2   O6    S    
Ba4   P11   S    
C82   H32   S    
C30   C35   D    
C82   O29   S    
Ba1   O10   S    
C2    C56   A    
O17   P7    S    
C71   H23   S    
O60   S5    S    
C61   H3    S    
C35   H79   S    
C6    C10   A    
O23   P10   D    
C1    C80   S    
C19   C37   A    
C69   H12   S    
C23   H91   S    
C80   S1    S    
C18   H62   S    
C40   C58   S    
C23   H42   S    
C19   C24   S    
C70   H17   S    
Ba1   O5    S    
O45   P12   S    
C30   C57   D    
C29   C33   D    
C76   H37   S    
O37   P2    S    
C42   C60   S    
C47   C49   D    
Ba3   O38   S    
O47   S1    S    
O26   P11   S    
C55   H86   S    
C12   H46   S    
O30   P7    S    
Ba1   P1    S    
C56   P5    S    
C15   C85   A    
O70   S8    S    
C38   C51   S    
C65   O67   S    
C14   P1    S    
C41   H94   S    
C1    H45   S    
C73   C77   S    
C21   H66   S    
Ba3   O13   S    
C18   C36   A    
O29   P8    S    
C33   C38   S    
C27   P13   S    
O31   P12   D    
H7    O57   S    
C58   H49   S    
C61   H105  S    
C65   C70   S    
O16   P8    S    
C71   H18   S    
C16   P10   S    
O12   P9    D    
C52   H55   S    
C81   H21   S    
C17   P11   S    
C24   P16   S    
C64   Cl3   S    
Ba1   O14   S    
Ba3   O33   S    
Ba2   P9    S    
C9    C14   A    
O13   P11   S    
Ba2   O32   S    
C40   O72   S    
C7    C47   S    
C48   H68   S    
O55   S4    D    
H10   O66   S    
C62   Cl1   S    
C60   H51   S    
C28   P12   S    
C12   C81   S    
C23   C82   S    
C27   C31   D    
C26   C57   S    
C72   C76   S    
C67   P8    S    
Ba3   P10   S    
Ba3   Ba4   S    
C6    C46   S    
Ba3   O23   S    
C45   C88   A    
C22   P2    S    
O8    P14   S    
Ba4   O39   S    
C69   H16   S    
O3    P3    S    
C17   C87   A    
C21   C26   S    
O4    P4    S    
C75   H31   S    
O56   P13   S    
Ba2   O5    S    
Ba4   O34   S    
C76   H33   S    
O67   P14   S    
C44   C51   D    
C77   H29   S    
Ba1   O6    S    
C69   H76   S    
C34   H48   S    
C10   C15   A    
C71   O22   S    
C75   H27   S    
Ba2   O9    S    
Ba3   O8    S    
O34   P11   D    
C83   H43   S    
C9    H58   S    
O50   S2    S    
O51   S3    D    
Ba4   O8    S    
O39   P4    S    
O25   P10   S    
C53   H84   S    
C35   C39   S    
C20   H64   S    
O15   P5    S    
C70   H87   S    
C24   C54   S    
C74   O26   S    
H8    O60   S    
C34   C83   S    
C62   S5    S    
C73   O25   S    
C83   S4    S    
C84   H80   S    
H6    O53   S    
C1    H89   S    
C87   H83   S    
C27   C53   D    
C3    H73   S    
C79   H35   S    
C64   C69   S    
Ba4   P15   S    
C63   S6    S    
C12   H90   S    
C46   C52   D    
C3    C67   A    
C88   H71   S    
C65   S8    S    
O20   P8    D    
C64   O71   S    
C16   C86   A    
Ba1   O31   S    
C34   H92   S    
C75   H36   S    
C56   C85   A    
Ba1   O1    S    
Ba4   O35   S    
C41   C59   S    
O44   S1    D    
C31   C36   S    
O61   S6    D    
O21   P7    D    
H9    O63   S    
O42   P3    D    
C74   H26   S    
C22   C53   S    
C14   C84   A    
C37   C50   S    
O69   S8    D    
C73   H25   S    
C2    C6    A    
C78   C87   A    
C36   C49   S    
O72   P16   S    
O54   S4    D    
C39   C52   S    
C4    C78   A    
C61   H52   S    
O35   P15   D    
C62   C66   S    
C82   S3    S    
C5    C44   S    
C11   H60   S    
Ba2   O15   S    
C18   C22   S    
O57   S4    S    
O1    P1    D    
C42   H100  S    
C83   O30   S    
C34   H44   S    
O49   S2    D    
C43   H101  S    
O71   P15   S    
C79   H30   S    
Ba3   P14   S    
C30   P14   S    
Ba2   O37   S    
H5    O50   S    
C43   C61   S    
Ba1   P12   S    
O10   P9    S    
C4    C8    A    
O66   S7    S    
C63   O45   S    
C13   C17   A    
