data_mof_unit_15940.cif
_audit_creation_date              2013-03-05T16:23:00-0500
_audit_creation_method            fapswitch 2.2
_symmetry_space_group_name_H-M    P1
_symmetry_Int_Tables_number       1
_space_group_crystal_system       triclinic
_cell_length_a                    23.157966
_cell_length_b                    10.629679
_cell_length_c                    9.853291
_cell_angle_alpha                 90.15087
_cell_angle_beta                  89.957826
_cell_angle_gamma                 89.421028
_cell_volume                      2425.37035802

loop_
_atom_site_label
_atom_site_type_symbol
_atom_site_description
_atom_site_fract_x
_atom_site_fract_y
_atom_site_fract_z
_atom_type_partial_charge
O1    O     O_R   0.500000 0.313960 0.616610 -0.600512
O2    O     O_R   0.500000 0.686040 0.383390 -0.598045
O3    O     O_R   0.500030 0.313950 0.383350 -0.566879
O4    O     O_R   0.499970 0.686050 0.616650 -0.580045
C1    C     C_R   0.500915 0.257769 0.500084 0.924793
C2    C     C_R   0.499213 0.742039 0.499851 0.903629
O5    O     O_R   0.416140 0.499970 0.616650 -0.579387
O6    O     O_R   0.583860 0.500030 0.383350 -0.601660
O7    O     O_R   0.416170 0.499960 0.383400 -0.601593
O8    O     O_R   0.583830 0.500040 0.616600 -0.579303
C3    C     C_R   0.389446 0.505151 0.499652 0.957278
C4    C     C_R   0.611018 0.500104 0.500057 0.932120
Zn1   Zn    Zn3+2 0.499980 0.500010 0.655740 1.089635
Zn2   Zn    Zn3+2 0.500020 0.499990 0.344260 1.072299
C5    C     C_R   0.877359 0.648276 0.513345 0.600671
C6    C     C_R   0.128216 0.525687 0.370691 0.590650
N1    N     N_R   0.856298 0.534294 0.475013 -0.335529
N2    N     N_R   0.152370 0.622962 0.439231 -0.329609
C7    C     C_R   0.891475 0.438310 0.434241 0.615589
C8    C     C_R   0.119653 0.713263 0.501596 0.621379
C9    C     C_R   0.951491 0.455419 0.427827 -0.073791
C10   C     C_R   0.058640 0.707707 0.495090 -0.093902
C11   C     C_R   0.974146 0.575121 0.458078 0.005910
C12   C     C_R   0.034022 0.594663 0.446499 0.006102
C13   C     C_R   0.937354 0.672399 0.506438 -0.079519
C14   C     C_R   0.069678 0.499111 0.389403 -0.104633
C15   C     C_R   0.989221 0.354227 0.397977 -0.060981
C16   C     C_R   0.022037 0.805898 0.543664 -0.088130
C17   C     C_R   0.047280 0.377218 0.366187 -0.140798
C18   C     C_R   0.961598 0.788493 0.548130 -0.073833
O9    O     O_2   0.839652 0.736959 0.557237 -0.494632
O10   O     O_2   0.161811 0.452985 0.289773 -0.475632
O11   O     O_2   0.867995 0.327756 0.396830 -0.493658
O12   O     O_2   0.146378 0.804114 0.572868 -0.472371
C19   C     C_R   0.254466 0.674351 0.391683 0.390467
C20   C     C_R   0.762525 0.503094 0.360770 0.362249
C21   C     C_R   0.312212 0.637871 0.408065 -0.292781
C22   C     C_R   0.702728 0.492037 0.371719 -0.225307
H1    H     H_    0.345135 0.684428 0.349141 0.228246
H2    H     H_    0.677885 0.480433 0.279839 0.245808
C23   C     C_R   0.328204 0.539074 0.495530 -0.192817
C24   C     C_R   0.674666 0.501613 0.498059 -0.215016
C25   C     C_R   0.286099 0.479167 0.575106 0.299621
C26   C     C_R   0.708217 0.513284 0.617382 0.289381
C27   C     C_R   0.228805 0.519223 0.562882 -0.197963
C28   C     C_R   0.768132 0.515971 0.607023 -0.157774
H3    H     H_    0.195286 0.470993 0.618468 0.200819
H4    H     H_    0.793961 0.525961 0.698035 0.215814
C29   C     C_R   0.212507 0.611622 0.468784 0.122575
C30   C     C_R   0.795272 0.515357 0.480333 0.111158
C31   C     C_3   0.516753 0.038820 0.622763 -0.084954
C32   C     C_3   0.484477 0.960363 0.376980 -0.079918
C33   C     C_3   0.553239 0.955075 0.527809 -0.104977
C34   C     C_3   0.447871 0.043604 0.471570 -0.131297
C35   C     C_3   0.499458 0.876933 0.498725 -0.158948
C36   C     C_3   0.501422 0.122512 0.500886 -0.167209
C37   C     C_3   0.462503 0.959135 0.594498 -0.144692
C38   C     C_3   0.538623 0.040053 0.405159 -0.153598
H5    H     H_    0.430825 0.924606 0.669748 0.252144
H6    H     H_    0.570466 0.074250 0.330145 0.237509
C39   C     C_3   0.503964 0.388616 0.046599 0.251505
C40   C     C_3   0.496277 0.611701 0.953479 0.269596
C41   C     C_3   0.547578 0.448979 0.950153 -0.265079
C42   C     C_3   0.452560 0.551477 0.049975 -0.291708
H7    H     H_    0.587013 0.406395 0.904812 0.235567
H8    H     H_    0.412946 0.593485 0.095477 0.212870
N3    N     N_3   0.499960 0.500030 0.863290 -0.189062
N4    N     N_3   0.500040 0.499970 0.136710 -0.189205
C43   C     C_3   0.457518 0.438553 0.953237 0.255430
C44   C     C_3   0.542653 0.561686 0.047278 0.275161
C45   C     C_2   0.973664 0.228031 0.447132 0.996479
O13   O     O_2   0.973706 0.137024 0.371069 -0.507659
O14   O     O_R   0.959869 0.215981 0.584443 -0.772610
H9    H     H_    0.955329 0.126130 0.613707 0.360845
C46   C     C_2   0.045823 0.930332 0.581333 0.992036
O15   O     O_2   0.070877 0.992825 0.496028 -0.533953
O16   O     O_R   0.040246 0.974780 0.714345 -0.723984
H10   H     H_    0.058425 0.060338 0.727345 0.379540
N5    N     N_R   0.507554 0.262086 0.101126 0.252057
O17   O     O_R   0.557543 0.206887 0.114520 -0.381422
O18   O     O_R   0.460653 0.201236 0.129007 -0.269396
N6    N     N_R   0.493781 0.738285 0.898743 0.253064
O19   O     O_R   0.444573 0.797545 0.890166 -0.375338
O20   O     O_R   0.540933 0.793178 0.860235 -0.278264
N7    N     N_R   0.409872 0.365891 0.899791 0.269834
O21   O     O_R   0.357289 0.394713 0.935114 -0.275118
O22   O     O_R   0.420180 0.261476 0.834904 -0.275441
N8    N     N_R   0.590250 0.633816 0.102992 0.257488
O23   O     O_R   0.643189 0.604152 0.071812 -0.272333
O24   O     O_R   0.579974 0.733526 0.175977 -0.296227
C47   C     C_2   0.085404 0.268002 0.333083 1.064076
O25   O     O_2   0.125018 0.239051 0.409295 -0.538943
O26   O     O_R   0.074704 0.196656 0.216631 -0.692149
H11   H     H_    0.102950 0.123816 0.205808 0.393905
C48   C     C_2   0.924046 0.893277 0.594834 0.977237
O27   O     O_2   0.920152 0.917062 0.716003 -0.523670
O28   O     O_R   0.891111 0.960468 0.500101 -0.692213
H12   H     H_    0.865081 0.026138 0.544101 0.379806
N9    N     N_R   0.239588 0.771201 0.294947 0.242715
O29   O     O_R   0.187168 0.784254 0.249374 -0.313136
O30   O     O_R   0.279201 0.845604 0.248319 -0.306100
N10   N     N_R   0.788882 0.505618 0.228407 0.249581
O31   O     O_R   0.833218 0.576558 0.204800 -0.320187
O32   O     O_R   0.765042 0.446960 0.127152 -0.262950
N11   N     N_R   0.299273 0.371850 0.658692 0.250058
O33   O     O_R   0.340969 0.295000 0.625671 -0.342123
O34   O     O_R   0.263850 0.338810 0.754541 -0.263756
N12   N     N_R   0.682845 0.528548 0.748959 0.223107
O35   O     O_R   0.653917 0.630989 0.776691 -0.300819
O36   O     O_R   0.700364 0.457322 0.848193 -0.298594
C49   C     C_2   0.611993 0.899053 0.553467 0.983973
O37   O     O_2   0.635009 0.834083 0.465929 -0.568731
O38   O     O_R   0.640025 0.920647 0.676635 -0.701203
H13   H     H_    0.679382 0.878215 0.680990 0.389601
C50   C     C_2   0.388148 0.089993 0.439113 1.049715
O39   O     O_2   0.380788 0.167623 0.349428 -0.531423
O40   O     O_R   0.341028 0.041836 0.509962 -0.716123
H14   H     H_    0.302853 0.078302 0.477543 0.396836
C51   C     C_2   0.536483 0.085010 0.758594 1.104700
O41   O     O_2   0.508702 0.060566 0.860377 -0.454132
O42   O     O_R   0.586858 0.155724 0.767466 -0.772153
H15   H     H_    0.597098 0.178185 0.864350 0.378968
C52   C     C_2   0.464563 0.915982 0.240694 1.071669
O43   O     O_2   0.493708 0.936242 0.139914 -0.446841
O44   O     O_R   0.412341 0.852329 0.230188 -0.804610
H16   H     H_    0.402414 0.829384 0.133270 0.385082

loop_
_geom_bond_atom_site_label_1
_geom_bond_atom_site_label_2
_geom_bond_distance
_ccdc_geom_bond_type
C41   H7    1.108376 S    
O26   H11   1.013884 S    
C15   C17   1.404289 A    
O14   H9    1.004903 S    
C1    C36   1.437716 S    
C48   O27   1.222815 D    
C2    C35   1.434012 S    
O7    Zn2   1.979445 S    
C44   N8    1.455994 S    
O28   H12   1.013972 S    
C43   N7    1.451643 S    
C52   O43   1.221094 D    
O16   H10   1.013873 S    
O5    C3    1.309515 A    
N11   O34   1.301785 A    
C40   N3    1.482665 S    
O1    C1    1.292902 A    
C42   N4    1.493583 S    
C7    C9    1.404911 A    
C12   C14   1.417507 A    
C22   C24   1.406836 A    
C32   C52   1.496829 S    
C52   O44   1.395497 S    
C38   H6    1.108265 S    
C50   O39   1.221514 D    
N12   O35   1.301006 A    
C40   C44   1.510893 S    
C20   N10   1.439990 S    
C31   C36   1.536055 S    
C25   N11   1.439088 S    
O4    Zn1   2.015698 S    
C46   O16   1.397445 S    
C4    C24   1.474316 S    
C49   O37   1.222193 D    
C26   C28   1.391777 A    
C50   O40   1.397188 S    
C19   C29   1.407344 A    
C31   C51   1.497683 S    
C11   C12   1.408741 A    
C31   C37   1.547309 S    
C26   N12   1.431159 S    
C40   C42   1.534166 S    
C32   C35   1.531626 S    
C8    O12   1.348327 S    
C33   C49   1.501585 S    
C51   O42   1.396810 S    
C9    C15   1.409218 A    
C10   C16   1.419811 A    
C21   C23   1.407172 A    
C23   C25   1.408936 A    
O2    C2    1.291365 A    
C24   C26   1.415605 A    
C19   N9    1.444148 S    
C32   C34   1.532819 S    
C41   N3    1.494919 S    
C27   H3    1.083621 S    
C6    C14   1.399705 A    
C32   C38   1.545218 S    
C34   C36   1.531400 S    
N7    O22   1.299354 A    
O4    C2    1.297076 A    
C7    O11   1.350357 S    
C47   O25   1.223412 D    
C45   O14   1.396451 S    
N7    O21   1.299645 A    
C15   C45   1.475371 S    
N3    C43   1.480985 S    
C42   H8    1.109975 S    
C46   O15   1.222468 D    
C18   C48   1.478422 S    
C47   O26   1.397425 S    
O7    C3    1.302333 A    
N9    O29   1.300865 A    
C41   C44   1.534659 S    
C27   C29   1.401636 A    
O6    C4    1.311105 A    
C34   C50   1.498668 S    
C39   C41   1.532896 S    
C49   O38   1.396306 S    
C42   C43   1.534144 S    
C51   O41   1.221058 D    
N10   O32   1.301337 A    
C25   C27   1.394747 A    
O42   H15   1.012340 S    
O3    Zn2   2.015699 S    
O8    C4    1.309218 A    
C6    N2    1.358933 A    
N9    O30   1.301562 A    
N8    O24   1.299153 A    
N6    O20   1.300091 A    
C35   C37   1.538119 S    
O44   H16   1.012182 S    
C10   C12   1.417518 A    
C37   H5    1.108464 S    
O1    Zn1   2.013885 S    
C33   C35   1.530806 S    
C20   C22   1.395054 A    
C17   C47   1.486769 S    
C20   C30   1.408014 A    
N5    O18   1.299320 A    
O38   H13   1.013806 S    
Zn1   N3    2.045050 S    
C39   C43   1.509120 S    
C13   C18   1.420740 A    
C5    N1    1.363196 A    
O6    Zn2   1.979682 S    
C19   C21   1.398171 A    
C8    C10   1.416268 A    
O3    C1    1.297473 A    
O8    Zn1   1.979447 S    
N1    C30   1.430437 S    
C33   C38   1.546332 S    
C48   O28   1.398819 S    
C5    O9    1.348646 S    
C6    O10   1.349770 S    
N11   O33   1.299127 A    
C28   C30   1.397169 A    
C9    C11   1.412373 A    
C45   O13   1.222162 D    
C21   H1    1.082500 S    
O40   H14   1.013900 S    
C22   H2    1.080472 S    
C39   N4    1.479811 S    
N12   O36   1.300817 A    
C39   N5    1.451247 S    
C16   C18   1.414342 A    
N1    C7    1.358886 A    
C36   C38   1.542504 S    
C3    C23   1.460459 S    
N2    C8    1.361803 A    
C11   C13   1.414653 A    
C40   N6    1.451560 S    
N10   O31   1.301214 A    
O2    Zn2   2.013883 S    
C5    C13   1.416978 A    
N5    O17   1.299505 A    
C28   H4    1.083895 S    
O5    Zn1   1.979679 S    
N8    O23   1.299202 A    
C14   C17   1.418570 A    
N4    C44   1.481753 S    
N6    O19   1.299390 A    
Zn2   N4    2.045049 S    
C31   C33   1.536541 S    
C16   C46   1.484297 S    
N2    C29   1.426937 S    
C34   C37   1.545408 S    
