data_mof_unit_46591.cif
_audit_creation_date              2013-03-05T16:41:36-0500
_audit_creation_method            fapswitch 2.2
_symmetry_space_group_name_H-M    P1
_symmetry_Int_Tables_number       1
_space_group_crystal_system       triclinic
_cell_length_a                    12.839426
_cell_length_b                    10.669801
_cell_length_c                    9.907496
_cell_angle_alpha                 89.622642
_cell_angle_beta                  96.847576
_cell_angle_gamma                 90.481645
_cell_volume                      1347.51816982

loop_
_atom_site_label
_atom_site_type_symbol
_atom_site_description
_atom_site_fract_x
_atom_site_fract_y
_atom_site_fract_z
_atom_type_partial_charge
O1    O     O_R   0.500010 0.316790 0.614690 -0.582620
O2    O     O_R   0.500000 0.316760 0.385350 -0.638506
C1    C     C_R   0.501359 0.260409 0.500145 0.877020
O3    O     O_R   0.346360 0.499990 0.595720 -0.575287
O4    O     O_R   0.346350 0.499960 0.366370 -0.620519
C2    C     C_R   0.298546 0.502749 0.473612 0.933261
Zn1   Zn    Zn3+2 0.500010 0.500020 0.653130 1.041897
Zn2   Zn    Zn3+2 0.499990 0.499980 0.346870 0.970649
O5    O     O_R   0.500000 0.683240 0.614650 -0.557273
O6    O     O_R   0.499990 0.683210 0.385310 -0.648293
O7    O     O_R   0.653650 0.500040 0.633630 -0.639614
O8    O     O_R   0.653640 0.500010 0.404280 -0.607665
C3    C     C_R   0.499814 0.739512 0.499499 0.904158
C4    C     C_R   0.701371 0.501151 0.526523 0.865311
C5    C     C_R   0.812809 0.510492 0.542667 -0.039630
C6    C     C_R   0.186422 0.504476 0.457753 -0.154566
C7    C     C_R   0.025494 0.413554 0.352969 -0.176899
C8    C     C_R   0.132391 0.429509 0.357181 -0.229346
C9    C     C_R   0.134128 0.569400 0.552294 0.218965
C10   C     C_R   0.026560 0.550263 0.551169 0.054872
C11   C     C_R   0.972858 0.471308 0.450560 0.137825
C12   C     C_R   0.866461 0.452093 0.447460 -0.204540
C13   C     C_R   0.864254 0.587028 0.643636 -0.220323
C14   C     C_R   0.970905 0.608296 0.647034 -0.141516
H1    H     H_    0.824757 0.393067 0.369664 0.160523
H2    H     H_    0.821267 0.634254 0.715912 0.183533
H3    H     H_    0.984451 0.353658 0.275782 0.157244
H4    H     H_    0.008253 0.671181 0.723490 0.204458
H5    H     H_    0.173586 0.378733 0.285860 0.167278
C15   C     C_R   0.576877 0.063657 0.588651 -0.018055
C16   C     C_R   0.506359 0.128561 0.496711 -0.002916
C17   C     C_R   0.447556 0.065091 0.389524 -0.188126
H6    H     H_    0.398063 0.115078 0.311075 0.155252
C18   C     C_R   0.446822 0.935599 0.389097 -0.126009
H7    H     H_    0.397466 0.886279 0.309929 0.178031
C19   C     C_R   0.503703 0.871270 0.496838 -0.045195
C20   C     C_R   0.573414 0.935442 0.590546 -0.085016
C21   C     C_3   0.595028 0.931298 0.743127 0.700137
C22   C     C_3   0.603030 0.074065 0.739286 -0.553769
H8    H     H_    0.541459 0.122027 0.787657 0.242861
H9    H     H_    0.683658 0.111532 0.767732 0.191619
C23   C     C_R   0.409719 0.477088 0.057561 0.097659
N1    N     N_R   0.499290 0.499140 0.142710 -0.165184
C24   C     C_R   0.584810 0.542698 0.083036 0.472412
C25   C     C_R   0.585801 0.537407 0.940104 -0.067396
H10   H     H_    0.654821 0.568089 0.895860 0.187142
N2    N     N_R   0.499290 0.499180 0.857070 -0.149832
C26   C     C_R   0.409670 0.477158 0.915624 0.207729
C27   C     C_3   0.340621 0.362767 0.902945 0.256846
C28   C     C_3   0.339672 0.365271 0.056975 -0.565595
H11   H     H_    0.262791 0.380023 0.844110 0.175399
H12   H     H_    0.261626 0.389624 0.086424 0.196068
H13   H     H_    0.378102 0.284117 0.112956 0.217464
O9    O     O_3   0.689607 0.871298 0.791878 -0.752427
H14   H     H_    0.744896 0.900062 0.736426 0.316360
O10   O     O_3   0.669282 0.597875 0.158088 -0.733547
H15   H     H_    0.640572 0.648943 0.227732 0.375773
O11   O     O_3   0.390485 0.256888 0.857707 -0.702112
H16   H     H_    0.457262 0.244999 0.917956 0.329359
N3    N     N_R   0.190332 0.654664 0.647131 0.205852
O12   O     O_R   0.243386 0.747514 0.602770 -0.349726
O13   O     O_R   0.198723 0.631132 0.776990 -0.408582
N4    N     N_R   0.506183 0.886328 0.811093 0.244424
O14   O     O_R   0.522640 0.816961 0.919860 -0.350167
O15   O     O_R   0.411279 0.924070 0.770902 -0.327128

loop_
_geom_bond_atom_site_label_1
_geom_bond_atom_site_label_2
_geom_bond_distance
_ccdc_geom_bond_type
O4    Zn2   2.004880 S    
C1    C16   1.409607 S    
C13   C14   1.382601 A    
N4    O15   1.302273 A    
Zn1   O5    1.989280 S    
C20   C21   1.504481 S    
C9    N3    1.438679 S    
C14   H4    1.081026 S    
C24   O10   1.370591 S    
C28   H12   1.109897 S    
C16   C17   1.402175 A    
C21   O9    1.409576 S    
Zn2   N1    2.021742 S    
Zn2   O8    1.986906 S    
C17   H6    1.083901 S    
C10   C11   1.419895 A    
C27   H11   1.111326 S    
C5    C13   1.395708 A    
C7    C8    1.377302 A    
C22   H9    1.111701 S    
C8    H5    1.082385 S    
C23   C26   1.406159 A    
C25   H10   1.081889 S    
C24   C25   1.419173 A    
Zn1   O7    2.004879 S    
O9    H14   0.993513 S    
O4    C2    1.289474 A    
C23   C28   1.487654 S    
O3    Zn1   1.986906 S    
N3    O13   1.301183 A    
C19   C20   1.389885 A    
O8    C4    1.290587 A    
C15   C22   1.494814 S    
O2    C1    1.281318 A    
C18   C19   1.398859 A    
C25   N2    1.362277 A    
N1    C24   1.383404 A    
C6    C9    1.405118 A    
C15   C16   1.390916 A    
Zn2   O6    1.994236 S    
O7    C4    1.287002 A    
C21   N4    1.467864 S    
C28   H13   1.111965 S    
C23   N1    1.362478 A    
C2    C6    1.429682 S    
N4    O14   1.300586 A    
C7    H3    1.084261 S    
N2    C26   1.366980 A    
C10   C14   1.404684 A    
C21   C22   1.526423 S    
O10   H15   0.988860 S    
C3    C19   1.406487 S    
C6    C8    1.396517 A    
C18   H7    1.083981 S    
C13   H2    1.083955 S    
O2    Zn2   1.989280 S    
C22   H8    1.103117 S    
C27   C28   1.527967 S    
O5    C3    1.285461 A    
C4    C5    1.423352 S    
C26   C27   1.499569 S    
O1    Zn1   1.994238 S    
O11   H16   0.993121 S    
C11   C12   1.376413 A    
O3    C2    1.289979 A    
O6    C3    1.284668 A    
C5    C12   1.386524 A    
C7    C11   1.393550 A    
C27   O11   1.405076 S    
C9    C10   1.393157 A    
C15   C20   1.368454 A    
Zn1   N2    2.021617 S    
N3    O12   1.301128 A    
O1    C1    1.289938 A    
C12   H1    1.086157 S    
C17   C18   1.381636 A    
