data_mof_unit_47414.cif
_audit_creation_date              2012-10-26T20:44:07-0400
_audit_creation_method            fapswitch 2.2
_symmetry_space_group_name_H-M    P1
_symmetry_Int_Tables_number       1
_space_group_crystal_system       triclinic
_cell_length_a                    11.419098
_cell_length_b                    9.724959
_cell_length_c                    19.866671
_cell_angle_alpha                 89.704257
_cell_angle_beta                  99.028842
_cell_angle_gamma                 90.015925
_cell_volume                      2178.83365684

loop_
_atom_site_label
_atom_site_type_symbol
_atom_type_description
_atom_site_fract_x
_atom_site_fract_y
_atom_site_fract_z
_atom_type_partial_charge
C1    C     C_R   0.873356 0.500001 0.501069 -0.083102
C2    C     C_R   0.738365 0.499994 0.500685 0.513049
C3    C     C_R   0.497595 0.500465 0.368879 0.552327
C4    C     C_R   0.502601 0.499781 0.631123 0.552194
C5    C     C_R   0.063346 0.368426 0.498811 -0.001833
C6    C     C_R   0.936616 0.631581 0.501138 -0.001976
C7    C     C_R   0.936540 0.368408 0.501072 -0.001674
C8    C     C_R   0.063425 0.631594 0.498879 -0.001890
C9    C     C_R   0.540515 0.385898 0.744934 -0.129567
C10   C     C_R   0.509591 0.628173 0.263343 -0.117827
C11   C     C_R   0.458659 0.387958 0.255669 -0.129445
C12   C     C_R   0.126618 0.500002 0.498895 -0.083149
C13   C     C_R   0.489899 0.626131 0.736081 -0.116997
C14   C     C_R   0.552681 0.395652 0.816215 -0.114450
C15   C     C_R   0.508591 0.635950 0.193224 -0.108772
C16   C     C_R   0.445031 0.398213 0.184414 -0.112407
C17   C     C_R   0.489529 0.633639 0.806074 -0.108605
C18   C     C_R   0.516451 0.514878 0.849429 0.051132
C19   C     C_R   0.481327 0.517032 0.150604 0.051652
C20   C     C_R   0.424927 0.076053 0.450180 0.122676
C21   C     C_R   0.575042 0.923935 0.549836 0.118943
C22   C     C_R   0.574962 0.074992 0.549849 0.121517
C23   C     C_R   0.496616 0.641121 0.963509 0.150590
C24   C     C_R   0.425034 0.925000 0.450156 0.117986
C25   C     C_R   0.508459 0.501949 0.704838 0.024730
C26   C     C_R   0.491287 0.503729 0.295144 0.024399
C27   C     C_2   0.341484 0.162545 0.399443 0.261395
C28   C     C_2   0.658439 0.837419 0.600595 0.269120
C29   C     C_2   0.657996 0.160629 0.600695 0.262160
C30   C     C_2   0.341983 0.839349 0.399296 0.269191
C31   C     C_2   0.132799 0.232193 0.495540 0.292742
C32   C     C_2   0.867153 0.767816 0.504404 0.291015
C33   C     C_2   0.866921 0.232182 0.504662 0.292258
C34   C     C_R   0.494344 0.391552 0.035960 0.150339
C35   C     C_2   0.133038 0.767814 0.495278 0.290796
C36   C     C_3   0.380725 0.852773 0.923508 -0.297245
C37   C     C_3   0.401850 0.165490 0.057241 -0.307232
C38   C     C_3   0.614185 0.852200 0.073845 -0.299852
C39   C     C_3   0.597016 0.166198 0.945858 -0.305919
C40   C     C_R   0.498562 0.641398 0.035260 0.150144
C41   C     C_R   0.503037 0.391194 0.965297 0.149629
C42   C     C_R   0.490792 0.517157 0.073250 -0.004771
C43   C     C_R   0.505992 0.516301 0.926745 -0.005450
C44   C     C_R   0.261627 0.500007 0.499304 0.513112
Cu1   Cu    Cu3+1 0.500000 0.640660 0.500000 0.895071
Cu2   Cu    Cu3+1 0.500000 0.359340 0.500000 0.900194
H1    H     H_    0.563484 0.289851 0.722553 0.153696
H2    H     H_    0.664096 0.729439 0.593981 0.172569
H3    H     H_    0.663181 0.268899 0.593967 0.170695
H4    H     H_    0.336996 0.731039 0.406000 0.172940
H5    H     H_    0.219930 0.209829 0.494435 0.169081
H6    H     H_    0.780028 0.790203 0.505477 0.168315
H7    H     H_    0.780297 0.209622 0.505671 0.170158
H8    H     H_    0.219669 0.790348 0.494251 0.169422
H9    H     H_    0.565600 0.817191 0.918618 0.241016
H10   H     H_    0.388410 0.945686 0.891926 0.130644
H11   H     H_    0.360649 0.887236 0.973210 0.155403
H12   H     H_    0.530299 0.721995 0.292419 0.147394
H13   H     H_    0.304983 0.791150 0.898424 0.157550
H14   H     H_    0.574630 0.237876 0.105619 0.248745
H15   H     H_    0.410930 0.083850 0.096693 0.129558
H16   H     H_    0.397277 0.117231 0.007351 0.178920
H17   H     H_    0.317160 0.219794 0.058374 0.149088
H18   H     H_    0.429141 0.817179 0.079328 0.241403
H19   H     H_    0.606719 0.945578 0.104670 0.130256
H20   H     H_    0.634333 0.885567 0.023986 0.156101
H21   H     H_    0.689577 0.790450 0.099416 0.157020
H22   H     H_    0.425210 0.238182 0.895439 0.248588
H23   H     H_    0.435541 0.291878 0.278493 0.154600
H24   H     H_    0.586896 0.081557 0.908003 0.128592
H25   H     H_    0.604117 0.120722 0.997205 0.177143
H26   H     H_    0.680952 0.221203 0.942348 0.148104
H27   H     H_    0.469444 0.720172 0.706659 0.148059
H28   H     H_    0.594757 0.309623 0.842766 0.152312
H29   H     H_    0.537731 0.734418 0.177356 0.152371
H30   H     H_    0.401142 0.313063 0.158239 0.154399
H31   H     H_    0.460658 0.732104 0.821339 0.153260
H32   H     H_    0.335896 0.270558 0.406040 0.170462
N1    N     N_R   0.500000 0.852070 0.500000 -0.340026
N2    N     N_R   0.500000 0.147930 0.500000 -0.337719
N3    N     N_2   0.489355 0.772106 0.930572 -0.525712
N4    N     N_2   0.501186 0.260921 0.070207 -0.526526
N5    N     N_2   0.505371 0.772607 0.067151 -0.525546
N6    N     N_2   0.496430 0.260085 0.932426 -0.525624
O1    O     O_R   0.319640 0.618740 0.500000 -0.565923
O2    O     O_2   0.724321 0.879102 0.649323 -0.447208
O3    O     O_2   0.723910 0.118112 0.649445 -0.455011
O4    O     O_2   0.275675 0.881872 0.350733 -0.446670
O5    O     O_2   0.093331 0.120494 0.493197 -0.358735
O6    O     O_2   0.906638 0.879516 0.506804 -0.358905
O7    O     O_2   0.906430 0.120388 0.509776 -0.359528
O8    O     O_2   0.093522 0.879611 0.490250 -0.359446
O9    O     O_R   0.680360 0.381260 0.500000 -0.564636
O10   O     O_R   0.680360 0.618740 0.500000 -0.566113
O11   O     O_R   0.319640 0.381260 0.500000 -0.564666
O12   O     O_R   0.500020 0.618830 0.400190 -0.534847
O13   O     O_R   0.499980 0.381170 0.599810 -0.529963
O14   O     O_R   0.499980 0.618830 0.599810 -0.535030
O15   O     O_R   0.500020 0.381170 0.400190 -0.530242
O16   O     O_2   0.275552 0.120864 0.350737 -0.455983

loop_
_geom_bond_atom_site_label_1
_geom_bond_atom_site_label_2
_ccdc_geom_bond_type
C15   H29   S    
Cu2   O15   S    
C22   C29   S    
C4    O14   A    
C38   N5    S    
C7    C33   S    
C14   C18   A    
C6    C32   S    
C34   C42   A    
C36   H13   S    
C4    C25   S    
C9    C25   A    
C29   H3    S    
Cu1   Cu2   S    
C15   C19   A    
C14   H28   S    
C10   H12   S    
C39   N6    S    
Cu1   O14   S    
C33   O7    D    
C23   C40   A    
C23   C43   A    
C1    C2    S    
C32   H6    S    
H14   N4    S    
C32   O6    D    
Cu2   O11   S    
C38   H20   S    
C31   O5    D    
C39   H26   S    
C3    O12   A    
H9    N3    S    
C19   C42   S    
C35   O8    D    
C10   C26   A    
C40   C42   A    
C30   H4    S    
C1    C7    A    
C4    O13   A    
C35   H8    S    
C41   C43   A    
C40   N5    S    
C13   C25   A    
C34   C41   A    
Cu1   O10   S    
C37   H17   S    
C37   H16   S    
C2    O9    A    
C33   H7    S    
C27   O16   D    
C20   N2    A    
C1    C6    A    
H22   N6    S    
C20   C24   A    
C2    O10   A    
C5    C12   A    
C36   H11   S    
C5    C7    A    
C6    C8    A    
C11   C26   A    
C41   N6    S    
C27   H32   S    
C8    C35   S    
Cu1   O1    S    
C9    C14   A    
H18   N5    S    
C36   H10   S    
C11   C16   A    
C24   N1    A    
C38   H19   S    
C36   N3    S    
C8    C12   A    
C21   N1    A    
C17   H31   S    
C17   C18   A    
Cu1   N1    S    
C21   C28   S    
C13   H27   S    
C9    H1    S    
C28   O2    D    
C37   N4    S    
C30   O4    D    
C44   O1    A    
C28   H2    S    
C23   N3    S    
C16   H30   S    
Cu2   O13   S    
C3    C26   S    
C31   H5    S    
C37   H15   S    
C11   H23   S    
C20   C27   S    
C13   C17   A    
C10   C15   A    
C22   N2    A    
C12   C44   S    
C44   O11   A    
C18   C43   S    
Cu2   N2    S    
Cu2   O9    S    
C16   C19   A    
C39   H24   S    
C24   C30   S    
C29   O3    D    
C3    O15   A    
C38   H21   S    
C39   H25   S    
C34   N4    S    
C21   C22   A    
Cu1   O12   S    
C5    C31   S    
