data_mof_unit_47912.cif
_audit_creation_date              2012-12-11T15:47:02-0500
_audit_creation_method            fapswitch 2.2
_symmetry_space_group_name_H-M    P1
_symmetry_Int_Tables_number       1
_space_group_crystal_system       triclinic
_cell_length_a                    11.541463
_cell_length_b                    11.527798
_cell_length_c                    19.552971
_cell_angle_alpha                 90.490452
_cell_angle_beta                  90.071206
_cell_angle_gamma                 59.926701
_cell_volume                      2251.18278096

loop_
_atom_site_label
_atom_site_type_symbol
_atom_type_description
_atom_site_fract_x
_atom_site_fract_y
_atom_site_fract_z
_atom_type_partial_charge
C1    C     C_R   0.640482 0.117414 0.599261 0.546467
C2    C     C_1   0.652955 0.149737 0.668651 0.003426
C3    C     C_R   0.651219 0.689241 0.187604 0.011657
C4    C     C_R   0.612522 0.745945 0.598644 0.545797
C5    C     C_R   0.530600 0.726056 0.221575 0.022057
C6    C     C_R   0.525793 0.734159 0.291254 0.039698
C7    C     C_R   0.748649 0.701318 0.295261 -0.147785
C8    C     C_R   0.755231 0.691247 0.224053 -0.137177
C9    C     C_3   0.439893 0.667054 0.221174 -0.266617
C10   C     C_3   0.438428 0.673981 0.298237 -0.270991
C11   C     C_R   0.637032 0.711145 0.329487 0.015855
C12   C     C_1   0.641321 0.703889 0.668015 0.003877
C13   C     C_R   0.125578 0.207085 0.196015 0.022202
C14   C     C_R   0.098439 0.314737 0.239014 0.031583
C15   C     C_R   0.121131 0.297574 0.308033 0.020031
C16   C     C_R   0.240930 0.145345 0.598193 0.545742
C17   C     C_R   0.179298 0.066180 0.296303 -0.164675
C18   C     C_R   0.157419 0.083882 0.225748 -0.166437
C19   C     C_3   0.144863 0.414055 0.234325 -0.272427
C20   C     C_3   0.168627 0.397226 0.310538 -0.260736
C21   C     C_R   0.172024 0.170585 0.337170 0.015863
C22   C     C_R   0.667546 0.175468 0.189957 -0.010306
C23   C     C_1   0.126780 0.198657 0.859299 0.003039
C24   C     C_R   0.751646 0.050187 0.220422 0.064472
C25   C     C_R   0.746610 0.036128 0.289854 0.003751
C26   C     C_R   0.558225 0.259251 0.299819 -0.163984
C27   C     C_R   0.562166 0.275208 0.229097 -0.171462
C28   C     C_R   0.644013 0.111846 0.401857 0.547457
C29   C     C_3   0.902132 0.959244 0.220344 0.147236
C30   C     C_3   0.893933 0.949189 0.297192 -0.211282
C31   C     C_R   0.657112 0.141587 0.331348 0.004730
C32   C     C_R   0.081884 0.231060 0.928602 0.549310
C33   C     C_R   0.683892 0.604473 0.929508 0.545485
C34   C     C_1   0.171502 0.170281 0.727717 -0.031085
C35   C     C_R   0.708345 0.206598 0.930147 0.546577
C36   C     C_R   0.081957 0.236564 0.125724 0.547240
C37   C     C_R   0.680854 0.615474 0.124130 0.548136
C38   C     C_R   0.707334 0.209248 0.126019 0.540559
C39   C     C_R   0.615186 0.742321 0.401234 0.543950
C40   C     C_R   0.242395 0.141385 0.401909 0.549175
C41   C     C_1   0.670345 0.646527 0.860140 0.003331
C42   C     C_1   0.654824 0.683697 0.728451 -0.031467
C43   C     C_1   0.663435 0.666720 0.799706 -0.031822
C44   C     C_3   0.987593 0.827405 0.121982 0.000245
C45   C     C_1   0.150196 0.182190 0.798944 -0.031533
C46   C     C_3   0.066483 0.681837 0.098396 -0.381389
C47   C     C_1   0.195256 0.160967 0.667388 0.003715
C48   C     C_1   0.678566 0.191193 0.860793 0.003386
C49   C     C_1   0.658508 0.167249 0.729047 -0.031231
C50   C     C_1   0.665639 0.180864 0.800353 -0.031435
Cr1   Cr    Cr6+3 0.404720 0.198220 0.499960 1.022769
Cr2   Cr    Cr6+3 0.698290 0.897110 0.500380 1.025777
Cr3   Cr    Cr6+3 0.396970 0.904720 0.499610 1.025614
Cr4   Cr    Cr6+3 0.926290 0.152010 0.028150 0.997773
Cr5   Cr    Cr6+3 0.921440 0.451830 0.027490 1.008999
Cr6   Cr    Cr6+3 0.626370 0.446880 0.028730 1.018119
H1    H     H_    0.832055 0.696042 0.323304 0.130488
H2    H     H_    0.846469 0.670779 0.198573 0.171420
H3    H     H_    0.488303 0.562212 0.202550 0.165801
H4    H     H_    0.340768 0.735629 0.198044 0.129514
H5    H     H_    0.338383 0.744075 0.319995 0.139202
H6    H     H_    0.490954 0.573675 0.322607 0.134362
H7    H     H_    0.212457 0.968548 0.317608 0.128550
H8    H     H_    0.169674 0.000586 0.194379 0.114219
H9    H     H_    0.063515 0.515392 0.220433 0.152837
H10   H     H_    0.054898 0.870333 0.117379 0.128801
H11   H     H_    0.900003 0.880991 0.087638 0.174472
H12   H     H_    0.238521 0.376090 0.203869 0.137582
H13   H     H_    0.002281 0.635530 0.100135 0.173268
H14   H     H_    0.101780 0.676468 0.045036 0.100947
H15   H     H_    0.154744 0.624881 0.131929 0.142701
H16   H     H_    0.276037 0.352167 0.323426 0.162946
H17   H     H_    0.099833 0.488711 0.340458 0.132169
H18   H     H_    0.481092 0.340218 0.329959 0.120319
H19   H     H_    0.489512 0.368719 0.206303 0.117813
H20   H     H_    0.960507 0.008458 0.206369 0.122584
H21   H     H_    0.922554 0.847247 0.315416 0.162007
H22   H     H_    0.939884 0.999445 0.326093 0.093187
O1    O     O_R   0.267750 0.231960 0.575440 -0.505422
O2    O     O_R   0.596230 0.579400 0.952760 -0.505802
O3    O     O_R   0.639160 0.321170 0.958690 -0.492353
O4    O     O_R   0.527290 0.186640 0.570530 -0.494224
O5    O     O_R   0.821370 0.124220 0.104400 -0.548982
O6    O     O_R   0.037020 0.167050 0.097880 -0.514607
O7    O     O_R   0.056310 0.349620 0.102920 -0.521786
O8    O     O_R   0.797790 0.564880 0.097980 -0.514767
O9    O     O_R   0.596000 0.584270 0.104310 -0.524962
O10   O     O_R   0.638950 0.325690 0.099180 -0.502526
O11   O     O_3   0.824700 0.350240 0.028120 -0.244351
O12   O     O_R   0.685950 0.784660 0.430010 -0.507307
O13   O     O_R   0.728110 0.003450 0.576380 -0.505148
O14   O     O_R   0.682980 0.789190 0.570500 -0.494047
O15   O     O_R   0.499300 0.771880 0.575540 -0.504939
O16   O     O_R   0.285350 0.030870 0.569740 -0.494258
O17   O     O_R   0.270960 0.227070 0.423890 -0.523209
O18   O     O_R   0.530270 0.182120 0.430040 -0.507369
O19   O     O_R   0.731320 0.998570 0.424830 -0.518041
O20   O     O_3   0.943103 0.832662 0.189709 -0.585699
O21   O     O_R   0.502510 0.767000 0.423980 -0.517786
O22   O     O_R   0.288320 0.026340 0.429250 -0.505702
O23   O     O_3   0.499990 0.000020 0.499980 -0.252378
O24   O     O_R   0.821590 0.119350 0.952850 -0.513571
O25   O     O_R   0.037230 0.162540 0.957390 -0.494441
O26   O     O_R   0.056530 0.344750 0.951370 -0.506266
O27   O     O_R   0.798000 0.560370 0.957490 -0.496503

loop_
_geom_bond_atom_site_label_1
_geom_bond_atom_site_label_2
_ccdc_geom_bond_type
C28   O19   A    
C25   C31   A    
C23   C45   T    
C38   O5    A    
Cr2   O12   S    
C19   C20   S    
C35   O24   A    
Cr4   O6    S    
C35   O3    A    
Cr6   O3    S    
C29   H20   S    
Cr3   O21   S    
C7    C11   A    
C26   C27   A    
C13   C18   A    
Cr5   O27   S    
C44   H10   S    
C5    C6    A    
Cr6   O10   S    
C22   C38   S    
Cr2   O19   S    
C1    C2    S    
C24   C29   S    
C46   H13   S    
C12   C42   T    
C8    H2    S    
C30   H21   S    
C44   O20   S    
Cr3   O23   S    
C32   O26   A    
C4    C12   S    
C9    C10   S    
C39   O12   A    
Cr1   O18   S    
C48   C50   T    
C26   C31   A    
C1    O13   A    
C13   C14   A    
C41   C43   T    
C10   H6    S    
C27   H19   S    
C35   C48   S    
C16   C47   S    
Cr4   O5    S    
C44   C46   S    
Cr3   O22   S    
C15   C20   S    
Cr2   O23   S    
C44   H11   S    
Cr3   O15   S    
Cr4   O25   S    
C7    C8    A    
C33   O27   A    
C24   C25   A    
Cr4   O11   S    
C3    C8    A    
C6    C11   A    
Cr6   O9    S    
C1    O4    A    
Cr5   O26   S    
C17   C21   A    
C38   O10   A    
C9    H3    S    
Cr5   O7    S    
C5    C9    S    
C29   C30   S    
C2    C49   T    
C37   O8    A    
C39   O21   A    
C17   C18   A    
C32   O25   A    
C19   H12   S    
C34   C45   S    
C11   C39   S    
Cr1   O4    S    
C46   H15   S    
C13   C36   S    
C29   O20   S    
Cr6   O11   S    
C22   C27   A    
C22   C24   A    
Cr2   O14   S    
C10   H5    S    
C42   C43   S    
C40   O17   A    
C25   C30   S    
Cr3   O16   S    
C14   C19   S    
Cr4   O24   S    
C28   C31   S    
C37   O9    A    
C3    C5    A    
C40   O22   A    
C33   O2    A    
C36   O7    A    
Cr1   O23   S    
C16   O16   A    
Cr6   O2    S    
C28   O18   A    
C16   O1    A    
C33   C41   S    
C23   C32   S    
C9    H4    S    
Cr5   O8    S    
Cr5   O11   S    
C17   H7    S    
C18   H8    S    
C21   C40   S    
C36   O6    A    
C26   H18   S    
C20   H17   S    
C19   H9    S    
Cr1   O1    S    
C46   H14   S    
C6    C10   S    
C4    O15   A    
C30   H22   S    
C15   C21   A    
C3    C37   S    
C49   C50   S    
C14   C15   A    
C20   H16   S    
Cr2   O13   S    
C34   C47   T    
C7    H1    S    
Cr1   O17   S    
C4    O14   A    
