data_mof_unit_64185.cif
_audit_creation_date              2012-12-11T14:46:22-0500
_audit_creation_method            fapswitch 2.2
_symmetry_space_group_name_H-M    P1
_symmetry_Int_Tables_number       1
_space_group_crystal_system       triclinic
_cell_length_a                    17.560898
_cell_length_b                    17.522205
_cell_length_c                    6.933633
_cell_angle_alpha                 90.680684
_cell_angle_beta                  90.602096
_cell_angle_gamma                 89.972286
_cell_volume                      2133.24959291

loop_
_atom_site_label
_atom_site_type_symbol
_atom_type_description
_atom_site_fract_x
_atom_site_fract_y
_atom_site_fract_z
_atom_type_partial_charge
O1    O     O_R   0.796490 0.328940 0.373020 -0.522058
O2    O     O_R   0.203510 0.671060 0.626980 -0.527921
O3    O     O_R   0.203510 0.828940 0.626980 -0.536010
O4    O     O_R   0.796490 0.171060 0.373020 -0.535441
O5    O     O_R   0.805560 0.173330 0.702970 -0.521939
O6    O     O_R   0.194440 0.826670 0.297030 -0.515939
O7    O     O_R   0.194440 0.673330 0.297030 -0.528453
O8    O     O_R   0.805560 0.326670 0.702970 -0.528091
O9    O     O_R   0.658440 0.172360 0.870170 -0.540389
O10   O     O_R   0.341560 0.827640 0.129830 -0.539257
O11   O     O_R   0.341560 0.672360 0.129830 -0.541647
O12   O     O_R   0.658440 0.327640 0.870170 -0.540614
C1    C     C_R   0.824359 0.146925 0.533816 0.778886
C2    C     C_R   0.175107 0.853210 0.466316 0.781957
C3    C     C_R   0.175127 0.647380 0.463511 0.779073
C4    C     C_R   0.826035 0.352147 0.536197 0.783901
O13   O     O_3   0.679200 0.250000 0.537050 -0.385465
O14   O     O_3   0.320800 0.750000 0.462950 -0.385783
V1    V     V_3+5 0.736420 0.250000 0.813120 1.549300
V2    V     V_3+5 0.263580 0.750000 0.186880 1.554457
O15   O     O_R   0.649370 0.327980 0.199650 -0.540895
O16   O     O_R   0.350630 0.672020 0.800350 -0.541949
O17   O     O_R   0.350630 0.827980 0.800350 -0.543163
O18   O     O_R   0.649370 0.172020 0.199650 -0.543245
C5    C     C_R   0.630506 0.354411 0.030443 0.709768
C6    C     C_R   0.369495 0.645588 0.969558 0.705622
C7    C     C_R   0.369445 0.854391 0.970829 0.707911
C8    C     C_R   0.630550 0.145613 0.029171 0.705674
V3    V     V_3+5 0.718510 0.250000 0.312740 1.513180
V4    V     V_3+5 0.281490 0.750000 0.687260 1.509721
O19   O     O_3   0.775740 0.250000 0.038930 -0.335815
O20   O     O_3   0.224260 0.750000 0.961070 -0.337067
C9    C     C_1   0.574145 0.083213 0.015950 -0.171266
C10   C     C_1   0.425854 0.916787 0.984052 -0.171123
C11   C     C_1   0.425946 0.583184 0.981115 -0.172738
C12   C     C_1   0.574046 0.416808 0.018889 -0.173708
C13   C     C_1   0.527478 0.030915 0.005816 0.031658
C14   C     C_1   0.472523 0.969082 0.994189 0.031813
C15   C     C_1   0.472560 0.530903 0.992753 0.030147
C16   C     C_1   0.527427 0.469086 0.007254 0.030182
H1    H     H_    0.804639 0.017782 0.340993 0.159287
H2    H     H_    0.178216 0.962050 0.731762 0.168072
H3    H     H_    0.179362 0.521877 0.250135 0.158438
H4    H     H_    0.846389 0.456271 0.810191 0.177938
C17   C     C_R   0.880648 0.084598 0.518340 -0.191368
C18   C     C_R   0.117451 0.915159 0.486345 -0.192963
C19   C     C_R   0.118006 0.585612 0.463484 -0.188045
C20   C     C_R   0.886573 0.411800 0.538972 -0.199993
C21   C     C_R   0.074171 0.021626 0.686950 0.476643
C22   C     C_R   0.914585 0.965557 0.357428 0.476618
C23   C     C_R   0.944462 0.516982 0.720632 0.478617
C24   C     C_R   0.074594 0.466471 0.317629 0.494735
C25   C     C_R   0.127680 0.966162 0.641206 -0.213404
C26   C     C_R   0.861755 0.022159 0.401237 -0.238910
C27   C     C_R   0.888808 0.461254 0.698513 -0.201907
C28   C     C_R   0.128213 0.524540 0.336350 -0.225021
C29   C     C_R   0.049402 0.918503 0.376091 0.316437
C30   C     C_R   0.953320 0.088898 0.604641 0.294688
C31   C     C_R   0.945252 0.415687 0.400562 0.310342
C32   C     C_R   0.053926 0.587587 0.583319 0.294432
C33   C     C_R   0.990103 0.970066 0.433105 -0.072898
C34   C     C_R   0.006218 0.027893 0.576411 -0.081678
C35   C     C_R   0.006941 0.468344 0.429484 -0.062785
C36   C     C_R   0.001516 0.525306 0.579387 -0.089064
Cl1   Cl    Cl    0.090620 0.069430 0.909061 -0.519169
Cl2   Cl    Cl    0.875953 0.885660 0.234093 -0.496902
Cl3   Cl    Cl    0.946153 0.563263 0.948252 -0.530155
Cl4   Cl    Cl    0.105023 0.388553 0.174466 -0.489677
Br1   Br    Br    0.982680 0.186515 0.716828 -0.323728
Br2   Br    Br    0.044552 0.859996 0.137514 -0.331265
Br3   Br    Br    0.031557 0.684051 0.710374 -0.330175
Br4   Br    Br    0.934268 0.355099 0.166286 -0.350411

loop_
_geom_bond_atom_site_label_1
_geom_bond_atom_site_label_2
_ccdc_geom_bond_type
O10   C7    A    
C30   C34   A    
C20   C27   A    
V4    O20   S    
O13   V3    S    
C3    C19   S    
V1    O19   S    
C4    C20   S    
C2    C18   S    
C23   C27   A    
C22   C26   A    
C21   Cl1   S    
H2    C25   S    
C18   C25   A    
O4    C1    A    
O18   V3    S    
C19   C32   A    
O9    V1    S    
O10   V2    S    
O14   V4    S    
O17   C7    A    
C29   Br2   S    
O5    C1    A    
O4    V3    S    
C24   Cl4   S    
C31   Br4   S    
O7    C3    A    
O8    C4    A    
C7    C10   S    
C17   C30   A    
O11   V2    S    
O8    V1    S    
O17   V4    S    
C12   C16   T    
C15   C16   S    
O11   C6    A    
O15   V3    S    
C9    C13   T    
O3    V4    S    
C11   C15   T    
C13   C14   S    
O6    C2    A    
H3    C28   S    
O1    V3    S    
O1    C4    A    
C23   Cl3   S    
O2    C3    A    
C22   Cl2   S    
O3    C2    A    
C17   C26   A    
C18   C29   A    
C20   C31   A    
V2    O20   S    
O15   C5    A    
C21   C34   A    
O16   V4    S    
C10   C14   T    
C23   C36   A    
O18   C8    A    
C24   C35   A    
C8    C9    S    
C30   Br1   S    
C29   C33   A    
O5    V1    S    
O6    V2    S    
C31   C35   A    
C32   Br3   S    
O2    V4    S    
O12   C5    A    
C32   C36   A    
V3    O19   S    
C1    C17   S    
H4    C27   S    
C21   C25   A    
O12   V1    S    
O13   V1    S    
O14   V2    S    
C33   C34   A    
H1    C26   S    
C5    C12   S    
C35   C36   A    
C6    C11   S    
O7    V2    S    
O16   C6    A    
C22   C33   A    
C24   C28   A    
O9    C8    A    
C19   C28   A    
