data_mof_unit_61337.cif
_audit_creation_date              2012-12-10T19:54:21-0500
_audit_creation_method            fapswitch 2.2
_symmetry_space_group_name_H-M    P1
_symmetry_Int_Tables_number       1
_space_group_crystal_system       triclinic
_cell_length_a                    15.729742
_cell_length_b                    14.913054
_cell_length_c                    14.169338
_cell_angle_alpha                 89.917293
_cell_angle_beta                  90.063526
_cell_angle_gamma                 90.09428
_cell_volume                      3323.8119415

loop_
_atom_site_label
_atom_site_type_symbol
_atom_type_description
_atom_site_fract_x
_atom_site_fract_y
_atom_site_fract_z
_atom_type_partial_charge
C1    C     C_R   0.498815 0.327574 0.500090 0.884156
C2    C     C_R   0.498906 0.672392 0.499930 0.881104
C3    C     C_R   0.443316 0.190321 0.572304 -0.214343
C4    C     C_R   0.441286 0.809302 0.429569 -0.202787
C5    C     C_R   0.489976 0.231715 0.500286 -0.065821
C6    C     C_R   0.490155 0.768164 0.499894 -0.065348
C7    C     C_R   0.524768 0.181718 0.426674 -0.170931
C8    C     C_R   0.527116 0.818267 0.572276 -0.178534
C9    C     C_R   0.515179 0.089703 0.426632 -0.155128
C10   C     C_R   0.517506 0.910243 0.572640 -0.149360
C11   C     C_R   0.469058 0.048075 0.498823 0.061087
C12   C     C_R   0.469148 0.951667 0.502126 0.060164
C13   C     C_R   0.433756 0.459418 0.105214 -0.249228
C14   C     C_R   0.536399 0.571046 0.894736 -0.250308
C15   C     C_R   0.435153 0.459941 0.204469 0.039226
C16   C     C_R   0.535964 0.569591 0.795486 0.043658
C17   C     C_R   0.564852 0.539994 0.204489 0.041134
C18   C     C_R   0.463986 0.430449 0.795568 0.049973
C19   C     C_R   0.566230 0.540504 0.105237 -0.250599
C20   C     C_R   0.463521 0.428959 0.894824 -0.248230
C21   C     C_R   0.499984 0.499968 0.053363 0.127154
C22   C     C_R   0.499966 0.499987 0.946641 0.130779
C23   C     C_R   0.337813 0.499910 0.499928 0.906808
C24   C     C_R   0.662196 0.500156 0.500062 0.905266
C25   C     C_3   0.971959 0.425436 0.541278 0.174834
C26   C     C_3   0.028126 0.575825 0.458442 0.175033
C27   C     C_3   0.028122 0.428557 0.451803 -0.279435
C28   C     C_3   0.971937 0.572704 0.547920 -0.283572
C29   C     C_1   0.248961 0.499961 0.499775 -0.137496
C30   C     C_1   0.751067 0.500553 0.500156 -0.145826
C31   C     C_3   0.028123 0.497090 0.589055 0.176777
C32   C     C_3   0.971939 0.504168 0.410662 0.172404
C33   C     C_3   0.082894 0.500626 0.499867 0.001288
C34   C     C_3   0.917162 0.500618 0.499861 0.003064
C35   C     C_1   0.173716 0.500153 0.499708 0.055468
C36   C     C_1   0.826322 0.500773 0.500118 0.051496
C37   C     C_R   0.431953 0.098249 0.571570 0.191053
C38   C     C_R   0.429826 0.901320 0.430752 0.189399
H1    H     H_    0.052889 0.369742 0.412613 0.197035
H2    H     H_    0.947171 0.631518 0.587111 0.193935
H3    H     H_    0.616076 0.571505 0.243225 0.143686
H4    H     H_    0.435632 0.375519 0.756893 0.132747
H5    H     H_    0.619634 0.571424 0.069729 0.151084
H6    H     H_    0.435793 0.371733 0.930381 0.148949
H7    H     H_    0.414636 0.229604 0.628075 0.167046
H8    H     H_    0.410922 0.769825 0.374906 0.180741
H9    H     H_    0.560703 0.213585 0.370663 0.166512
H10   H     H_    0.564701 0.786492 0.627013 0.152329
H11   H     H_    0.544958 0.050572 0.371422 0.163910
H12   H     H_    0.548941 0.949499 0.626770 0.163617
H13   H     H_    0.380354 0.428484 0.069680 0.152593
H14   H     H_    0.564100 0.628268 0.930219 0.145254
H15   H     H_    0.383951 0.428417 0.243197 0.141138
H16   H     H_    0.564304 0.624550 0.756749 0.127939
N1    N     N_R   0.500000 0.499980 0.252470 -0.102479
N2    N     N_R   0.500000 0.500020 0.747530 -0.098906
O1    O     O_R   0.500010 0.369070 0.579480 -0.628638
O2    O     O_R   0.499990 0.630930 0.420520 -0.619799
O3    O     O_R   0.500010 0.369060 0.420520 -0.617770
O4    O     O_R   0.499990 0.630940 0.579480 -0.625177
O5    O     O_R   0.376780 0.500000 0.579460 -0.602917
O6    O     O_R   0.623220 0.500000 0.420540 -0.617638
O7    O     O_R   0.376780 0.499990 0.420510 -0.622043
O8    O     O_R   0.623220 0.500010 0.579490 -0.609138
Zn1   Zn    Zn3+2 0.500000 0.500010 0.606140 0.973914
Zn2   Zn    Zn3+2 0.500000 0.499990 0.393860 0.967585
I1    I     I_    0.924828 0.305143 0.604728 -0.256429
I2    I     I_    0.075655 0.696022 0.395095 -0.238467
I3    I     I_    0.924539 0.507443 0.269262 -0.273477
I4    I     I_    0.075472 0.493858 0.730475 -0.249506
I5    I     I_    0.357466 0.039544 0.680288 -0.296348
I6    I     I_    0.351747 0.959659 0.324941 -0.285658

loop_
_geom_bond_atom_site_label_1
_geom_bond_atom_site_label_2
_ccdc_geom_bond_type
C25   C31   S    
C26   C32   S    
C25   I1    S    
C16   N2    A    
C37   I5    S    
C4    H8    S    
C27   C33   S    
C1    C5    S    
C15   H15   S    
C19   C21   A    
C1    O3    A    
O3    Zn2   S    
C2    O4    A    
C28   H2    S    
N2    Zn1   S    
C11   C37   A    
C17   C19   A    
C13   H13   S    
O2    Zn2   S    
C31   I4    S    
C14   H14   S    
C27   H1    S    
C31   C33   S    
C17   N1    A    
C18   C20   A    
C18   N2    A    
C25   C34   S    
C23   O7    A    
O7    Zn2   S    
C28   C34   S    
C24   O8    A    
C15   N1    A    
C21   C22   S    
C2    C6    S    
C20   H6    S    
C19   H5    S    
C16   H16   S    
C38   I6    S    
O6    Zn2   S    
C9    H11   S    
C4    C6    A    
C5    C7    A    
C6    C8    A    
C3    H7    S    
C32   C34   S    
C8    H10   S    
C1    O1    A    
C26   C33   S    
C13   C21   A    
C9    C11   A    
C10   C12   A    
C20   C22   A    
O4    Zn1   S    
C13   C15   A    
C14   C16   A    
C24   C30   S    
C10   H12   S    
C23   C29   S    
N1    Zn2   S    
C7    C9    A    
C24   O6    A    
C27   C32   S    
C28   C31   S    
O1    Zn1   S    
C3    C5    A    
C11   C12   S    
C2    O2    A    
C32   I3    S    
C25   C27   S    
C29   C35   T    
C26   C28   S    
C30   C36   T    
C26   I2    S    
O8    Zn1   S    
C14   C22   A    
C18   H4    S    
C33   C35   S    
C34   C36   S    
C12   C38   A    
C17   H3    S    
O5    Zn1   S    
C23   O5    A    
C3    C37   A    
C8    C10   A    
C4    C38   A    
C7    H9    S    
