data_mof_unit_34396.cif
_audit_creation_date              2012-12-10T17:24:45-0500
_audit_creation_method            fapswitch 2.2
_symmetry_space_group_name_H-M    P1
_symmetry_Int_Tables_number       1
_space_group_crystal_system       triclinic
_cell_length_a                    23.516283
_cell_length_b                    10.775929
_cell_length_c                    9.626268
_cell_angle_alpha                 90.471498
_cell_angle_beta                  90.482532
_cell_angle_gamma                 93.197458
_cell_volume                      2435.4142472

loop_
_atom_site_label
_atom_site_type_symbol
_atom_type_description
_atom_site_fract_x
_atom_site_fract_y
_atom_site_fract_z
_atom_type_partial_charge
C1    C     C_R   0.497859 0.262618 0.499552 0.786506
C2    C     C_R   0.965090 0.295298 0.595093 -0.159740
C3    C     C_R   0.024384 0.294320 0.593785 -0.160750
C4    C     C_R   0.057336 0.398012 0.546503 -0.015660
C5    C     C_R   0.030121 0.503432 0.500104 -0.017367
C6    C     C_R   0.062752 0.607842 0.452336 -0.015292
C7    C     C_R   0.035166 0.712551 0.406456 -0.159064
C8    C     C_R   0.975865 0.713551 0.407839 -0.161859
C9    C     C_R   0.117006 0.399139 0.544184 0.536246
C10   C     C_R   0.122329 0.604814 0.452280 0.534098
C11   C     C_R   0.239272 0.502043 0.624016 -0.101408
C12   C     C_R   0.391045 0.499580 0.499557 0.769410
C13   C     C_R   0.298525 0.501501 0.624586 -0.226807
C14   C     C_R   0.328427 0.499854 0.498761 -0.043000
C15   C     C_R   0.297912 0.498725 0.372481 -0.200519
C16   C     C_R   0.238619 0.499382 0.372241 -0.093656
C17   C     C_R   0.209112 0.501009 0.497957 0.351797
C18   C     C_R   0.761385 0.505267 0.628532 -0.100525
C19   C     C_R   0.702045 0.503788 0.627953 -0.218799
C20   C     C_R   0.671651 0.503149 0.501505 -0.041753
C21   C     C_R   0.701748 0.504950 0.375864 -0.223555
C22   C     C_R   0.761059 0.506465 0.376778 -0.101666
C23   C     C_R   0.498294 0.737018 0.500420 0.772873
C24   C     C_R   0.791091 0.506330 0.503002 0.354701
C25   C     C_R   0.407618 0.119449 0.645271 -0.173576
C26   C     C_R   0.365921 0.050046 0.717515 -0.078286
C27   C     C_R   0.366243 0.921042 0.718742 -0.119376
C28   C     C_R   0.408293 0.860629 0.647844 -0.170916
C29   C     C_R   0.451711 0.929132 0.575981 0.100368
C30   C     C_R   0.451363 0.060378 0.574716 0.090571
C31   C     C_R   0.493725 0.128316 0.498657 -0.097728
C32   C     C_R   0.533565 0.067615 0.420408 -0.176772
C33   C     C_R   0.533904 0.939666 0.421566 -0.196533
C34   C     C_R   0.608968 0.500984 0.500478 0.784739
C35   C     C_R   0.494387 0.870424 0.500923 -0.088114
C36   C     C_R   0.576195 0.665851 0.146533 -0.137142
C37   C     C_R   0.613460 0.746715 0.075704 -0.208735
C38   C     C_R   0.613378 0.746579 0.932471 -0.196697
C39   C     C_R   0.576011 0.665602 0.859116 -0.137013
C40   C     C_R   0.537342 0.581418 0.926849 0.198705
C41   C     C_R   0.537386 0.581455 0.076194 0.199235
C42   C     C_R   0.463906 0.421383 0.070411 0.060943
C43   C     C_R   0.464534 0.422827 0.922609 -0.024654
C44   C     C_R   0.883221 0.608659 0.457332 0.532909
C45   C     C_R   0.877936 0.402902 0.549005 0.534743
C46   C     C_R   0.937508 0.399992 0.549162 -0.015336
C47   C     C_R   0.970130 0.504438 0.501482 -0.017353
C48   C     C_R   0.942905 0.609848 0.455093 -0.014469
Cu1   Cu    Cu3+1 0.500000 0.499990 0.640660 0.928628
Cu2   Cu    Cu3+1 0.500000 0.500010 0.359340 0.925733
H1    H     H_    0.940983 0.213789 0.632147 0.191550
H2    H     H_    0.680064 0.502977 0.726385 0.164688
H3    H     H_    0.679554 0.504906 0.276821 0.165169
H4    H     H_    0.783754 0.506996 0.279349 0.144169
H5    H     H_    0.565522 0.119864 0.360884 0.156985
H6    H     H_    0.404329 0.219060 0.643147 0.139211
H7    H     H_    0.332743 0.096522 0.771123 0.165616
H8    H     H_    0.333300 0.867378 0.773277 0.148898
H9    H     H_    0.405544 0.760246 0.648079 0.156736
H10   H     H_    0.566042 0.894452 0.362562 0.140189
H11   H     H_    0.044271 0.212109 0.629922 0.190840
H12   H     H_    0.579785 0.673751 0.256228 0.191447
H13   H     H_    0.642628 0.810064 0.132724 0.157660
H14   H     H_    0.642487 0.809783 0.877466 0.160693
H15   H     H_    0.579287 0.672969 0.749556 0.197100
H16   H     H_    0.435918 0.360579 0.862803 0.178343
H17   H     H_    0.059276 0.794042 0.369362 0.192349
H18   H     H_    0.955975 0.795764 0.371715 0.190575
H19   H     H_    0.216712 0.503657 0.721562 0.145071
H20   H     H_    0.320827 0.502516 0.723516 0.164821
H21   H     H_    0.319760 0.497279 0.273941 0.164323
H22   H     H_    0.215520 0.498217 0.274407 0.145338
H23   H     H_    0.784359 0.505607 0.726511 0.144013
N1    N     N_R   0.852100 0.506140 0.503535 -0.469709
N2    N     N_R   0.148131 0.501561 0.497787 -0.470231
N3    N     N_R   0.500540 0.501210 0.147910 -0.243373
N4    N     N_R   0.500560 0.501290 0.852040 -0.224057
O1    O     O_R   0.500000 0.319640 0.618810 -0.570971
O2    O     O_2   0.846022 0.303002 0.592642 -0.533780
O3    O     O_2   0.143751 0.298491 0.587052 -0.531579
O4    O     O_2   0.154277 0.704542 0.408329 -0.531303
O5    O     O_R   0.500000 0.319660 0.381240 -0.599728
O6    O     O_R   0.417880 0.499950 0.618810 -0.592979
O7    O     O_R   0.417880 0.499980 0.381240 -0.604501
O8    O     O_R   0.500000 0.680340 0.618760 -0.599821
O9    O     O_R   0.500000 0.680360 0.381190 -0.583584
O10   O     O_R   0.582120 0.500020 0.618760 -0.593276
O11   O     O_R   0.582120 0.500050 0.381190 -0.597390
O12   O     O_2   0.856469 0.709324 0.414562 -0.536573
C49   C     C_2   0.422488 0.330919 0.136107 0.355162
H24   H     H_    0.418527 0.322433 0.246326 0.145870
O13   O     O_2   0.390941 0.261793 0.065171 -0.582041

loop_
_geom_bond_atom_site_label_1
_geom_bond_atom_site_label_2
_ccdc_geom_bond_type
Cu1   O10   S    
C19   C20   A    
C16   H22   S    
C25   H6    S    
Cu2   O7    S    
C7    C8    A    
C22   H4    S    
C45   C46   A    
C2    C46   A    
C5    C47   A    
C26   C27   A    
C29   C30   A    
C18   C24   A    
C36   C37   A    
C5    C6    A    
C13   H20   S    
C15   C16   A    
C1    C31   S    
Cu1   O1    S    
C12   O7    A    
C18   C19   A    
C19   H2    S    
C11   C17   A    
C31   C32   A    
C16   C17   A    
C23   O9    A    
C32   H5    S    
Cu2   O11   S    
C20   C34   S    
C21   C22   A    
C1    O1    A    
C39   H15   S    
C36   C41   A    
C36   H12   S    
C37   H13   S    
C38   H14   S    
C3    H11   S    
C38   C39   A    
Cu1   O8    S    
C39   C40   A    
C25   C26   A    
C12   O6    A    
C45   N1    A    
C42   C49   S    
C9    O3    S    
C8    C48   A    
C37   C38   A    
Cu2   N3    S    
C10   N2    A    
C49   O13   D    
C47   C48   A    
C45   O2    S    
C34   O11   A    
C44   N1    A    
C40   C41   A    
C12   C14   S    
C8    H18   S    
C18   H23   S    
C23   C35   S    
C22   C24   A    
C43   N4    A    
C42   C43   A    
C3    C4    A    
Cu2   O5    S    
C28   H9    S    
C25   C30   A    
C46   C47   A    
C28   C29   A    
C40   N4    A    
C4    C5    A    
C27   H8    S    
C6    C10   A    
C11   H19   S    
C6    C7    A    
C33   H10   S    
C15   H21   S    
C29   C35   A    
C10   O4    S    
C42   N3    A    
C32   C33   A    
Cu1   O6    S    
C2    C3    A    
C1    O5    A    
C41   N3    A    
C21   H3    S    
C11   C13   A    
C24   N1    S    
C49   H24   S    
C30   C31   A    
C43   H16   S    
C33   C35   A    
Cu1   N4    S    
C34   O10   A    
C26   H7    S    
C2    H1    S    
Cu2   O9    S    
C7    H17   S    
C20   C21   A    
Cu1   Cu2   S    
C23   O8    A    
C27   C28   A    
C17   N2    S    
C14   C15   A    
C9    N2    A    
C4    C9    A    
C13   C14   A    
C44   O12   S    
C44   C48   A    
