data_mof_unit_32239.cif
_audit_creation_date              2012-12-11T14:09:02-0500
_audit_creation_method            fapswitch 2.2
_symmetry_space_group_name_H-M    P1
_symmetry_Int_Tables_number       1
_space_group_crystal_system       triclinic
_cell_length_a                    8.213692
_cell_length_b                    15.084952
_cell_length_c                    19.006588
_cell_angle_alpha                 95.19343
_cell_angle_beta                  93.373619
_cell_angle_gamma                 99.274009
_cell_volume                      2308.18334162

loop_
_atom_site_label
_atom_site_type_symbol
_atom_type_description
_atom_site_fract_x
_atom_site_fract_y
_atom_site_fract_z
_atom_type_partial_charge
Ba1   Ba    Ba6+2 0.852120 0.544010 0.466690 1.737996
Ba2   Ba    Ba6+2 0.337720 0.456070 0.533320 1.692920
C1    C     C_3   0.692249 0.884752 0.291868 -0.372567
C2    C     C_R   0.153221 0.488380 0.275156 0.047951
C3    C     C_R   0.098424 0.480660 0.202752 -0.121980
C4    C     C_3   0.127729 0.742807 0.276685 0.339092
C5    C     C_R   0.203256 0.517749 0.152178 0.002187
C6    C     C_R   0.365131 0.561346 0.176368 -0.140349
C7    C     C_R   0.418983 0.568099 0.248505 0.009259
C8    C     C_R   0.195597 0.577142 0.031286 -0.086816
C9    C     C_R   0.143774 0.567780 0.958870 -0.138488
C10   C     C_R   0.042969 0.488482 0.926244 0.023590
C11   C     C_R   0.996659 0.416489 0.968471 0.417960
C12   C     C_3   0.658505 0.789610 0.314125 0.351340
C13   C     C_R   0.046970 0.428450 0.042367 -0.132238
C14   C     C_R   0.147320 0.507942 0.074363 0.021020
C15   C     C_R   0.822983 0.441930 0.823795 -0.061648
C16   C     C_3   0.118943 0.772587 0.202490 -0.369380
C17   C     C_R   0.771783 0.433069 0.751437 0.004165
C18   C     C_R   0.038640 0.510606 0.725067 0.046831
C19   C     C_R   0.092892 0.518387 0.797778 -0.161052
C20   C     C_R   0.986705 0.481826 0.848271 -0.000269
C21   C     C_R   0.881274 0.464387 0.702601 -0.302534
C22   C     C_R   0.760475 0.232474 0.526891 -0.283392
C23   C     C_3   0.444733 0.331658 0.317631 0.311573
C24   C     C_R   0.855343 0.171799 0.551754 0.010368
C25   C     C_R   0.793647 0.078766 0.542354 -0.058426
C26   C     C_R   0.636693 0.045067 0.505426 0.066159
C27   C     C_R   0.550461 0.109014 0.476339 -0.108040
C28   C     C_3   0.249615 0.730215 0.620297 0.341739
C29   C     C_R   0.611924 0.201129 0.487048 0.034333
C30   C     C_R   0.405878 0.913594 0.460011 -0.202134
C31   C     C_R   0.341381 0.821598 0.449114 -0.044532
C32   C     C_R   0.585216 0.787315 0.510449 -0.001308
C33   C     C_R   0.651886 0.879499 0.520996 -0.223165
C34   C     C_3   0.419115 0.309815 0.237665 -0.394262
C35   C     C_R   0.565534 0.945177 0.494626 0.016410
C36   C     C_R   0.434419 0.758575 0.471484 0.309121
C37   C     C_3   0.253172 0.831196 0.636785 0.484425
C38   C     C_3   0.942052 0.270502 0.379978 0.305446
C39   C     C_3   0.907470 0.168950 0.359555 -0.388880
C40   C     C_3   0.748678 0.655239 0.680389 0.355435
C41   C     C_3   0.750999 0.674391 0.760808 0.267039
C42   C     C_3   0.533774 0.742866 0.799435 0.230100
C43   C     C_3   0.647350 0.988784 0.713404 0.186288
C44   C     C_3   0.917714 0.259651 0.968170 0.175013
C45   C     C_3   0.077812 0.258212 0.724585 0.387155
C46   C     C_3   0.103441 0.231674 0.799139 0.471369
C47   C     C_3   0.550292 0.212547 0.693537 0.332406
C48   C     C_3   0.556553 0.125658 0.727861 0.243522
C49   C     C_R   0.311823 0.533387 0.297227 -0.278703
F1    F     F_    0.094530 0.848438 0.644720 -0.687164
F2    F     F_    0.988730 0.156788 0.808671 -0.727040
F3    F     F_    0.373175 0.669199 0.459617 -0.715363
H1    H     H_    0.739201 0.787507 0.362714 0.082893
H2    H     H_    0.661432 0.591566 0.663319 0.033048
H3    H     H_    0.823713 0.902152 0.280028 0.147531
H4    H     H_    0.822778 0.742988 0.778386 0.031609
H5    H     H_    0.819296 0.626454 0.785817 -0.023923
H6    H     H_    0.526816 0.774815 0.326062 -0.054935
H7    H     H_    0.666627 0.933741 0.335373 0.070978
H8    H     H_    0.327370 0.347202 0.337688 0.011068
H9    H     H_    0.543511 0.391714 0.329413 0.055435
H10   H     H_    0.318180 0.251167 0.224118 0.124338
H11   H     H_    0.385128 0.368605 0.212730 0.060219
H12   H     H_    0.330854 0.856129 0.686490 0.000691
H13   H     H_    0.534919 0.293529 0.216234 0.125232
H14   H     H_    0.611249 0.889629 0.243970 0.111474
H15   H     H_    0.144783 0.717970 0.163697 0.072856
H16   H     H_    0.165907 0.321092 0.720067 0.001547
H17   H     H_    0.949177 0.271251 0.716460 -0.073278
H18   H     H_    0.088766 0.288633 0.838036 -0.005983
H19   H     H_    0.229778 0.215759 0.808302 0.049984
H20   H     H_    0.675674 0.236679 0.676628 -0.046602
H21   H     H_    0.460824 0.198241 0.646113 0.089562
H22   H     H_    0.432111 0.100728 0.745607 0.069267
H23   H     H_    0.305693 0.868166 0.593411 -0.051590
H24   H     H_    0.035558 0.680420 0.277395 0.089609
H25   H     H_    0.647935 0.141883 0.774919 0.081456
H26   H     H_    0.216701 0.553130 0.814643 0.112022
H27   H     H_    0.180466 0.624054 0.928470 0.079027
H28   H     H_    0.271173 0.639890 0.053917 0.075162
H29   H     H_    0.974724 0.445526 0.186203 0.087031
H30   H     H_    0.010071 0.375351 0.075487 0.050493
H31   H     H_    0.733521 0.419451 0.860690 0.122609
H32   H     H_    0.450846 0.587797 0.139246 0.078382
H33   H     H_    0.839716 0.458117 0.647016 0.064364
H34   H     H_    0.829475 0.293062 0.398553 -0.001749
H35   H     H_    0.253837 0.727813 0.288646 -0.042348
H36   H     H_    0.355077 0.537483 0.352451 0.132817
H37   H     H_    0.325452 0.958200 0.442691 0.098760
H38   H     H_    0.871875 0.034949 0.563059 0.092273
H39   H     H_    0.769089 0.897782 0.551483 0.136060
H40   H     H_    0.437777 0.089900 0.442907 0.064682
H41   H     H_    0.808334 0.304126 0.533758 0.059920
H42   H     H_    0.993631 0.787514 0.188577 0.148463
H43   H     H_    0.212144 0.834049 0.199678 0.110271
H44   H     H_    0.375153 0.718029 0.609836 -0.100498
H45   H     H_    0.042273 0.285858 0.423065 0.069134
H46   H     H_    0.163568 0.706464 0.572649 0.076453
H47   H     H_    0.539553 0.784131 0.753807 0.029647
H48   H     H_    0.607437 0.781256 0.846684 0.006301
H49   H     H_    0.402848 0.728897 0.812515 0.062480
H50   H     H_    0.554558 0.963555 0.750447 -0.009272
H51   H     H_    0.770946 0.010191 0.742406 0.137228
H52   H     H_    0.656363 0.931786 0.673507 0.065183
H53   H     H_    0.847391 0.254881 0.016224 0.025102
H54   H     H_    0.050672 0.256009 0.980208 0.027283
H55   H     H_    0.864713 0.199925 0.930713 0.132094
H56   H     H_    0.799843 0.151157 0.319761 0.125808
H57   H     H_    0.880027 0.132587 0.406581 0.055832
H58   H     H_    0.017463 0.146639 0.336808 0.126615
H59   H     H_    0.874373 0.647693 0.666106 -0.052480
O1    O     O_2   0.860810 0.457220 0.330270 -0.465338
O2    O     O_2   0.194652 0.176820 0.546211 -0.480100
O3    O     O_3   0.107516 0.188236 0.675620 -0.580135
O4    O     O_3   0.115570 0.454630 0.416610 -0.470634
O5    O     O_3   0.584290 0.607440 0.536430 -0.423360
O6    O     O_2   0.331880 0.280530 0.464130 -0.461431
O7    O     O_3   0.490225 0.256826 0.347716 -0.643502
O8    O     O_2   0.434599 0.439723 0.750436 -0.470034
O9    O     O_3   0.498215 0.275567 0.742729 -0.656307
O10   O     O_3   0.655480 0.619980 0.374380 -0.467062
O11   O     O_2   0.757613 0.563566 0.249864 -0.495737
O12   O     O_3   0.701794 0.728463 0.648960 -0.644953
O13   O     O_3   0.987746 0.312832 0.320111 -0.641713
O14   O     O_3   0.693409 0.728080 0.259265 -0.604286
O15   O     O_2   0.857830 0.719490 0.535920 -0.441528
O16   O     O_3   0.080900 0.665060 0.409740 -0.425655
O17   O     O_2   0.003501 0.824361 0.455361 -0.481475
O18   O     O_3   0.587713 0.659918 0.782617 -0.630845
O19   O     O_3   0.601120 0.060206 0.678073 -0.661668
O20   O     O_3   0.896743 0.338099 0.935876 -0.663475
O21   O     O_3   0.091876 0.811687 0.325277 -0.612264
O22   O     O_2   0.328890 0.542810 0.669780 -0.426241
O23   O     O_3   0.074140 0.545440 0.583400 -0.488701
O24   O     O_3   0.534240 0.380100 0.625630 -0.483791
O25   O     O_3   0.200000 0.687373 0.679580 -0.649131
O26   O     O_3   0.605420 0.392640 0.463580 -0.480507
O27   O     O_3   0.108810 0.335010 0.590270 -0.500059
P1    P     P_3+3 0.028530 0.430100 0.340790 0.991235
P2    P     P_3+3 0.683360 0.705380 0.556640 1.077897
P3    P     P_3+3 0.128793 0.782109 0.410997 1.004481
P4    P     P_3+3 0.161190 0.569970 0.659220 1.024796
P5    P     P_3+3 0.066512 0.217204 0.590063 0.972289
P6    P     P_3+3 0.631462 0.618410 0.282056 0.954777
P7    P     P_3+3 0.511279 0.280535 0.439953 0.949558
P8    P     P_3+3 0.559356 0.384131 0.718074 0.954777

loop_
_geom_bond_atom_site_label_1
_geom_bond_atom_site_label_2
_ccdc_geom_bond_type
C28   O25   S    
C28   H46   S    
Ba2   P4    S    
C18   P4    S    
O24   P8    S    
O4    P1    S    
C1    H14   S    
C7    C49   A    
Ba1   O15   S    
C48   H25   S    
C38   H45   S    
Ba2   O5    S    
C34   H13   S    
C5    C6    A    
C31   P3    S    
C42   O18   S    
O26   P7    S    
C24   C25   A    
C15   H31   S    
Ba2   O26   S    
C37   H23   S    
C26   C27   A    
C33   C35   A    
C22   C24   A    
C32   C33   A    
Ba1   O16   S    
C49   H36   S    
O3    P5    S    
C3    H29   S    
C4    H24   S    
C30   H37   S    
Ba1   O1    S    
O6    P7    D    
C13   C14   A    
C10   C20   S    
C7    P6    S    
C16   H42   S    
Ba1   Ba2   S    
C23   H9    S    
Ba1   P2    S    
C40   O12   S    
C40   H2    S    
O21   P3    S    
C42   H49   S    
C32   P2    S    
Ba2   O6    S    
C6    C7    A    
C39   H58   S    
C44   H54   S    
O10   P6    S    
C16   H43   S    
O9    P8    S    
Ba1   O23   S    
C41   H4    S    
C41   H5    S    
C23   H8    S    
C29   P7    S    
C16   H15   S    
C1    H7    S    
C12   H1    S    
C21   H33   S    
C19   C20   A    
C45   O3    S    
C46   H18   S    
Ba2   O4    S    
C43   H51   S    
C33   H39   S    
C46   F2    S    
C4    C16   S    
C2    C49   A    
O1    P1    D    
C22   H41   S    
C2    P1    S    
C3    C5    A    
C15   C20   A    
C42   H48   S    
C34   H11   S    
C23   C34   S    
O11   P6    D    
C8    H28   S    
Ba2   O23   S    
C12   O14   S    
C24   P5    S    
C17   C21   A    
Ba1   O10   S    
C45   H16   S    
C43   H50   S    
C48   H22   S    
C40   H59   S    
C45   C46   S    
C36   F3    S    
C18   C21   A    
O12   P2    S    
C42   H47   S    
C38   O13   S    
C44   H53   S    
C47   H21   S    
O8    P8    D    
C25   H38   S    
Ba1   O4    S    
C30   C35   A    
C10   C11   A    
O17   P3    D    
C45   H17   S    
C1    C12   S    
C48   O19   S    
O7    P7    S    
O16   P3    S    
C1    H3    S    
C38   C39   S    
C39   H56   S    
C11   C13   A    
C37   H12   S    
C40   C41   S    
C23   O7    S    
C43   H52   S    
C28   H44   S    
O22   P4    D    
C32   C36   A    
Ba2   O24   S    
C11   O20   S    
C46   H19   S    
O23   P4    S    
C5    C14   S    
C31   C36   A    
C2    C3    A    
O5    P2    S    
Ba1   O26   S    
O27   P5    S    
C9    C10   A    
C13   H30   S    
C9    H27   S    
C4    H35   S    
C12   H6    S    
O2    P5    D    
O13   P1    S    
Ba2   O22   S    
Ba2   O27   S    
C30   C31   A    
C38   H34   S    
C41   O18   S    
C22   C29   A    
C27   C29   A    
C8    C14   A    
C44   O20   S    
C27   H40   S    
C26   C35   S    
C47   O9    S    
C17   P8    S    
C19   H26   S    
C15   C17   A    
C28   C37   S    
C37   F1    S    
C6    H32   S    
Ba1   O5    S    
Ba1   P1    S    
C8    C9    A    
O14   P6    S    
C18   C19   A    
C43   O19   S    
C4    O21   S    
C47   C48   S    
C39   H57   S    
C44   H55   S    
C25   C26   A    
C47   H20   S    
O25   P4    S    
C34   H10   S    
O15   P2    D    
