data_mof_unit_65866.cif
_audit_creation_date              2012-12-10T20:56:30-0500
_audit_creation_method            fapswitch 2.2
_symmetry_space_group_name_H-M    P1
_symmetry_Int_Tables_number       1
_space_group_crystal_system       triclinic
_cell_length_a                    26.460119
_cell_length_b                    32.971166
_cell_length_c                    21.170857
_cell_angle_alpha                 90.000157
_cell_angle_beta                  128.755046
_cell_angle_gamma                 89.9999
_cell_volume                      14403.3699973

loop_
_atom_site_label
_atom_site_type_symbol
_atom_type_description
_atom_site_fract_x
_atom_site_fract_y
_atom_site_fract_z
_atom_type_partial_charge
C1    C     C_R   0.500000 0.145604 0.500000 0.808034
C2    C     C_R   0.658547 0.611594 0.499996 0.127909
C3    C     C_R   0.641053 0.749753 0.499782 0.948174
C4    C     C_R   0.141015 0.750274 0.499732 0.938427
C5    C     C_R   0.858947 0.249753 0.500218 0.948126
C6    C     C_R   0.858986 0.750274 0.500269 0.938504
C7    C     C_R   0.141054 0.249753 0.499783 0.948049
C8    C     C_R   0.395562 0.250038 0.291142 0.801339
C9    C     C_R   0.604440 0.749963 0.708858 0.802265
C10   C     C_R   0.604438 0.250038 0.708858 0.801335
C11   C     C_R   0.395560 0.749963 0.291141 0.802256
C12   C     C_R   0.895562 0.750038 0.291142 0.801340
C13   C     C_R   0.651309 0.387093 0.491276 0.132695
C14   C     C_R   0.104440 0.249963 0.708858 0.802260
C15   C     C_R   0.104438 0.750038 0.708858 0.801335
C16   C     C_R   0.895560 0.249963 0.291141 0.802260
C17   C     C_1   0.649536 0.250056 0.798998 -0.159374
C18   C     C_1   0.350459 0.749946 0.201002 -0.160152
C19   C     C_1   0.350464 0.250056 0.201002 -0.159375
C20   C     C_1   0.649541 0.749946 0.798998 -0.160127
C21   C     C_1   0.149536 0.750056 0.798998 -0.159378
C22   C     C_1   0.850459 0.249946 0.201002 -0.160137
C23   C     C_1   0.850464 0.750056 0.201002 -0.159375
C24   C     C_R   0.341259 0.611579 0.499694 0.127835
C25   C     C_1   0.149541 0.249946 0.798998 -0.160147
C26   C     C_1   0.686997 0.250046 0.873929 -0.002807
C27   C     C_1   0.312995 0.749956 0.126071 -0.003023
C28   C     C_1   0.313003 0.250046 0.126071 -0.002807
C29   C     C_1   0.687004 0.749957 0.873929 -0.003013
C30   C     C_1   0.186997 0.750046 0.873929 -0.002811
C31   C     C_1   0.812995 0.249956 0.126071 -0.003017
C32   C     C_1   0.813003 0.750046 0.126071 -0.002806
C33   C     C_1   0.187004 0.249957 0.873929 -0.003020
C34   C     C_1   0.731276 0.250016 0.962535 0.009900
C35   C     C_R   0.848715 0.887092 0.508769 0.132686
C36   C     C_1   0.268715 0.749987 0.037465 0.009950
C37   C     C_1   0.268724 0.250016 0.037465 0.009899
C38   C     C_1   0.731284 0.749987 0.962535 0.009954
C39   C     C_1   0.231276 0.750016 0.962535 0.009897
C40   C     C_1   0.768715 0.249987 0.037465 0.009953
C41   C     C_1   0.768724 0.750016 0.037465 0.009901
C42   C     C_1   0.231285 0.249987 0.962535 0.009952
C43   C     C_1   0.499999 0.399492 0.500001 -0.158091
C44   C     C_1   0.499999 0.600508 0.500004 -0.166218
C45   C     C_1   0.000001 0.899492 0.499999 -0.158084
C46   C     C_R   0.158694 0.111581 0.500218 0.127836
C47   C     C_1   0.000001 0.100508 0.499997 -0.166213
C48   C     C_1   0.499998 0.436965 0.500002 -0.036311
C49   C     C_1   0.499998 0.563032 0.500005 -0.059527
C50   C     C_1   0.000003 0.936965 0.499998 -0.036309
C51   C     C_1   0.000002 0.063032 0.499997 -0.059514
C52   C     C_3   0.331607 0.436599 0.402509 -0.886659
C53   C     C_3   0.683821 0.560552 0.607090 -0.880435
C54   C     C_3   0.668359 0.436617 0.597402 -0.886679
C55   C     C_3   0.316089 0.560656 0.392483 -0.880362
C56   C     C_3   0.831661 0.936628 0.402657 -0.886679
C57   C     C_R   0.151415 0.887102 0.491445 0.132667
C58   C     C_3   0.183885 0.060626 0.607393 -0.880386
C59   C     C_3   0.168434 0.936573 0.597620 -0.886656
C60   C     C_3   0.816146 0.060590 0.392755 -0.880412
C61   C     C_3   0.394165 0.416741 0.576067 -0.907587
C62   C     C_3   0.612701 0.581106 0.434687 -0.897119
C63   C     C_3   0.605774 0.416731 0.423846 -0.907620
C64   C     C_3   0.386989 0.581026 0.564921 -0.897155
C65   C     C_3   0.894259 0.916724 0.576208 -0.907607
C66   C     C_3   0.112938 0.081045 0.434967 -0.897135
C67   C     C_3   0.105936 0.916773 0.424059 -0.907620
C68   C     C_R   0.841385 0.111588 0.499894 0.127889
C69   C     C_3   0.887190 0.081077 0.565173 -0.897151
C70   C     C_3   0.200993 0.309513 0.311415 -0.837063
C71   C     C_3   0.803040 0.692013 0.693480 -0.827929
C72   C     C_3   0.799010 0.309545 0.688543 -0.837035
C73   C     C_3   0.197078 0.692188 0.306386 -0.828198
C74   C     C_3   0.700994 0.809563 0.311479 -0.837027
C75   C     C_3   0.302934 0.192145 0.693582 -0.828177
C76   C     C_3   0.298997 0.809467 0.688621 -0.837062
C77   C     C_3   0.697002 0.192076 0.306477 -0.828009
C78   C     C_R   0.333728 0.349187 0.525624 0.377101
C79   C     C_R   0.669432 0.650134 0.480253 0.372790
C80   C     C_R   0.666233 0.349184 0.474320 0.377038
C81   C     C_R   0.500000 0.854396 0.500000 0.808867
C82   C     C_R   0.330388 0.650096 0.519528 0.373009
C83   C     C_R   0.833787 0.849182 0.525715 0.377033
C84   C     C_R   0.169570 0.150105 0.480412 0.373031
C85   C     C_R   0.166322 0.849201 0.474443 0.377090
C86   C     C_R   0.830507 0.150120 0.519672 0.372836
C87   C     C_R   0.284387 0.324553 0.461703 0.024046
C88   C     C_R   0.718021 0.675932 0.542225 0.034704
C89   C     C_R   0.715589 0.324560 0.538249 0.024038
C90   C     C_R   0.281901 0.675957 0.457605 0.034623
C91   C     C_R   0.784424 0.824563 0.461778 0.024027
C92   C     C_R   0.000000 0.645604 0.500000 0.808030
C93   C     C_R   0.218078 0.175950 0.542352 0.034622
C94   C     C_R   0.215638 0.824547 0.538346 0.024052
C95   C     C_R   0.781953 0.175940 0.457719 0.034681
C96   C     C_R   0.252720 0.335968 0.380667 0.125528
C97   C     C_R   0.752245 0.665089 0.624282 0.128837
C98   C     C_R   0.747267 0.335989 0.619281 0.125571
C99   C     C_R   0.247766 0.665197 0.375527 0.128737
C100  C     C_R   0.752743 0.836000 0.380750 0.125567
C101  C     C_R   0.252227 0.165169 0.624423 0.128687
C102  C     C_R   0.247293 0.835940 0.619390 0.125568
C103  C     C_R   0.000000 0.354396 0.500000 0.808868
C104  C     C_R   0.747760 0.165128 0.375654 0.128830
C105  C     C_R   0.270336 0.372088 0.364362 -0.188680
C106  C     C_R   0.738853 0.628074 0.643222 -0.197436
C107  C     C_R   0.729646 0.372111 0.635573 -0.188702
C108  C     C_R   0.261154 0.628206 0.356509 -0.197288
C109  C     C_R   0.770367 0.872124 0.364467 -0.188704
C110  C     C_R   0.238836 0.128171 0.643416 -0.197309
C111  C     C_R   0.229683 0.872054 0.635721 -0.188663
C112  C     C_R   0.761150 0.128122 0.356683 -0.197388
C113  C     C_R   0.317448 0.397850 0.426888 0.190708
C114  C     C_1   0.499997 0.481261 0.500003 -0.005453
C115  C     C_R   0.693364 0.600984 0.582486 0.190677
C116  C     C_R   0.682520 0.397863 0.573037 0.190703
C117  C     C_R   0.306543 0.601057 0.417182 0.190655
C118  C     C_R   0.817500 0.897870 0.427011 0.190703
C119  C     C_R   0.193429 0.101036 0.582723 0.190658
C120  C     C_R   0.182593 0.897833 0.573215 0.190712
C121  C     C_R   0.806603 0.101011 0.417396 0.190675
C122  C     C_R   0.213061 0.285741 0.480853 0.398390
C123  C     C_R   0.786869 0.714323 0.518914 0.403585
C124  C     C_R   0.786923 0.285746 0.519116 0.398338
C125  C     C_1   0.499997 0.518732 0.500004 -0.004543
C126  C     C_R   0.213077 0.714335 0.480976 0.403839
C127  C     C_R   0.713084 0.785748 0.480899 0.398318
C128  C     C_R   0.286914 0.214333 0.519005 0.403803
C129  C     C_R   0.286949 0.785739 0.519169 0.398431
C130  C     C_R   0.713116 0.214327 0.481055 0.403657
C131  C     C_R   0.196855 0.249590 0.499951 -0.162433
C132  C     C_R   0.803193 0.750477 0.500093 -0.165731
C133  C     C_R   0.803149 0.249590 0.500056 -0.162386
C134  C     C_R   0.196805 0.750476 0.499904 -0.165816
C135  C     C_R   0.696848 0.749589 0.499939 -0.162335
C136  C     C_1   0.000004 0.981261 0.499997 -0.005459
C137  C     C_R   0.303195 0.250476 0.500097 -0.165759
C138  C     C_R   0.303145 0.749590 0.500049 -0.162482
C139  C     C_R   0.696806 0.250477 0.499905 -0.165748
C140  C     C_R   0.233992 0.213928 0.519974 -0.087267
C141  C     C_R   0.766375 0.786233 0.480612 -0.075297
C142  C     C_R   0.766033 0.213922 0.480079 -0.087272
C143  C     C_R   0.233660 0.786222 0.519458 -0.075318
C144  C     C_R   0.733952 0.713918 0.519891 -0.087285
C145  C     C_R   0.266351 0.286225 0.480563 -0.075327
C146  C     C_R   0.265998 0.713931 0.480007 -0.087260
C147  C     C_1   0.000003 0.018732 0.499997 -0.004546
C148  C     C_R   0.733633 0.286230 0.519404 -0.075302
C149  C     C_R   0.500000 0.354440 0.500000 0.803050
C150  C     C_R   0.500000 0.645561 0.500001 0.806270
C151  C     C_R   0.000000 0.854440 0.500000 0.803050
C152  C     C_R   0.000000 0.145561 0.499999 0.806268
C153  C     C_1   0.500000 0.100531 0.500000 -0.146961
C154  C     C_1   0.500000 0.899469 0.500000 -0.146630
C155  C     C_1   0.000000 0.600531 0.500000 -0.146963
C156  C     C_1   0.000000 0.399469 0.500000 -0.146631
C157  C     C_1   0.500000 0.063048 0.500000 0.003323
C158  C     C_R   0.348648 0.387093 0.508652 0.132674
C159  C     C_1   0.500000 0.936952 0.500000 0.003554
C160  C     C_1   0.000000 0.563048 0.500000 0.003321
C161  C     C_1   0.000000 0.436952 0.500000 0.003554
C162  C     C_1   0.500000 0.018741 0.500000 0.014542
C163  C     C_1   0.500000 0.981259 0.500000 0.014623
C164  C     C_1   0.000000 0.518741 0.500000 0.014541
C165  C     C_1   0.000000 0.481259 0.500000 0.014622
C166  C     C_R   0.641014 0.250274 0.499731 0.938494
C167  C     C_R   0.358946 0.749753 0.500217 0.948012
C168  C     C_R   0.358985 0.250273 0.500268 0.938460
H1    H     H_    0.246538 0.380663 0.302080 0.163368
H2    H     H_    0.346641 0.429171 0.365247 0.245626
H3    H     H_    0.287118 0.455504 0.365772 0.236260
H4    H     H_    0.632184 0.556461 0.579381 0.258825
H5    H     H_    0.699140 0.535646 0.587137 0.241302
H6    H     H_    0.712753 0.558065 0.673799 0.232907
H7    H     H_    0.629271 0.455085 0.545586 0.255608
H8    H     H_    0.653338 0.429196 0.634679 0.245634
H9    H     H_    0.712845 0.455526 0.634120 0.236290
H10   H     H_    0.367749 0.556541 0.420320 0.258823
H11   H     H_    0.300642 0.535723 0.412226 0.241276
H12   H     H_    0.765356 0.619969 0.706337 0.164323
H13   H     H_    0.287262 0.558245 0.325780 0.232898
H14   H     H_    0.870757 0.955090 0.454477 0.255607
H15   H     H_    0.846671 0.929212 0.365365 0.245635
H16   H     H_    0.787179 0.955541 0.365956 0.236275
H17   H     H_    0.132229 0.056513 0.579580 0.258821
H18   H     H_    0.199308 0.035701 0.587604 0.241285
H19   H     H_    0.212733 0.058195 0.674097 0.232900
H20   H     H_    0.129361 0.955056 0.545824 0.255604
H21   H     H_    0.153389 0.929130 0.634864 0.245617
H22   H     H_    0.212927 0.955473 0.634384 0.236278
H23   H     H_    0.753453 0.380697 0.697852 0.163371
H24   H     H_    0.867792 0.056488 0.420514 0.258829
H25   H     H_    0.800776 0.035675 0.412626 0.241288
H26   H     H_    0.787254 0.058132 0.326048 0.232905
H27   H     H_    0.439334 0.419696 0.583322 0.242328
H28   H     H_    0.370379 0.446832 0.561636 0.250321
H29   H     H_    0.407110 0.408006 0.635099 0.255620
H30   H     H_    0.637066 0.551279 0.448764 0.250270
H31   H     H_    0.569209 0.577533 0.430948 0.244497
H32   H     H_    0.597030 0.589515 0.374146 0.252814
H33   H     H_    0.560610 0.419683 0.416603 0.242328
H34   H     H_    0.234727 0.620166 0.293378 0.164301
H35   H     H_    0.629549 0.446824 0.438252 0.250308
H36   H     H_    0.592822 0.407986 0.364814 0.255619
H37   H     H_    0.362575 0.551203 0.550641 0.250279
H38   H     H_    0.430557 0.577475 0.568817 0.244505
H39   H     H_    0.402537 0.589359 0.625435 0.252828
H40   H     H_    0.939419 0.919676 0.583444 0.242322
H41   H     H_    0.870488 0.946818 0.561818 0.250318
H42   H     H_    0.907216 0.907972 0.635240 0.255619
H43   H     H_    0.137336 0.051220 0.449200 0.250278
H44   H     H_    0.069382 0.077491 0.431097 0.244494
H45   H     H_    0.746557 0.880716 0.302190 0.163372
H46   H     H_    0.097369 0.089396 0.374450 0.252827
H47   H     H_    0.060745 0.919721 0.416753 0.242336
H48   H     H_    0.129738 0.946862 0.438554 0.250312
H49   H     H_    0.093031 0.908062 0.365037 0.255626
H50   H     H_    0.862812 0.051250 0.551018 0.250276
H51   H     H_    0.930713 0.077516 0.568975 0.244497
H52   H     H_    0.902811 0.089455 0.625702 0.252821
H53   H     H_    0.412232 0.342738 0.635672 0.330978
H54   H     H_    0.588790 0.654614 0.371382 0.331393
H55   H     H_    0.587718 0.342718 0.364283 0.330981
H56   H     H_    0.265277 0.120115 0.706541 0.164309
H57   H     H_    0.410942 0.654455 0.628510 0.331434
H58   H     H_    0.912306 0.842704 0.635745 0.330977
H59   H     H_    0.089000 0.154494 0.371452 0.331419
H60   H     H_    0.087836 0.842793 0.364364 0.331004
H61   H     H_    0.911118 0.154554 0.628583 0.331415
H62   H     H_    0.221275 0.279080 0.316632 0.249245
H63   H     H_    0.159931 0.306217 0.312768 0.252881
H64   H     H_    0.181880 0.322545 0.251813 0.231676
H65   H     H_    0.809322 0.721255 0.673339 0.246468
H66   H     H_    0.789157 0.698967 0.732129 0.239880
H67   H     H_    0.253469 0.880612 0.698008 0.163360
H68   H     H_    0.850404 0.676033 0.730624 0.240904
H69   H     H_    0.778741 0.279111 0.683353 0.249228
H70   H     H_    0.840065 0.306250 0.687177 0.252915
H71   H     H_    0.818129 0.322587 0.748141 0.231667
H72   H     H_    0.190770 0.721397 0.326594 0.246457
H73   H     H_    0.211092 0.699205 0.267897 0.240006
H74   H     H_    0.149694 0.676233 0.269061 0.240821
H75   H     H_    0.721257 0.779128 0.316656 0.249226
H76   H     H_    0.659940 0.806267 0.312849 0.252922
H77   H     H_    0.681873 0.822609 0.251885 0.231666
H78   H     H_    0.734673 0.120041 0.293562 0.164314
H79   H     H_    0.309245 0.221360 0.673395 0.246465
H80   H     H_    0.288939 0.199149 0.732095 0.240002
H81   H     H_    0.350313 0.176183 0.730877 0.240826
H82   H     H_    0.278696 0.779035 0.683365 0.249240
H83   H     H_    0.340066 0.806170 0.687281 0.252866
H84   H     H_    0.318105 0.822483 0.748232 0.231675
H85   H     H_    0.690703 0.221303 0.326643 0.246466
H86   H     H_    0.710936 0.199058 0.267893 0.239922
H87   H     H_    0.649633 0.176102 0.269261 0.240873
H88   H     H_    0.193716 0.344103 0.456138 0.342179
H89   H     H_    0.370686 0.455074 0.454318 0.255598
H90   H     H_    0.804004 0.655543 0.538963 0.342701
H91   H     H_    0.806209 0.344121 0.543714 0.342186
H92   H     H_    0.195705 0.655590 0.460443 0.342705
H93   H     H_    0.693812 0.844125 0.456332 0.342191
H94   H     H_    0.304274 0.155586 0.539514 0.342705
H95   H     H_    0.306309 0.844098 0.543916 0.342175
H96   H     H_    0.695917 0.155556 0.460876 0.342704
O1    O     O_3   0.500000 0.250010 0.500000 -0.456297
O2    O     O_R   0.008350 0.334000 0.455930 -0.615505
O3    O     O_R   0.008350 0.666000 0.455930 -0.615438
O4    O     O_R   0.991650 0.334000 0.544070 -0.615507
O5    O     O_R   0.552380 0.334020 0.544040 -0.627409
O6    O     O_R   0.447620 0.665980 0.455960 -0.627539
O7    O     O_R   0.447620 0.334020 0.455960 -0.627413
O8    O     O_R   0.552380 0.665980 0.544040 -0.627537
O9    O     O_R   0.052380 0.834020 0.544040 -0.627413
O10   O     O_R   0.947620 0.165980 0.455960 -0.627537
O11   O     O_R   0.947620 0.834020 0.455960 -0.627407
O12   O     O_3   0.500000 0.749990 0.500000 -0.457001
O13   O     O_R   0.052380 0.165980 0.544040 -0.627537
O14   O     O_R   0.593780 0.227990 0.455960 -0.578728
O15   O     O_R   0.406220 0.772010 0.544040 -0.582062
O16   O     O_R   0.406220 0.227990 0.544040 -0.578718
O17   O     O_R   0.593780 0.772010 0.455960 -0.582083
O18   O     O_R   0.093780 0.727990 0.455960 -0.578708
O19   O     O_R   0.906220 0.272010 0.544040 -0.582080
O20   O     O_R   0.906220 0.727990 0.544040 -0.578736
O21   O     O_R   0.093780 0.272010 0.455960 -0.582071
O22   O     O_R   0.362170 0.272040 0.455960 -0.665944
O23   O     O_3   0.000000 0.750010 0.500000 -0.456296
O24   O     O_R   0.637830 0.727960 0.544040 -0.662148
O25   O     O_R   0.637830 0.272040 0.544040 -0.665949
O26   O     O_R   0.362170 0.727960 0.455960 -0.662116
O27   O     O_R   0.862170 0.772040 0.455960 -0.665951
O28   O     O_R   0.137830 0.227960 0.544040 -0.662120
O29   O     O_R   0.137830 0.772040 0.544040 -0.665938
O30   O     O_R   0.862170 0.227960 0.455960 -0.662137
O31   O     O_R   0.446360 0.228000 0.332000 -0.622294
O32   O     O_R   0.553640 0.772000 0.668000 -0.622457
O33   O     O_R   0.553640 0.228000 0.668000 -0.622296
O34   O     O_3   0.000000 0.249990 0.500000 -0.456999
O35   O     O_R   0.446360 0.772000 0.332000 -0.622445
O36   O     O_R   0.946360 0.728000 0.332000 -0.622293
O37   O     O_R   0.053640 0.272000 0.668000 -0.622449
O38   O     O_R   0.053640 0.728000 0.668000 -0.622295
O39   O     O_R   0.946360 0.272000 0.332000 -0.622454
O40   O     O_R   0.385640 0.272040 0.331990 -0.626991
O41   O     O_R   0.614360 0.727960 0.668010 -0.627873
O42   O     O_R   0.614360 0.272040 0.668010 -0.626990
O43   O     O_R   0.385640 0.727960 0.331990 -0.627900
O44   O     O_R   0.885640 0.772040 0.331990 -0.626990
O45   O     O_R   0.491650 0.166000 0.544070 -0.615437
O46   O     O_R   0.114360 0.227960 0.668010 -0.627894
O47   O     O_R   0.114360 0.772040 0.668010 -0.626993
O48   O     O_R   0.885640 0.227960 0.331990 -0.627884
O49   O     O_3   0.365918 0.335367 0.603736 -0.770769
O50   O     O_3   0.634318 0.663355 0.401267 -0.772043
O51   O     O_3   0.634033 0.335350 0.396214 -0.770777
O52   O     O_3   0.365425 0.663239 0.598553 -0.771944
O53   O     O_3   0.865989 0.835341 0.603816 -0.770772
O54   O     O_3   0.134520 0.163268 0.401399 -0.771953
O55   O     O_3   0.134144 0.835402 0.396319 -0.770767
O56   O     O_R   0.508350 0.834000 0.455930 -0.615508
O57   O     O_3   0.865595 0.163313 0.598672 -0.772015
O58   O     O_3   0.176627 0.320138 0.465213 -0.745367
O59   O     O_3   0.823315 0.679924 0.534608 -0.740613
O60   O     O_3   0.823340 0.320147 0.534721 -0.745394
O61   O     O_3   0.176579 0.679948 0.465183 -0.740552
O62   O     O_3   0.676676 0.820151 0.465312 -0.745405
O63   O     O_3   0.323403 0.179944 0.534777 -0.740567
O64   O     O_3   0.323394 0.820133 0.534832 -0.745342
O65   O     O_3   0.676655 0.179931 0.465334 -0.740594
O66   O     O_R   0.508350 0.166000 0.455930 -0.615439
O67   O     O_R   0.491650 0.834000 0.544070 -0.615504
O68   O     O_R   0.991650 0.666000 0.544070 -0.615439
Zn1   Zn    Zn3+2 0.574840 0.281480 0.562930 0.978930
Zn2   Zn    Zn3+2 0.488090 0.781450 0.562930 1.024970
Zn3   Zn    Zn3+2 0.488090 0.218550 0.562930 1.025174
Zn4   Zn    Zn3+2 0.511910 0.781450 0.437070 1.024976
Zn5   Zn    Zn3+2 0.011910 0.718550 0.437070 1.025179
Zn6   Zn    Zn3+2 0.988090 0.281450 0.562930 1.024975
Zn7   Zn    Zn3+2 0.988090 0.718550 0.562930 1.025173
Zn8   Zn    Zn3+2 0.011910 0.281450 0.437070 1.024968
Zn9   Zn    Zn3+2 0.425160 0.718520 0.437070 0.981014
Zn10  Zn    Zn3+2 0.425160 0.281480 0.437070 0.978926
Zn11  Zn    Zn3+2 0.574840 0.718520 0.562930 0.981063
Zn12  Zn    Zn3+2 0.074840 0.781480 0.562930 0.978920
Zn13  Zn    Zn3+2 0.925160 0.218520 0.437070 0.981046
Zn14  Zn    Zn3+2 0.925160 0.781480 0.437070 0.978934
Zn15  Zn    Zn3+2 0.074840 0.218520 0.562930 0.981028
Zn16  Zn    Zn3+2 0.511910 0.218550 0.437070 1.025178

loop_
_geom_bond_atom_site_label_1
_geom_bond_atom_site_label_2
_ccdc_geom_bond_type
C89   C148  S    
C8    O40   A    
C58   H18   S    
O17   Zn4   S    
O44   Zn14  S    
H91   O60   S    
C76   H82   S    
C65   H40   S    
C52   C113  S    
O30   Zn13  S    
C123  O59   S    
C105  H1    S    
C124  C133  A    
C10   O42   A    
O23   Zn7   S    
O1    Zn16  S    
C71   H66   S    
C54   H8    S    
C37   C42   T    
C131  C140  A    
C134  C143  A    
H54   O50   S    
C54   C116  S    
C91   C100  A    
O22   Zn10  S    
C88   C97   A    
C74   H76   S    
C100  C109  A    
C102  C111  A    
C109  C118  A    
C3    O24   A    
O5    Zn1   S    
C69   H50   S    
O34   Zn8   S    
C6    C132  S    
C63   H36   S    
C150  O8    A    
C74   H77   S    
C74   C100  S    
C56   H16   S    
C15   O38   A    
C101  C110  A    
O24   Zn11  S    
C83   O53   S    
C44   C150  S    
C45   C151  S    
C7    O28   A    
C92   O68   A    
H55   O51   S    
C61   H28   S    
C149  O7    A    
C46   C84   A    
C55   H10   S    
C59   H21   S    
H60   O55   S    
C66   H44   S    
C76   H84   S    
C167  O15   A    
C168  O16   A    
C48   C114  S    
C55   C117  S    
O6    Zn9   S    
C68   C121  A    
O33   Zn3   S    
C11   O35   A    
C8    O31   A    
C83   C91   A    
C64   H37   S    
O23   Zn5   S    
O12   Zn2   S    
C106  C115  A    
C61   C158  S    
C130  O65   S    
C45   C50   T    
C58   C119  S    
C12   O44   A    
C57   C85   A    
C84   C93   A    
C86   O57   S    
C60   C121  S    
C86   C95   A    
C149  O5    A    
O27   Zn14  S    
C103  C156  S    
C47   C152  S    
C126  C134  A    
C95   C142  S    
C75   C101  S    
C72   H69   S    
C111  C120  A    
C5    O30   A    
C157  C162  S    
C137  C168  S    
C161  C165  S    
C75   H80   S    
C53   C115  S    
C78   C87   A    
C11   C18   S    
C59   C120  S    
C123  C132  A    
C69   H52   S    
O41   Zn11  S    
O37   Zn6   S    
O34   Zn6   S    
C150  O6    A    
C53   H5    S    
O3    Zn5   S    
C167  O26   A    
C5    C133  S    
C99   C108  A    
C71   C97   S    
C133  C142  A    
C63   H35   S    
C33   C42   S    
C105  C113  A    
O45   Zn3   S    
C62   H31   S    
O34   Zn15  S    
C127  C141  A    
O66   Zn16  S    
O47   Zn12  S    
C70   H63   S    
H96   O65   S    
C53   H4    S    
C78   C158  A    
C73   H74   S    
C29   C38   S    
H59   O54   S    
C4    O18   A    
C32   C41   S    
C79   O50   S    
C67   H48   S    
C106  H12   S    
H92   O61   S    
C60   H25   S    
C76   C102  S    
H94   O63   S    
C64   H39   S    
C139  C148  A    
C128  O63   S    
C8    C19   S    
C11   O43   A    
O12   Zn4   S    
C127  O62   S    
C77   H85   S    
C4    O29   A    
C38   C41   T    
H90   O59   S    
C152  O13   A    
C104  C112  A    
C93   C101  A    
C71   H68   S    
C70   C96   S    
C84   O54   S    
H93   O62   S    
O1    Zn10  S    
C85   O55   S    
C60   H24   S    
O23   Zn14  S    
O12   Zn9   S    
C72   H71   S    
C9    O41   A    
C19   C28   T    
C94   C102  A    
C65   H42   S    
C57   C120  A    
C168  O22   A    
H88   O58   S    
C156  C161  T    
C129  O64   S    
C90   C99   A    
C4    C134  S    
C132  C141  A    
C63   H33   S    
C58   H19   S    
C55   H11   S    
C108  C117  A    
C36   C39   T    
C77   C104  S    
C110  C119  A    
C89   C98   A    
O34   Zn13  S    
C128  C140  A    
C112  C121  A    
C10   O33   A    
C28   C37   S    
C138  C146  A    
H58   O53   S    
C126  O61   S    
O2    Zn8   S    
C30   C39   S    
C92   C155  S    
C159  C163  S    
C71   H65   S    
C130  C142  A    
O67   Zn2   S    
C107  C116  A    
C24   C64   S    
C107  H23   S    
C35   C118  A    
C151  O11   A    
C25   C33   T    
O20   Zn7   S    
C96   C105  A    
C122  C131  A    
C77   H87   S    
C110  H56   S    
O43   Zn9   S    
C61   H29   S    
C124  C148  A    
C24   C117  A    
C160  C164  S    
C137  C145  A    
C164  C165  T    
C14   O46   A    
C127  C135  A    
C46   C66   S    
C35   C65   S    
O9    Zn12  S    
O12   Zn11  S    
C31   C40   S    
C80   C89   A    
C2    C79   A    
C166  O25   A    
C68   C69   S    
C123  C144  A    
C111  H67   S    
C61   H27   S    
C7    C131  S    
C13   C80   A    
C81   O67   A    
C58   H17   S    
C130  C139  A    
O68   Zn7   S    
C79   C88   A    
C74   H75   S    
C77   H86   S    
C67   H49   S    
C73   H72   S    
O36   Zn5   S    
H95   O64   S    
C35   C83   A    
C47   C51   T    
C3    O17   A    
C64   H38   S    
C98   C107  A    
C54   H7    S    
C66   H46   S    
C7    O21   A    
C2    C115  A    
C9    C20   S    
O1    Zn1   S    
C103  O4    A    
C1    C153  S    
C151  O9    A    
O21   Zn8   S    
C1    O66   A    
O28   Zn15  S    
O48   Zn13  S    
O18   Zn5   S    
O40   Zn10  S    
C17   C26   T    
C52   H2    S    
O42   Zn1   S    
C75   H79   S    
C6    O27   A    
C162  C163  T    
C1    O45   A    
C16   C22   S    
C87   C145  S    
C69   H51   S    
O10   Zn13  S    
C56   C118  S    
C81   O56   A    
C129  C143  A    
C56   H15   S    
C27   C36   S    
C49   C125  S    
C21   C30   T    
C82   C90   A    
C54   H9    S    
C23   C32   T    
C62   H32   S    
C93   C140  S    
C52   H89   S    
C16   O39   A    
C14   O37   A    
C3    C135  S    
C14   C25   S    
C153  C157  T    
C70   H64   S    
C13   C116  A    
C154  C159  T    
C73   H73   S    
O14   Zn16  S    
C59   H22   S    
C152  O10   A    
C66   H43   S    
C75   H81   S    
C76   H83   S    
C44   C49   T    
H57   O52   S    
C16   O48   A    
C68   C86   A    
O29   Zn12  S    
C67   H47   S    
C126  C146  A    
C60   H26   S    
C72   C98   S    
C112  H78   S    
C34   C40   T    
C94   C143  S    
C80   O51   S    
C109  H45   S    
C122  C145  A    
C10   C17   S    
O1    Zn3   S    
C103  O2    A    
C24   C82   A    
C108  H34   S    
C92   O3    A    
C26   C34   S    
C129  C138  A    
C82   O52   S    
C13   C63   S    
O8    Zn11  S    
C113  C158  A    
C43   C48   T    
C65   H41   S    
C43   C149  S    
C124  O60   S    
C12   O36   A    
C78   O49   S    
O56   Zn4   S    
C57   C67   S    
C52   H3    S    
H61   O57   S    
C53   H6    S    
C20   C29   T    
C22   C31   T    
O4    Zn6   S    
C62   H30   S    
C114  C125  T    
C12   C23   S    
O35   Zn4   S    
C81   C154  S    
C138  C167  S    
O26   Zn9   S    
C139  C166  S    
C128  C137  A    
C70   H62   S    
C85   C94   A    
O16   Zn3   S    
C51   C147  S    
C87   C96   A    
C55   H13   S    
C59   H20   S    
O39   Zn8   S    
C122  O58   S    
O7    Zn10  S    
C135  C144  A    
O32   Zn2   S    
C97   C106  A    
O31   Zn16  S    
C95   C104  A    
O13   Zn15  S    
C73   C99   S    
O23   Zn12  S    
C155  C160  T    
C5    O19   A    
O19   Zn6   S    
C6    O20   A    
C18   C27   T    
O46   Zn15  S    
C90   C146  S    
O11   Zn14  S    
C50   C136  S    
O25   Zn1   S    
C56   H14   S    
C88   C144  S    
C46   C119  A    
C72   H70   S    
O15   Zn2   S    
C136  C147  T    
O38   Zn7   S    
C15   C21   S    
C91   C141  S    
C166  O14   A    
C9    O32   A    
C2    C62   S    
C15   O47   A    
H53   O49   S    
