data_mof_unit_10032.cif
_audit_creation_date              2012-10-26T18:43:30-0400
_audit_creation_method            fapswitch 2.2
_symmetry_space_group_name_H-M    P1
_symmetry_Int_Tables_number       1
_space_group_crystal_system       triclinic
_cell_length_a                    10.855702
_cell_length_b                    10.923653
_cell_length_c                    9.634935
_cell_angle_alpha                 88.314794
_cell_angle_beta                  88.670132
_cell_angle_gamma                 95.629092
_cell_volume                      1136.15583711

loop_
_atom_site_label
_atom_site_type_symbol
_atom_type_description
_atom_site_fract_x
_atom_site_fract_y
_atom_site_fract_z
_atom_type_partial_charge
C1    C     C_R   0.500805 0.262060 0.501692 0.579461
C2    C     C_R   0.451764 0.927381 0.612613 0.027323
C3    C     C_3   0.490256 0.909609 0.756877 0.185754
C4    C     C_R   0.260115 0.495754 0.501672 0.604595
C5    C     C_3   0.481923 0.047843 0.767872 0.144679
C6    C     C_R   0.547663 0.603511 0.066114 0.242921
C7    C     C_R   0.420687 0.419199 0.079206 0.317297
C8    C     C_R   0.416693 0.423957 0.930424 0.355853
C9    C     C_R   0.567152 0.587332 0.923540 0.117757
C10   C     C_3   0.702490 0.617829 0.925288 0.100493
C11   C     C_3   0.673013 0.682475 0.058426 0.519112
C12   C     C_3   0.879769 0.499803 0.500816 -0.028863
C13   C     C_R   0.493506 0.736565 0.497765 0.571209
C14   C     C_R   0.740520 0.499775 0.499401 0.538633
C15   C     C_3   0.066581 0.482576 0.655421 0.163915
C16   C     C_3   0.923804 0.474564 0.650331 -0.178550
C17   C     C_3   0.088909 0.619578 0.434875 0.191569
C18   C     C_3   0.062602 0.389575 0.419063 -0.343055
C19   C     C_3   0.122863 0.497648 0.504380 0.017391
C20   C     C_3   0.094543 0.559269 0.879899 0.005888
C21   C     C_3   0.547443 0.133032 0.141833 0.016057
C22   C     C_3   0.747193 0.762762 0.267836 -0.043504
C23   C     C_3   0.946884 0.626072 0.448055 0.114842
C24   C     C_3   0.772155 0.876124 0.980251 -0.121405
C25   C     C_3   0.921397 0.396403 0.409163 -0.306573
C26   C     C_R   0.447901 0.052774 0.616797 0.010709
C27   C     C_R   0.493562 0.126883 0.501398 -0.030571
C28   C     C_R   0.513996 0.068835 0.373718 0.260692
C29   C     C_R   0.485460 0.939519 0.367031 0.200765
C30   C     C_R   0.477327 0.867980 0.491917 -0.010998
Cl1   Cl    Cl    0.440059 0.872131 0.209043 -0.484998
Cl2   Cl    Cl    0.377848 0.806704 0.853043 -0.389874
Cl3   Cl    Cl    0.355798 0.078784 0.878279 -0.401684
Cl4   Cl    Cl    0.312268 0.316097 0.172614 -0.544932
Cl5   Cl    Cl    0.294529 0.340908 0.849296 -0.497242
Cl6   Cl    Cl    0.777529 0.481395 0.961275 -0.680439
Cl7   Cl    Cl    0.179768 0.754654 0.492621 -0.390800
Cl8   Cl    Cl    0.905834 0.749336 0.556648 -0.595484
Cu1   Cu    Cu3+1 0.499990 0.499980 0.640670 1.110607
Cu2   Cu    Cu3+1 0.500010 0.500020 0.359330 1.124334
H1    H     H_    0.897840 0.414547 0.299099 0.200635
H2    H     H_    0.103308 0.393088 0.312040 0.205617
H3    H     H_    0.080795 0.299917 0.468365 0.172776
H4    H     H_    0.871454 0.306136 0.442737 0.163865
H5    H     H_    0.033320 0.625722 0.921823 0.179113
H6    H     H_    0.184896 0.574833 0.931232 0.192680
H7    H     H_    0.052956 0.464530 0.909477 0.147293
H8    H     H_    0.578208 0.222918 0.089416 0.167419
H9    H     H_    0.444767 0.120714 0.141391 0.244855
H10   H     H_    0.586912 0.061391 0.080287 0.179212
H11   H     H_    0.673050 0.823821 0.255706 0.189680
H12   H     H_    0.114119 0.617498 0.322172 0.116113
H13   H     H_    0.837112 0.820775 0.261751 0.149495
H14   H     H_    0.731400 0.724496 0.373919 0.162865
H15   H     H_    0.772155 0.896685 0.866973 0.138995
H16   H     H_    0.855956 0.828487 0.002882 0.164572
H17   H     H_    0.781128 0.965036 0.033561 0.155092
H18   H     H_    0.917879 0.643628 0.341538 0.143847
H19   H     H_    0.586009 0.883099 0.761064 0.090066
H20   H     H_    0.571430 0.101618 0.789361 0.077995
H21   H     H_    0.093109 0.393943 0.699989 0.159190
H22   H     H_    0.739713 0.675539 0.834217 0.142755
H23   H     H_    0.883499 0.381978 0.689507 0.132946
H24   H     H_    0.890110 0.543181 0.720163 0.239201
N1    N     N_R   0.500800 0.500930 0.147930 -0.254244
N2    N     N_R   0.500800 0.500890 0.852020 -0.247901
O1    O     O_R   0.500000 0.319640 0.618810 -0.480091
O2    O     O_3   0.594894 0.132709 0.276383 -0.572776
O3    O     O_3   0.749510 0.665119 0.173110 -0.543431
O4    O     O_3   0.658295 0.808766 0.023546 -0.578996
O5    O     O_R   0.500010 0.319680 0.381230 -0.431929
O6    O     O_R   0.317690 0.499960 0.618790 -0.411648
O7    O     O_R   0.317700 0.500000 0.381210 -0.480492
O8    O     O_R   0.499990 0.680320 0.618770 -0.482364
O9    O     O_R   0.500000 0.680360 0.381190 -0.476421
O10   O     O_R   0.682300 0.500000 0.618790 -0.503784
O11   O     O_R   0.682310 0.500040 0.381210 -0.468187
O12   O     O_3   0.113171 0.583459 0.735368 -0.456901

loop_
_geom_bond_atom_site_label_1
_geom_bond_atom_site_label_2
_ccdc_geom_bond_type
C23   H18   S    
C8    N2    A    
Cu2   O5    S    
C6    C9    A    
C21   H9    S    
C11   O4    S    
C24   O4    S    
C7    C8    A    
C22   H14   S    
C24   H15   S    
C15   C19   S    
C12   C23   S    
C26   C27   A    
C17   C23   S    
C28   C29   A    
C28   O2    S    
C18   H2    S    
C14   O11   A    
C15   O12   S    
C15   C16   S    
Cu2   O7    S    
C25   H4    S    
C18   C19   S    
Cu1   O8    S    
C9    N2    A    
C17   C19   S    
C4    C19   S    
C6    N1    A    
C12   C16   S    
C24   H17   S    
C5    Cl3   S    
Cu1   O6    S    
C16   H23   S    
C9    C10   S    
C22   O3    S    
C20   H5    S    
C21   H8    S    
C10   H22   S    
C18   C25   S    
C17   H12   S    
C21   H10   S    
C22   H13   S    
C13   O9    A    
C13   C30   S    
C25   H1    S    
Cu1   Cu2   S    
C17   Cl7   S    
C8    Cl5   S    
C14   O10   A    
C29   C30   A    
C7    N1    A    
C15   H21   S    
C2    C26   A    
C1    O5    A    
Cu1   O10   S    
C4    O7    A    
C12   C14   S    
Cu2   N1    S    
C6    C11   S    
C21   O2    S    
Cu1   N2    S    
C4    O6    A    
C7    Cl4   S    
C5    H20   S    
Cu1   O1    S    
C3    C5    S    
C11   O3    S    
C24   H16   S    
C23   Cl8   S    
Cu2   O9    S    
C20   O12   S    
C12   C25   S    
C2    C30   A    
C2    C3    S    
C29   Cl1   S    
C18   H3    S    
C1    O1    A    
C3    Cl2   S    
C20   H7    S    
C10   C11   S    
C5    C26   S    
C13   O8    A    
C27   C28   A    
C1    C27   S    
Cu2   O11   S    
C10   Cl6   S    
C16   H24   S    
C20   H6    S    
C22   H11   S    
C3    H19   S    
