data_mof_unit_58162.cif
_audit_creation_date              2013-03-05T15:54:49-0500
_audit_creation_method            fapswitch 2.2
_symmetry_space_group_name_H-M    P1
_symmetry_Int_Tables_number       1
_space_group_crystal_system       triclinic
_cell_length_a                    8.40207
_cell_length_b                    16.656548
_cell_length_c                    16.603795
_cell_angle_alpha                 109.730795
_cell_angle_beta                  93.64689
_cell_angle_gamma                 82.230084
_cell_volume                      2166.78325892

loop_
_atom_site_label
_atom_site_type_symbol
_atom_site_description
_atom_site_fract_x
_atom_site_fract_y
_atom_site_fract_z
_atom_type_partial_charge
P1    P     P_3+3 0.385820 0.698700 0.604730 0.607370
O1    O     O_2   0.554430 0.712240 0.583340 -0.432404
O2    O     O_3   0.337760 0.603960 0.562660 -0.290699
O3    O     O_3   0.813110 0.658990 0.426440 -0.400296
O4    O     O_2   0.646902 0.811723 0.505830 -0.422924
O5    O     O_3   0.375841 0.733546 0.718182 -0.526136
O6    O     O_3   0.770950 0.796753 0.359037 -0.520406
H1    H     H_    0.666265 0.690831 0.285092 0.135048
C1    C     C_3   0.792240 0.742346 0.204916 -0.094177
H2    H     H_    0.788444 0.812931 0.220096 0.215106
P2    P     P_3+3 0.884390 0.431600 0.301750 0.555507
P3    P     P_3+3 0.381195 0.606574 0.267904 0.607107
O7    O     O_2   0.703570 0.457750 0.294670 -0.314790
O8    O     O_3   0.412810 0.615240 0.376810 -0.374070
O9    O     O_2   0.525520 0.545988 0.218789 -0.299628
O10   O     O_3   0.904406 0.318155 0.257700 -0.540186
O11   O     O_3   0.394952 0.703029 0.248018 -0.535144
C2    C     C_3   0.345022 0.776590 0.317743 0.691997
C3    C     C_3   0.396063 0.855311 0.302838 -0.644291
H3    H     H_    0.526928 0.849236 0.296061 0.220652
H4    H     H_    0.338619 0.863100 0.243349 0.306518
C4    C     C_3   0.294717 0.313338 0.250421 0.657185
H5    H     H_    0.193188 0.339912 0.294658 0.072750
C5    C     C_3   0.232625 0.251463 0.167531 -0.688379
H6    H     H_    0.184431 0.199247 0.181967 0.285546
H7    H     H_    0.331300 0.222112 0.121245 0.254797
Ba1   Ba    Ba6+2 0.642070 0.542310 0.469620 1.740194
C6    C     C_3   0.476295 0.684656 0.760037 0.609563
H8    H     H_    0.596474 0.668955 0.733057 -0.114106
C7    C     C_3   0.488875 0.738332 0.856665 -0.132352
C8    C     C_3   0.766601 0.291345 0.208080 0.121196
C9    C     C_3   0.785562 0.194376 0.157879 0.297685
H9    H     H_    0.666469 0.178929 0.127481 0.065459
P4    P     P_3+3 0.424480 0.301290 0.395200 0.599869
O12   O     O_2   0.255890 0.287710 0.416620 -0.303462
O13   O     O_3   0.472550 0.396030 0.437270 -0.304189
O14   O     O_3   0.997190 0.341000 0.573500 -0.319765
O15   O     O_3   0.419157 0.268145 0.283050 -0.600935
P5    P     P_3+3 0.426671 0.379073 0.726514 0.567319
O16   O     O_3   0.856110 0.544300 0.605450 -0.337313
O17   O     O_3   0.397490 0.384750 0.623120 -0.362531
O18   O     O_2   0.275951 0.430929 0.776757 -0.274651
O19   O     O_3   0.414649 0.273744 0.722583 -0.504717
Ba2   Ba    Ba6+2 0.168110 0.457680 0.530320 1.820885
P6    P     P_3+3 0.800982 0.771043 0.453448 0.495489
C10   C     C_3   0.774960 0.721104 0.287032 0.261027
H10   H     H_    0.910931 0.712505 0.176134 0.153929
O20   O     O_3   0.954190 0.455690 0.394480 -0.316357
C11   C     C_3   0.858996 0.729592 0.721231 0.600177
C12   C     C_3   0.775100 0.820955 0.766938 -0.183568
H11   H     H_    0.787370 0.862452 0.727873 0.126876
P7    P     P_3+3 0.917158 0.566860 0.714390 0.596654
O21   O     O_2   0.106750 0.542200 0.705290 -0.221425
O22   O     O_3   0.884709 0.678339 0.774455 -0.558445
H12   H     H_    0.361506 0.914030 0.357706 0.244607
C13   C     C_3   0.479722 0.217082 0.645228 0.458201
H13   H     H_    0.404105 0.224199 0.590271 0.129804
H14   H     H_    0.603763 0.229118 0.637804 -0.061462
C14   C     C_3   0.483667 0.125157 0.644202 -0.790508
H15   H     H_    0.361882 0.112786 0.655472 0.304610
P8    P     P_3+3 0.014155 0.229423 0.549824 0.586902
C15   C     C_3   0.938611 0.225995 0.695812 0.144397
O23   O     O_2   0.160585 0.192662 0.491257 -0.285305
O24   O     O_3   0.074067 0.208943 0.644535 -0.500183
H16   H     H_    0.867169 0.288193 0.699013 0.018069
H17   H     H_    0.884827 0.247545 0.827896 0.083285
C16   C     C_3   0.992063 0.231875 0.787007 -0.002832
H18   H     H_    0.068681 0.284737 0.813265 0.145396
C17   C     C_2   0.720619 0.240862 0.465896 -0.014713
C18   C     C_R   0.109882 0.751472 0.519634 -0.334486
C19   C     C_2   0.546059 0.130781 0.392642 0.179320
C20   C     C_2   0.563584 0.216561 0.425150 -0.044068
C21   C     C_2   0.826410 0.187046 0.494792 0.147226
C22   C     C_3   0.778500 0.100354 0.490299 -0.423731
C23   C     C_3   0.672400 0.064824 0.411237 0.201189
C24   C     C_2   0.915072 0.031191 0.493144 0.440971
C25   C     C_2   0.888734 0.971417 0.528656 -0.259560
C26   C     C_R   0.155646 0.923927 0.581623 0.265620
C27   C     C_R   0.011491 0.901143 0.537693 -0.054781
C28   C     C_R   0.274199 0.862279 0.595198 -0.276882
C29   C     C_R   0.251635 0.775386 0.564655 0.327310
C30   C     C_R   0.984881 0.813271 0.510575 0.284433
H19   H     H_    0.380737 0.882892 0.632450 0.170910
H20   H     H_    0.093993 0.684085 0.494031 0.176075
C31   C     C_R   0.102255 0.532721 0.272817 -0.402370
C32   C     C_R   0.975610 0.484762 0.237717 0.142742
C33   C     C_R   0.928394 0.471252 0.151767 -0.283138
C34   C     C_R   0.013542 0.502021 0.099703 0.102141
C35   C     C_R   0.150455 0.543600 0.134338 0.161029
C36   C     C_R   0.194607 0.559159 0.221189 0.240437
C37   C     C_R   0.864918 0.518486 0.860544 0.178530
C38   C     C_R   0.832244 0.504204 0.772355 0.059236
C39   C     C_R   0.786895 0.474348 0.904113 0.086911
N1    N     N_2   0.969342 0.491635 0.012354 -0.000108
N2    N     N_2   0.827342 0.478293 0.990642 0.000676
C40   C     C_R   0.710705 0.454110 0.731864 -0.436474
C41   C     C_R   0.614682 0.422728 0.777770 0.244924
C42   C     C_R   0.657358 0.429899 0.862723 -0.246591
H21   H     H_    0.587914 0.402400 0.897314 0.200937
H22   H     H_    0.136488 0.544186 0.339343 0.179368
H23   H     H_    0.681033 0.446205 0.665937 0.217396
H24   H     H_    0.136297 0.285929 0.138298 0.215300
N3    N     N_R   0.414480 0.604273 0.749857 0.219884
O25   O     O_R   0.428751 0.543830 0.676520 -0.352481
O26   O     O_R   0.383574 0.584623 0.816165 -0.338499
H25   H     H_    0.534274 0.800021 0.866945 0.142161
H26   H     H_    0.576164 0.701961 0.888855 0.156826
N4    N     N_R   0.333411 0.758216 0.898334 0.311449
O27   O     O_R   0.315195 0.734010 0.963577 -0.173580
O28   O     O_R   0.220618 0.810484 0.878730 -0.215289
H27   H     H_    0.736021 0.326238 0.161653 0.110941
H28   H     H_    0.665356 0.304925 0.251682 0.149200
N5    N     N_R   0.665927 0.710941 0.142108 0.276409
O29   O     O_R   0.571598 0.763975 0.113020 -0.254902
O30   O     O_R   0.654193 0.629130 0.110297 -0.316771
N6    N     N_R   0.829395 0.144161 0.215041 0.254604
O31   O     O_R   0.964466 0.150291 0.258211 -0.262702
O32   O     O_R   0.738619 0.087950 0.217965 -0.318317
N7    N     N_R   0.901376 0.171476 0.088961 0.238247
O33   O     O_R   0.883821 0.211553 0.033301 -0.393287
O34   O     O_R   0.999903 0.100742 0.072200 -0.244784
H29   H     H_    0.874955 0.671732 0.289686 0.111222
N8    N     N_R   0.010411 0.734239 0.689305 0.202648
O35   O     O_R   0.078549 0.804539 0.714614 -0.383975
O36   O     O_R   0.074608 0.665798 0.631938 -0.406940
H30   H     H_    0.782695 0.700568 0.665525 0.017302
N9    N     N_R   0.841287 0.859423 0.853010 0.318773
O37   O     O_R   0.904634 0.930822 0.872270 -0.209925
O38   O     O_R   0.827819 0.826249 0.912473 -0.257101
H31   H     H_    0.644553 0.820991 0.768335 0.061048
H32   H     H_    0.523551 0.079546 0.580976 0.198891
H33   H     H_    0.567929 0.113952 0.694698 0.248470
H34   H     H_    0.861898 0.173291 0.670005 0.085054
H35   H     H_    0.403412 0.772517 0.378519 0.029398
N10   N     N_R   0.080488 0.150794 0.788799 0.295916
O39   O     O_R   0.228608 0.148196 0.816780 -0.308507
O40   O     O_R   0.009011 0.081729 0.766997 -0.340135
N11   N     N_R   0.430454 0.096503 0.325897 0.275070
O41   O     O_R   0.280813 0.129067 0.330443 -0.241946
O42   O     O_R   0.470131 0.023224 0.266490 -0.309240
N12   N     N_R   0.773166 0.315183 0.457078 0.246794
O43   O     O_R   0.893783 0.305015 0.408121 -0.289771
O44   O     O_R   0.734091 0.389591 0.514375 -0.361589
N13   N     N_R   0.057161 0.021149 0.444962 0.260103
O45   O     O_R   0.198542 0.019507 0.481436 -0.435124
O46   O     O_R   0.043329 0.031149 0.370340 -0.253548
H36   H     H_    0.770515 0.974748 0.553312 0.150754
N14   N     N_R   0.957244 0.586128 0.908310 0.261561
O47   O     O_R   0.893663 0.649325 0.972531 -0.300264
O48   O     O_R   0.105882 0.583783 0.889731 -0.224185
N15   N     N_R   0.243859 0.570101 0.080802 0.280916
O49   O     O_R   0.315450 0.513040 0.014775 -0.302029
O50   O     O_R   0.237951 0.651232 0.090523 -0.235998
H37   H     H_    0.828268 0.435498 0.125153 0.187360
N16   N     N_R   0.171070 0.786284 0.324786 0.207884
O51   O     O_R   0.077476 0.845949 0.304826 -0.350546
O52   O     O_R   0.107938 0.730342 0.346517 -0.535837
N17   N     N_R   0.358745 0.383229 0.235159 0.164175
O53   O     O_R   0.407285 0.442841 0.301245 -0.376458
O54   O     O_R   0.393896 0.379791 0.158682 -0.438647

loop_
_geom_bond_atom_site_label_1
_geom_bond_atom_site_label_2
_geom_bond_distance
_ccdc_geom_bond_type
Ba1   O20   2.948424 S    
C33   C34   1.413767 A    
C7    H26   1.113198 S    
N16   O52   1.290265 A    
C21   C22   1.527519 S    
C3    H3    1.099940 S    
C41   C42   1.402119 A    
N8    O35   1.301496 A    
P5    O17   1.751008 S    
C31   C32   1.395220 A    
C13   H13   1.108737 S    
O10   C8    1.410265 S    
C11   H30   1.098487 S    
C14   H32   1.108573 S    
C22   C24   1.522673 S    
C15   C16   1.526204 S    
O6    P6    1.754449 S    
C15   H34   1.110660 S    
P3    C36   1.857315 S    
C6    H8    1.093483 S    
C3    H4    1.111030 S    
C5    H7    1.111203 S    
P1    O1    1.545459 D    
N12   O44   1.297114 A    
C42   H21   1.082869 S    
C26   C28   1.395909 A    
N8    O36   1.289858 A    
P2    C32   1.850601 S    
P1    C29   1.853231 S    
C11   O22   1.411271 S    
C11   N8    1.430237 S    
C38   C40   1.398318 A    
N4    O27   1.300836 A    
P4    O12   1.545699 D    
P8    O23   1.542941 D    
C18   C29   1.396396 A    
C15   O24   1.404793 S    
C12   H31   1.098498 S    
Ba1   Ba2   4.674274 S    
O5    C6    1.407175 S    
P6    C30   1.854402 S    
N6    O32   1.299683 A    
P3    O11   1.765462 S    
C8    H28   1.102113 S    
C17   C21   1.358112 D    
O1    Ba1   2.850202 S    
O8    Ba1   2.795427 S    
P5    O18   1.548466 D    
C18   H20   1.081447 S    
C1    H2    1.112492 S    
C25   H36   1.085715 S    
O16   Ba2   2.947514 S    
C5    H24   1.110306 S    
O13   Ba2   2.950549 S    
C25   C27   1.492951 S    
H17   C16   1.111501 S    
C14   H15   1.109913 S    
C39   N2    1.436704 S    
P4    O15   1.753923 S    
C40   H23   1.074504 S    
C7    H25   1.099871 S    
N17   O54   1.302663 A    
P2    O20   1.551499 S    
C28   H19   1.082137 S    
Ba2   O21   2.814334 S    
C37   N14   1.433491 S    
P7    O22   1.778821 S    
O11   C2    1.408046 S    
C19   N11   1.443397 S    
O3    P6    1.756200 S    
N7    O34   1.301953 A    
O2    Ba2   2.866196 S    
C31   C36   1.400983 A    
C34   N1    1.432040 S    
C14   H33   1.110600 S    
C22   C23   1.528865 S    
C16   H18   1.112707 S    
O6    C10   1.412333 S    
N10   O39   1.300763 A    
P4    Ba2   3.407404 S    
C5    H6    1.107332 S    
N13   O46   1.300834 A    
C37   C38   1.416808 A    
C26   C27   1.402868 A    
C2    C3    1.532672 S    
P5    O19   1.749914 S    
C4    N17   1.447321 S    
P8    C21   1.871822 S    
O16   P7    1.775189 S    
C13   H14   1.109554 S    
O4    P6    1.549094 D    
P1    O5    1.777945 S    
P1    O2    1.591648 S    
P8    O24   1.748662 S    
C16   N10   1.459384 S    
N9    O38   1.300927 A    
C37   C39   1.429449 A    
P2    O10   1.769282 S    
C8    C9    1.538576 S    
P3    O9    1.546977 D    
P2    Ba1   3.398675 S    
Ba1   O16   2.787704 S    
N15   O49   1.301077 A    
C40   C41   1.402280 A    
C12   H11   1.113382 S    
C33   H37   1.080811 S    
N3    O26   1.299743 A    
C9    N6    1.464328 S    
O12   Ba2   2.850774 S    
N11   O42   1.301064 A    
C24   N13   1.438901 S    
P3    O8    1.770360 S    
C1    H10   1.111829 S    
N17   O53   1.293506 A    
O17   Ba2   2.795919 S    
C4    C5    1.524732 S    
P7    C38   1.868525 S    
C9    N7    1.465739 S    
N9    O37   1.301004 A    
P4    C20   1.886526 S    
N3    O25   1.291859 A    
O3    Ba1   2.860675 S    
P7    O21   1.594012 D    
N5    O29   1.300685 A    
C3    H12   1.107282 S    
N10   O40   1.301180 A    
C15   H16   1.111381 S    
C7    N4    1.462135 S    
C32   C33   1.407088 A    
C10   H29   1.103200 S    
N14   O48   1.297702 A    
C28   C29   1.397962 A    
C27   C30   1.423274 A    
O14   P8    1.752432 S    
N7    O33   1.301544 A    
Ba1   O13   2.865521 S    
C13   C14   1.521361 S    
N13   O45   1.299796 A    
C1    N5    1.458938 S    
C9    H9    1.113496 S    
O14   Ba2   2.860062 S    
C6    C7    1.555649 S    
C19   C20   1.371326 D    
C31   H22   1.082270 S    
N12   O43   1.296898 A    
C19   C23   1.516947 S    
C24   C25   1.363979 D    
P2    O7    1.531215 D    
C6    N3    1.454314 S    
O2    Ba1   2.949540 S    
N4    O28   1.300391 A    
N6    O31   1.300223 A    
C2    H35   1.112586 S    
P4    O13   1.591677 S    
N14   O47   1.301151 A    
N15   O50   1.300123 A    
N1    N2    1.251287 D    
C18   C30   1.406198 A    
H1    C10   1.095060 S    
P5    C41   1.862835 S    
N11   O41   1.296425 A    
O19   C13   1.403791 S    
C1    C10   1.539482 S    
C34   C35   1.412803 A    
C11   C12   1.544950 S    
C35   N15   1.431172 S    
N16   O51   1.301470 A    
P1    Ba1   3.406755 S    
C8    H27   1.111298 S    
C4    H5    1.105080 S    
O7    Ba1   2.814342 S    
C12   N9    1.462586 S    
C17   C20   1.486064 S    
C35   C36   1.410634 A    
C17   N12   1.423806 S    
C39   C42   1.408615 A    
C2    N16   1.456391 S    
Ba2   O20   2.787231 S    
N5    O30   1.299753 A    
C4    O15   1.394206 S    
