data_mof_unit_27515.cif
_audit_creation_date              2012-10-26T20:22:05-0400
_audit_creation_method            fapswitch 2.2
_symmetry_space_group_name_H-M    P1
_symmetry_Int_Tables_number       1
_space_group_crystal_system       triclinic
_cell_length_a                    10.830012
_cell_length_b                    9.689123
_cell_length_c                    10.622006
_cell_angle_alpha                 90.276927
_cell_angle_beta                  94.976936
_cell_angle_gamma                 89.997286
_cell_volume                      1110.38690625

loop_
_atom_site_label
_atom_site_type_symbol
_atom_type_description
_atom_site_fract_x
_atom_site_fract_y
_atom_site_fract_z
_atom_type_partial_charge
C1    C     C_R   0.871589 0.500001 0.500375 0.018902
C2    C     C_3   0.498284 0.368583 0.039674 -0.113088
C3    C     C_3   0.397477 0.436462 0.948251 -0.120413
C4    C     C_3   0.602523 0.563538 0.051749 -0.120413
C5    C     C_3   0.500302 0.501167 0.877520 0.047254
C6    C     C_3   0.499698 0.498833 0.122480 0.047254
C7    C     C_R   0.419428 0.073713 0.417249 0.126736
C8    C     C_R   0.580572 0.926287 0.582751 0.126736
C9    C     C_R   0.580602 0.074532 0.582751 0.129509
C10   C     C_R   0.419398 0.925468 0.417249 0.129509
C11   C     C_R   0.063953 0.374626 0.500489 -0.145855
C12   C     C_R   0.128411 0.499999 0.499625 0.018902
C13   C     C_R   0.936047 0.625374 0.499511 -0.145856
C14   C     C_R   0.936177 0.374628 0.500878 -0.145173
C15   C     C_R   0.063823 0.625372 0.499122 -0.145173
C16   C     C_3   0.327382 0.144928 0.322725 -0.342303
C17   C     C_3   0.672618 0.855072 0.677275 -0.342303
C18   C     C_3   0.672578 0.146576 0.677519 -0.341327
C19   C     C_3   0.327422 0.853424 0.322481 -0.341327
C20   C     C_R   0.262523 0.499999 0.499540 0.536354
C21   C     C_R   0.737477 0.500001 0.500459 0.536354
C22   C     C_R   0.499499 0.499623 0.259644 0.542245
C23   C     C_R   0.500501 0.500377 0.740356 0.542245
C24   C     C_3   0.398892 0.566588 0.033306 -0.129885
C25   C     C_3   0.601108 0.433412 0.966694 -0.129885
C26   C     C_3   0.501716 0.631417 0.960326 -0.113088
Cu1   Cu    Cu3+1 0.500000 0.640660 0.500000 0.900737
Cu2   Cu    Cu3+1 0.500000 0.359340 0.500000 0.900737
H1    H     H_    0.316237 0.621032 0.063756 0.097377
H2    H     H_    0.654465 0.884725 0.774975 0.086903
H3    H     H_    0.673459 0.258234 0.676324 0.197991
H4    H     H_    0.653447 0.118809 0.775162 0.092204
H5    H     H_    0.768570 0.116241 0.660823 0.082350
H6    H     H_    0.326541 0.741766 0.323676 0.197991
H7    H     H_    0.231430 0.883759 0.339176 0.082350
H8    H     H_    0.346553 0.881191 0.224838 0.092204
H9    H     H_    0.313608 0.384576 0.902786 0.111718
H10   H     H_    0.686392 0.615424 0.097214 0.111718
H11   H     H_    0.111921 0.276516 0.500977 0.128453
H12   H     H_    0.683763 0.378968 0.936244 0.097377
H13   H     H_    0.888079 0.723484 0.499023 0.128453
H14   H     H_    0.888316 0.276518 0.501507 0.128594
H15   H     H_    0.111684 0.723482 0.498493 0.128594
H16   H     H_    0.503158 0.739165 0.925382 0.117516
H17   H     H_    0.496842 0.260835 0.074618 0.117516
H18   H     H_    0.327560 0.256601 0.323339 0.200169
H19   H     H_    0.345535 0.115275 0.225025 0.086903
H20   H     H_    0.231370 0.115810 0.340355 0.084966
H21   H     H_    0.672440 0.743399 0.676660 0.200169
H22   H     H_    0.768630 0.884189 0.659645 0.084966
N1    N     N_R   0.500000 0.852070 0.500000 -0.225298
N2    N     N_R   0.500000 0.147930 0.500000 -0.225298
O1    O     O_R   0.319640 0.618740 0.499990 -0.518452
O2    O     O_R   0.680360 0.381260 0.500010 -0.518452
O3    O     O_R   0.680360 0.618740 0.500010 -0.519231
O4    O     O_R   0.319640 0.381260 0.499990 -0.519231
O5    O     O_R   0.499970 0.618770 0.316850 -0.512562
O6    O     O_R   0.500030 0.381230 0.683150 -0.512562
O7    O     O_R   0.500030 0.618770 0.683150 -0.516389
O8    O     O_R   0.499970 0.381230 0.316850 -0.516389

loop_
_geom_bond_atom_site_label_1
_geom_bond_atom_site_label_2
_ccdc_geom_bond_type
C17   H22   S    
C7    C10   A    
C4    C26   S    
C11   C12   A    
Cu1   O1    S    
Cu1   N1    S    
C1    C21   S    
C13   C15   A    
C1    C14   A    
Cu2   O6    S    
C23   O6    A    
C8    C17   S    
C5    C23   S    
C12   C15   A    
C20   O4    A    
C10   C19   S    
C14   H14   S    
C6    C24   S    
C16   H20   S    
C22   O5    A    
C13   H13   S    
C4    C25   S    
Cu2   O4    S    
C26   H16   S    
C25   H12   S    
C19   H7    S    
C23   O7    A    
C17   H2    S    
Cu2   N2    S    
C8    N1    A    
C12   C20   S    
C3    C24   S    
C2    C6    S    
C9    N2    A    
C5    C25   S    
C10   N1    A    
C16   H19   S    
C7    C16   S    
C18   H5    S    
C4    H10   S    
C7    N2    A    
C2    C3    S    
C2    C25   S    
C19   H8    S    
Cu2   O8    S    
C2    H17   S    
C22   O8    A    
C21   O2    A    
C11   H11   S    
C11   C14   A    
Cu1   O3    S    
C18   H4    S    
C15   H15   S    
C5    C26   S    
C6    C22   S    
C9    C18   S    
C1    C13   A    
C3    H9    S    
C4    C6    S    
Cu1   O5    S    
C16   H18   S    
Cu1   Cu2   S    
C21   O3    A    
Cu2   O2    S    
C24   H1    S    
C20   O1    A    
Cu1   O7    S    
C18   H3    S    
C17   H21   S    
C24   C26   S    
C8    C9    A    
C3    C5    S    
C19   H6    S    
