data_mof_unit_21057.cif
_audit_creation_date              2013-03-05T16:33:20-0500
_audit_creation_method            fapswitch 2.2
_symmetry_space_group_name_H-M    P1
_symmetry_Int_Tables_number       1
_space_group_crystal_system       triclinic
_cell_length_a                    15.869952
_cell_length_b                    15.876742
_cell_length_c                    60.047164
_cell_angle_alpha                 90.573482
_cell_angle_beta                  89.888594
_cell_angle_gamma                 90.085225
_cell_volume                      15128.8688324

loop_
_atom_site_label
_atom_site_type_symbol
_atom_site_description
_atom_site_fract_x
_atom_site_fract_y
_atom_site_fract_z
_atom_type_partial_charge
Zn1   Zn    Zn3+2 0.599000 0.000000 0.730930 0.968269
Zn2   Zn    Zn3+2 0.401000 0.000000 0.269070 0.978817
Zn3   Zn    Zn3+2 1.000000 0.599000 0.730930 0.966380
Zn4   Zn    Zn3+2 0.000000 0.401000 0.269070 0.977127
Zn5   Zn    Zn3+2 0.401000 0.000000 0.730930 0.966529
Zn6   Zn    Zn3+2 0.599000 0.000000 0.269070 0.977506
Zn7   Zn    Zn3+2 0.000000 0.401000 0.730930 0.965950
Zn8   Zn    Zn3+2 0.000000 0.599000 0.269070 0.978699
Zn9   Zn    Zn3+2 0.099000 0.500000 0.230930 0.970247
Zn10  Zn    Zn3+2 0.901000 0.500000 0.769070 0.978808
Zn11  Zn    Zn3+2 0.500000 0.099000 0.230930 0.969747
Zn12  Zn    Zn3+2 0.500000 0.901000 0.769070 0.977406
Zn13  Zn    Zn3+2 0.901000 0.500000 0.230930 0.969774
Zn14  Zn    Zn3+2 0.099000 0.500000 0.769070 0.977800
Zn15  Zn    Zn3+2 0.500000 0.901000 0.230930 0.968896
Zn16  Zn    Zn3+2 0.500000 0.099000 0.769070 0.979690
O1    O     O_3   0.500000 0.000000 0.750000 -0.490284
O2    O     O_3   0.500000 1.000000 0.250000 -0.490838
O3    O     O_3   1.000000 0.500000 0.750000 -0.489924
O4    O     O_3   0.000000 0.500000 0.250000 -0.491135
O5    O     O_R   0.500000 0.069020 0.799580 -0.614951
O6    O     O_R   0.500000 0.930980 0.200420 -0.617151
O7    O     O_R   0.930980 0.500000 0.799580 -0.613217
O8    O     O_R   0.069020 0.500000 0.200420 -0.617194
O9    O     O_R   0.500000 0.930980 0.799580 -0.613161
O10   O     O_R   0.500000 0.069020 0.200420 -0.615371
O11   O     O_R   0.069020 0.500000 0.799580 -0.614623
O12   O     O_R   0.930980 0.500000 0.200420 -0.614077
O13   O     O_R   0.000000 0.569020 0.299580 -0.614906
O14   O     O_R   0.000000 0.430980 0.700420 -0.616918
O15   O     O_R   0.430980 0.000000 0.299580 -0.613211
O16   O     O_R   0.569020 0.000000 0.700420 -0.608458
O17   O     O_R   0.000000 0.430980 0.299580 -0.612957
O18   O     O_R   1.000000 0.569020 0.700420 -0.618315
O19   O     O_R   0.569020 0.000000 0.299580 -0.614713
O20   O     O_R   0.430980 0.000000 0.700420 -0.619798
O21   O     O_R   0.597490 0.833170 0.762730 -0.632881
O22   O     O_R   0.402510 0.166830 0.237270 -0.644834
O23   O     O_R   0.166830 0.597490 0.762730 -0.634557
O24   O     O_R   0.833170 0.402510 0.237270 -0.647848
O25   O     O_R   0.402510 0.166830 0.762730 -0.634641
O26   O     O_R   0.597490 0.833170 0.237270 -0.650412
O27   O     O_R   0.833170 0.402510 0.762730 -0.633454
O28   O     O_R   0.166830 0.597490 0.237270 -0.645376
O29   O     O_R   0.597490 0.166830 0.237270 -0.634216
O30   O     O_R   0.402510 0.833170 0.762730 -0.634274
O31   O     O_R   0.166830 0.402510 0.237270 -0.635663
O32   O     O_R   0.833170 0.597490 0.762730 -0.636784
O33   O     O_R   0.402510 0.833170 0.237270 -0.635691
O34   O     O_R   0.597490 0.166830 0.762730 -0.637102
O35   O     O_R   0.833170 0.597490 0.237270 -0.634893
O36   O     O_R   0.166830 0.402510 0.762730 -0.634194
O37   O     O_R   0.097490 0.333170 0.262730 -0.633494
O38   O     O_R   0.902510 0.666830 0.737270 -0.647442
O39   O     O_R   0.666830 0.097490 0.262730 -0.634875
O40   O     O_R   0.333170 0.902510 0.737270 -0.651778
O41   O     O_R   0.902510 0.666830 0.262730 -0.634997
O42   O     O_R   0.097490 0.333170 0.737270 -0.651113
O43   O     O_R   0.333170 0.902510 0.262730 -0.633754
O44   O     O_R   0.666830 0.097490 0.737270 -0.647370
O45   O     O_R   0.097490 0.666830 0.737270 -0.635173
O46   O     O_R   0.902510 0.333170 0.262730 -0.634815
O47   O     O_R   0.666830 0.902510 0.737270 -0.639121
O48   O     O_R   0.333170 0.097490 0.262730 -0.637236
O49   O     O_R   0.902510 0.333170 0.737270 -0.637330
O50   O     O_R   0.097490 0.666830 0.262730 -0.636699
O51   O     O_R   0.333170 0.097490 0.737270 -0.635104
O52   O     O_R   0.666830 0.902510 0.262730 -0.634500
C1    C     C_R   0.500332 0.000557 0.810403 0.878919
C2    C     C_R   0.500697 0.999488 0.189517 0.884682
C3    C     C_R   0.999867 0.500785 0.810410 0.879256
C4    C     C_R   0.999992 0.499115 0.189496 0.882985
C5    C     C_R   0.000251 0.500544 0.310400 0.879307
C6    C     C_R   0.000709 0.499490 0.689532 0.884400
C7    C     C_R   0.499861 0.000787 0.310410 0.879292
C8    C     C_R   0.499950 0.998717 0.689467 0.893034
C9    C     C_R   0.660396 0.839814 0.749976 0.845436
C10   C     C_R   0.339642 0.160217 0.250036 0.833242
C11   C     C_R   0.160315 0.660191 0.750018 0.844320
C12   C     C_R   0.839684 0.339817 0.249981 0.831639
C13   C     C_R   0.339721 0.160453 0.750023 0.850342
C14   C     C_R   0.660269 0.839545 0.249976 0.837801
C15   C     C_R   0.839694 0.339577 0.749981 0.850604
C16   C     C_R   0.160321 0.660399 0.250022 0.837034
C17   C     C_R   0.660317 0.160189 0.250018 0.843525
C18   C     C_R   0.339680 0.839821 0.749982 0.833387
C19   C     C_R   0.160397 0.339816 0.249977 0.844508
C20   C     C_R   0.839638 0.660214 0.750034 0.833186
C21   C     C_R   0.339703 0.839570 0.249987 0.850167
C22   C     C_R   0.660314 0.160407 0.750017 0.841472
C23   C     C_R   0.839720 0.660451 0.250024 0.848979
C24   C     C_R   0.160272 0.339548 0.749975 0.837642
C25   C     C_1   0.723345 0.223443 0.750016 -0.163908
C26   C     C_1   0.276690 0.776502 0.249983 -0.158967
C27   C     C_1   0.776530 0.723307 0.750049 -0.163398
C28   C     C_1   0.223545 0.276750 0.249972 -0.156209
C29   C     C_1   0.276539 0.776720 0.749971 -0.163064
C30   C     C_1   0.723454 0.223304 0.250024 -0.156085
C31   C     C_1   0.223294 0.276484 0.749960 -0.165374
C32   C     C_1   0.776683 0.723511 0.250033 -0.158977
C33   C     C_1   0.723290 0.776480 0.249962 -0.164839
C34   C     C_1   0.276686 0.223515 0.750031 -0.159648
C35   C     C_1   0.776546 0.276714 0.249969 -0.162141
C36   C     C_1   0.223448 0.723309 0.750025 -0.156990
C37   C     C_1   0.276534 0.223311 0.250053 -0.162149
C38   C     C_1   0.723541 0.776747 0.749969 -0.157590
C39   C     C_1   0.223353 0.723436 0.250032 -0.164276
C40   C     C_1   0.776680 0.276509 0.749967 -0.159575
C41   C     C_R   0.516973 0.057488 0.582777 0.581774
C42   C     C_R   0.489869 0.932347 0.416449 0.595723
C43   C     C_R   0.945624 0.508649 0.582072 0.589757
C44   C     C_R   0.087630 0.502915 0.416093 0.591272
C45   C     C_R   0.473794 0.913742 0.581516 0.582777
C46   C     C_R   0.493243 0.082300 0.418336 0.597057
C47   C     C_R   0.092214 0.479146 0.583192 0.575461
C48   C     C_R   0.938667 0.514020 0.418488 0.596866
C49   C     C_R   0.013787 0.562157 0.082784 0.597485
C50   C     C_R   0.991141 0.433333 0.916539 0.595887
C51   C     C_R   0.447966 0.009519 0.082080 0.605483
C52   C     C_R   0.589368 0.004367 0.916071 0.591315
C53   C     C_R   0.978902 0.416196 0.081650 0.598940
C54   C     C_R   0.993405 0.583311 0.918269 0.596932
C55   C     C_R   0.595463 0.985126 0.083286 0.592708
C56   C     C_R   0.440355 0.014448 0.918533 0.596790
O53   O     O_2   0.537767 0.126593 0.594854 -0.578050
O54   O     O_2   0.486604 0.860859 0.404113 -0.576934
O55   O     O_2   0.871985 0.520103 0.592985 -0.583642
O56   O     O_2   0.157820 0.495926 0.403471 -0.577559
O57   O     O_2   0.453378 0.842548 0.592374 -0.572930
O58   O     O_2   0.496572 0.156990 0.407848 -0.565331
O59   O     O_2   0.161952 0.462851 0.595233 -0.574923
O60   O     O_2   0.863330 0.520398 0.408249 -0.573335
O61   O     O_2   0.029642 0.632771 0.094779 -0.574009
O62   O     O_2   0.988243 0.361639 0.904280 -0.576552
O63   O     O_2   0.373954 0.018757 0.092959 -0.589936
O64   O     O_2   0.659513 0.997692 0.903421 -0.577036
O65   O     O_2   0.963026 0.343944 0.092541 -0.571695
O66   O     O_2   0.996179 0.657867 0.907704 -0.565090
O67   O     O_2   0.665583 0.970956 0.095364 -0.584125
O68   O     O_2   0.364897 0.020273 0.908331 -0.573026
N1    N     N_R   0.496387 0.984396 0.593376 -0.304669
N2    N     N_R   0.493367 0.008819 0.406153 -0.300963
N3    N     N_R   0.017042 0.491957 0.593814 -0.301113
N4    N     N_R   0.010668 0.508820 0.406053 -0.298495
N5    N     N_R   0.996943 0.488254 0.093465 -0.298933
N6    N     N_R   0.993980 0.509663 0.906159 -0.301145
N7    N     N_R   0.519756 0.994706 0.093845 -0.289515
N8    N     N_R   0.512285 0.009575 0.906061 -0.298706
C57   C     C_R   0.422079 0.981111 0.629352 0.363295
C58   C     C_R   0.428706 0.042874 0.370004 0.358602
C59   C     C_R   0.019650 0.419172 0.629689 0.367908
C60   C     C_R   0.970959 0.437462 0.370891 0.354877
C61   C     C_R   0.575214 0.988101 0.628930 0.355992
C62   C     C_R   0.567059 0.977348 0.370802 0.357198
C63   C     C_R   0.003411 0.571605 0.629165 0.360233
C64   C     C_R   0.037361 0.575488 0.369866 0.357650
C65   C     C_R   0.923136 0.476469 0.129483 0.355286
C66   C     C_R   0.928897 0.543042 0.870015 0.358858
C67   C     C_R   0.518809 0.919898 0.129473 0.354774
C68   C     C_R   0.472312 0.937746 0.870970 0.354920
C69   C     C_R   0.074344 0.500308 0.128955 0.361635
C70   C     C_R   0.067458 0.477951 0.870788 0.357291
C71   C     C_R   0.507595 0.072398 0.129237 0.343061
C72   C     C_R   0.538361 0.075912 0.869799 0.357890
C73   C     C_R   0.422658 0.980283 0.652771 0.294957
C74   C     C_R   0.431754 0.044296 0.346628 0.306558
C75   C     C_R   0.021247 0.421343 0.653072 0.294326
C76   C     C_R   0.964839 0.436811 0.347535 0.308860
C77   C     C_R   0.575574 0.998092 0.652246 0.302956
C78   C     C_R   0.566255 0.969588 0.347478 0.313466
C79   C     C_R   0.992916 0.572695 0.652361 0.331794
C80   C     C_R   0.040424 0.571039 0.346528 0.310405
C81   C     C_R   0.924394 0.474563 0.152893 0.299441
C82   C     C_R   0.931754 0.544233 0.846635 0.306485
C83   C     C_R   0.519489 0.921209 0.152900 0.293303
C84   C     C_R   0.465800 0.936905 0.847619 0.309125
C85   C     C_R   0.074477 0.509382 0.152272 0.307214
C86   C     C_R   0.066497 0.469960 0.847470 0.313466
C87   C     C_R   0.495814 0.073495 0.152414 0.309447
C88   C     C_R   0.541016 0.071309 0.846459 0.310139
C89   C     C_R   0.498086 0.982611 0.617385 -0.031718
C90   C     C_R   0.497008 0.011134 0.382147 -0.032085
C91   C     C_R   0.014096 0.494291 0.617747 -0.032690
C92   C     C_R   0.005652 0.507501 0.382083 -0.025631
C93   C     C_R   0.998292 0.487021 0.117492 -0.024539
C94   C     C_R   0.997398 0.511657 0.882147 -0.032477
C95   C     C_R   0.516181 0.995547 0.117765 -0.001159
C96   C     C_R   0.507054 0.007941 0.882090 -0.026058
C97   C     C_R   0.494330 0.989200 0.546863 -0.067860
C98   C     C_R   0.490521 0.002113 0.452630 -0.067296
C99   C     C_R   0.025513 0.502181 0.547341 -0.062447
C100  C     C_R   0.021617 0.508674 0.452681 -0.062040
C101  C     C_R   0.995665 0.492110 0.046926 -0.068705
C102  C     C_R   0.991510 0.503631 0.952653 -0.067390
C103  C     C_R   0.528182 0.005496 0.047386 -0.064935
C104  C     C_R   0.523589 0.010058 0.952693 -0.062031
C105  C     C_R   0.516384 0.061138 0.559400 -0.090663
C106  C     C_R   0.489816 0.927693 0.439783 -0.103608
C107  C     C_R   0.948889 0.515404 0.558760 -0.084702
C108  C     C_R   0.094001 0.503522 0.439488 -0.097736
C109  C     C_R   0.472724 0.914800 0.558048 -0.104660
C110  C     C_R   0.490365 0.080258 0.441777 -0.109009
C111  C     C_R   0.097505 0.485205 0.559832 -0.098269
C112  C     C_R   0.942770 0.512101 0.441892 -0.098996
C113  C     C_R   0.014569 0.565083 0.059404 -0.097661
C114  C     C_R   0.991388 0.429032 0.939879 -0.104002
C115  C     C_R   0.451184 0.016653 0.058780 -0.088814
C116  C     C_R   0.595913 0.005372 0.939468 -0.097894
C117  C     C_R   0.977163 0.417061 0.058185 -0.103523
C118  C     C_R   0.990625 0.581593 0.941714 -0.109193
C119  C     C_R   0.600634 0.991045 0.059919 -0.096009
C120  C     C_R   0.444646 0.012733 0.941936 -0.099049
C121  C     C_R   0.540608 0.134332 0.548446 -0.295618
C122  C     C_R   0.493167 0.850153 0.450391 -0.280060
C123  C     C_R   0.878819 0.542806 0.547118 -0.328884
C124  C     C_R   0.171450 0.496805 0.449697 -0.277176
C125  C     C_R   0.448793 0.843813 0.545656 -0.272957
C126  C     C_R   0.484313 0.154253 0.454494 -0.273537
C127  C     C_R   0.174525 0.481276 0.549166 -0.284104
C128  C     C_R   0.869458 0.507400 0.454466 -0.299131
C129  C     C_R   0.037297 0.638626 0.048396 -0.293972
C130  C     C_R   0.995572 0.351691 0.950555 -0.279282
C131  C     C_R   0.380483 0.042264 0.047114 -0.329238
C132  C     C_R   0.673480 0.999373 0.949650 -0.277224
C133  C     C_R   0.955023 0.345312 0.045877 -0.276729
C134  C     C_R   0.984023 0.655725 0.954345 -0.272778
C135  C     C_R   0.677641 0.988350 0.049235 -0.283641
C136  C     C_R   0.371461 0.007401 0.954538 -0.299938
C137  C     C_R   0.499407 0.992645 0.664567 -0.385752
C138  C     C_R   0.499291 0.004768 0.335117 -0.384941
C139  C     C_R   0.004549 0.497864 0.664732 -0.399865
C140  C     C_R   0.002033 0.502511 0.335098 -0.384107
C141  C     C_R   0.999628 0.494644 0.164633 -0.389235
C142  C     C_R   0.999348 0.504840 0.835117 -0.385128
C143  C     C_R   0.504897 0.998023 0.164697 -0.387181
C144  C     C_R   0.502577 0.002619 0.835103 -0.384125
H1    H     H_    0.560418 0.188837 0.558007 0.198157
H2    H     H_    0.496921 0.792269 0.440729 0.200702
H3    H     H_    0.822161 0.556757 0.556383 0.194326
H4    H     H_    0.227283 0.487958 0.439514 0.203011
H5    H     H_    0.429389 0.786760 0.553989 0.201523
H6    H     H_    0.477666 0.214721 0.446476 0.203050
H7    H     H_    0.230924 0.478333 0.559256 0.198860
H8    H     H_    0.808673 0.505959 0.446319 0.197221
H9    H     H_    0.055476 0.693892 0.057887 0.198269
H10   H     H_    0.999700 0.293716 0.940942 0.200520
H11   H     H_    0.323306 0.054677 0.056316 0.193891
H12   H     H_    0.729274 0.990648 0.939445 0.202940
H13   H     H_    0.937498 0.287798 0.054275 0.201190
H14   H     H_    0.976987 0.716015 0.946258 0.203058
H15   H     H_    0.734236 0.986933 0.059284 0.199119
H16   H     H_    0.310679 0.005514 0.946401 0.197058
C145  C     C_R   0.995800 0.576254 0.988905 -0.048412
C146  C     C_R   0.979838 0.419165 0.010787 -0.056074
C147  C     C_R   0.453275 0.012889 0.988838 -0.009965
C148  C     C_R   0.611706 0.002868 0.011992 -0.022639
C149  C     C_R   0.990627 0.420896 0.987133 -0.055256
C150  C     C_R   0.009943 0.572005 0.012288 -0.039345
C151  C     C_R   0.610484 0.006382 0.987497 -0.031262
C152  C     C_R   0.456132 0.025562 0.012109 -0.011246
C153  C     C_R   0.495547 0.074116 0.488950 -0.047948
C154  C     C_R   0.477143 0.917090 0.510658 -0.056114
C155  C     C_R   0.951127 0.512018 0.488803 -0.009463
C156  C     C_R   0.109201 0.499377 0.511987 -0.020779
C157  C     C_R   0.488460 0.918934 0.487023 -0.055259
C158  C     C_R   0.510034 0.069323 0.512309 -0.037706
C159  C     C_R   0.108222 0.503703 0.487511 -0.031176
C160  C     C_R   0.954018 0.524407 0.512083 -0.011121
C161  C     C_R   0.992482 0.500222 0.976312 -0.051437
C162  C     C_R   0.995077 0.494384 0.023261 -0.053170
C163  C     C_R   0.529586 0.010457 0.976487 -0.061470
C164  C     C_R   0.532360 0.010424 0.023675 -0.065119
C165  C     C_R   0.491349 0.998347 0.476279 -0.052085
C166  C     C_R   0.493734 0.991842 0.523209 -0.053948
C167  C     C_R   0.027460 0.508788 0.476475 -0.061775
C168  C     C_R   0.029896 0.507708 0.523650 -0.066065
C169  C     C_R   0.980932 0.653273 0.977579 0.530915
C170  C     C_R   0.951704 0.346739 0.022614 0.508905
C171  C     C_R   0.375613 0.996925 0.977587 0.528758
C172  C     C_R   0.685705 0.994038 0.025998 0.493824
C173  C     C_R   0.002108 0.347348 0.973662 0.528299
C174  C     C_R   0.041701 0.640995 0.025096 0.510233
C175  C     C_R   0.683114 0.002650 0.972833 0.484247
C176  C     C_R   0.384984 0.056917 0.024128 0.563697
C177  C     C_R   0.481203 0.151424 0.477728 0.533134
C178  C     C_R   0.447190 0.845128 0.522376 0.506922
C179  C     C_R   0.873369 0.497075 0.477519 0.528169
C180  C     C_R   0.182978 0.488926 0.525979 0.494671
C181  C     C_R   0.499369 0.845449 0.473503 0.528460
C182  C     C_R   0.543574 0.137487 0.525120 0.509550
C183  C     C_R   0.180924 0.499707 0.472883 0.484342
C184  C     C_R   0.883347 0.556916 0.524098 0.563450
O69   O     O_3   0.652092 0.007533 0.662983 -0.587146
C185  C     C_3   0.674037 0.093827 0.663201 0.156520
H17   H     H_    0.625751 0.131413 0.672434 0.118045
H18   H     H_    0.679896 0.118275 0.645928 0.172250
C186  C     C_3   0.758915 0.104605 0.674872 -0.326417
H19   H     H_    0.754488 0.079572 0.692063 0.251252
H20   H     H_    0.807747 0.068124 0.665643 0.225130
C187  C     C_3   0.785462 0.197001 0.676032 -0.949107
H21   H     H_    0.790837 0.223330 0.659015 0.257911
H22   H     H_    0.847700 0.202423 0.684352 0.287297
H23   H     H_    0.738728 0.234234 0.685774 0.263362
O70   O     O_3   0.633762 0.930745 0.336954 -0.596077
C188  C     C_3   0.611860 0.847200 0.330724 0.139825
H24   H     H_    0.647562 0.831411 0.315305 0.166616
H25   H     H_    0.543786 0.839030 0.326543 0.091726
C189  C     C_3   0.637096 0.785251 0.348939 -0.310661
H26   H     H_    0.704221 0.795528 0.353495 0.240649
H27   H     H_    0.597574 0.796183 0.363972 0.267998
C190  C     C_3   0.625309 0.694135 0.341204 -0.980435
H28   H     H_    0.558300 0.682202 0.336854 0.269391
H29   H     H_    0.643586 0.650931 0.354793 0.281612
H30   H     H_    0.665581 0.680590 0.326448 0.262347
O71   O     O_3   0.978137 0.649411 0.662826 -0.589043
C191  C     C_3   0.891416 0.657426 0.668131 0.162946
H31   H     H_    0.887102 0.691811 0.684304 0.177572
H32   H     H_    0.858452 0.595944 0.670550 0.090764
C192  C     C_3   0.845769 0.708835 0.650411 -0.336739
H33   H     H_    0.880947 0.768205 0.647326 0.243929
H34   H     H_    0.842882 0.672039 0.634601 0.261402
C193  C     C_3   0.756166 0.730324 0.657792 -0.967770
H35   H     H_    0.719556 0.671793 0.660744 0.265656
H36   H     H_    0.724223 0.766881 0.644638 0.273828
H37   H     H_    0.757254 0.768994 0.673311 0.276797
O72   O     O_3   0.077448 0.636821 0.335085 -0.594946
C194  C     C_3   0.159666 0.613771 0.328092 0.138622
H38   H     H_    0.172872 0.647493 0.312334 0.166684
H39   H     H_    0.166532 0.545202 0.324190 0.091150
C195  C     C_3   0.225121 0.640890 0.345481 -0.310091
H40   H     H_    0.216349 0.708650 0.349704 0.242359
H41   H     H_    0.216463 0.603549 0.360862 0.265390
C196  C     C_3   0.314700 0.627301 0.336888 -0.980397
H42   H     H_    0.325187 0.559659 0.332868 0.269230
H43   H     H_    0.360525 0.647095 0.349884 0.281510
H44   H     H_    0.325970 0.665371 0.321745 0.262140
O73   O     O_3   0.346317 0.973595 0.663832 -0.600968
C197  C     C_3   0.332466 0.889000 0.670257 0.170470
H45   H     H_    0.296917 0.890767 0.686217 0.180216
H46   H     H_    0.391745 0.853476 0.673615 0.093295
C198  C     C_3   0.279360 0.841910 0.652841 -0.348894
H47   H     H_    0.223180 0.880159 0.648538 0.247219
H48   H     H_    0.317382 0.831585 0.637516 0.261344
C199  C     C_3   0.250304 0.756502 0.661460 -0.959233
H49   H     H_    0.305537 0.716982 0.665742 0.263930
H50   H     H_    0.213144 0.723371 0.648410 0.274936
H51   H     H_    0.209893 0.764845 0.676445 0.278545
O74   O     O_3   0.365256 0.080187 0.335238 -0.596005
C200  C     C_3   0.387919 0.161817 0.327974 0.137684
H52   H     H_    0.353538 0.173449 0.312199 0.167830
H53   H     H_    0.456356 0.168660 0.324010 0.089416
C201  C     C_3   0.361328 0.228624 0.345182 -0.311727
H54   H     H_    0.293752 0.219810 0.349494 0.242914
H55   H     H_    0.399377 0.221565 0.360554 0.261447
C202  C     C_3   0.374228 0.317466 0.336301 -0.981009
H56   H     H_    0.441681 0.328020 0.332183 0.268482
H57   H     H_    0.354836 0.364300 0.349172 0.282277
H58   H     H_    0.335433 0.327128 0.321161 0.262449
O75   O     O_3   0.034401 0.346648 0.664262 -0.602746
C203  C     C_3   0.120147 0.340237 0.670606 0.170782
H59   H     H_    0.121896 0.307860 0.686920 0.177592
H60   H     H_    0.151886 0.402424 0.673212 0.093432
C204  C     C_3   0.169435 0.287159 0.653612 -0.349639
H61   H     H_    0.135566 0.226854 0.650511 0.236496
H62   H     H_    0.174378 0.321718 0.637678 0.267796
C205  C     C_3   0.258195 0.268112 0.661874 -0.964685
H63   H     H_    0.293037 0.327611 0.665238 0.267497
H64   H     H_    0.292909 0.231568 0.648956 0.267500
H65   H     H_    0.255447 0.230384 0.677342 0.275204
O76   O     O_3   0.926263 0.368909 0.337063 -0.598056
C206  C     C_3   0.843445 0.390925 0.330550 0.138485
H66   H     H_    0.828633 0.354385 0.315166 0.167325
H67   H     H_    0.836264 0.458753 0.326200 0.090558
C207  C     C_3   0.779725 0.367177 0.348646 -0.313796
H68   H     H_    0.788973 0.300284 0.353352 0.241016
H69   H     H_    0.789833 0.407465 0.363633 0.262220
C208  C     C_3   0.689332 0.379101 0.340649 -0.980559
H70   H     H_    0.678397 0.445900 0.336147 0.269026
H71   H     H_    0.644812 0.361885 0.354154 0.281716
H72   H     H_    0.676619 0.338096 0.325933 0.262453
O77   O     O_3   0.149729 0.528433 0.162819 -0.598327
C209  C     C_3   0.154434 0.616114 0.167394 0.165957
H73   H     H_    0.181951 0.624066 0.184290 0.173758
H74   H     H_    0.091977 0.648572 0.167818 0.093212
C210  C     C_3   0.212608 0.659003 0.150574 -0.332350
H75   H     H_    0.273428 0.624509 0.149692 0.233446
H76   H     H_    0.183014 0.657513 0.133838 0.272930
C211  C     C_3   0.229699 0.750596 0.157079 -0.971897
H77   H     H_    0.169668 0.786331 0.158094 0.270431
H78   H     H_    0.270607 0.780137 0.144319 0.268043
H79   H     H_    0.262272 0.754111 0.173421 0.273154
O78   O     O_3   0.134051 0.431219 0.836940 -0.595947
C212  C     C_3   0.112338 0.347572 0.830763 0.139884
H80   H     H_    0.148030 0.331746 0.815345 0.166663
H81   H     H_    0.044271 0.339201 0.826601 0.091687
C213  C     C_3   0.137788 0.285838 0.849008 -0.310661
H82   H     H_    0.204902 0.296317 0.853542 0.240653
H83   H     H_    0.098288 0.296796 0.864044 0.268008
C214  C     C_3   0.126200 0.194633 0.841327 -0.980723
H84   H     H_    0.059206 0.182501 0.836998 0.269287
H85   H     H_    0.144624 0.151587 0.854938 0.281613
H86   H     H_    0.166459 0.181065 0.826571 0.262335
O79   O     O_3   0.480385 0.150025 0.162899 -0.598051
C215  C     C_3   0.392888 0.158816 0.167127 0.165645
H87   H     H_    0.385928 0.198491 0.182368 0.176235
H88   H     H_    0.360590 0.097898 0.170741 0.095272
C216  C     C_3   0.349077 0.203186 0.147790 -0.338465
H89   H     H_    0.383788 0.261973 0.143779 0.240816
H90   H     H_    0.349186 0.161410 0.132848 0.266024
C217  C     C_3   0.257949 0.225003 0.153563 -0.980590
H91   H     H_    0.222390 0.167172 0.157961 0.270553
H92   H     H_    0.227231 0.254258 0.138965 0.268288
H93   H     H_    0.255718 0.270259 0.167781 0.274798
O80   O     O_3   0.577650 0.137126 0.834945 -0.594808
C218  C     C_3   0.659826 0.114279 0.827869 0.138767
H94   H     H_    0.672648 0.147887 0.812073 0.166620
H95   H     H_    0.666857 0.045696 0.824007 0.090868
C219  C     C_3   0.725482 0.141792 0.845162 -0.309855
H96   H     H_    0.716540 0.209559 0.849351 0.242378
H97   H     H_    0.717221 0.104569 0.860578 0.265328
C220  C     C_3   0.814961 0.128440 0.836471 -0.981360
H98   H     H_    0.825620 0.060800 0.832481 0.269186
H99   H     H_    0.860940 0.148517 0.849399 0.281399
H100  H     H_    0.825830 0.166406 0.821289 0.262057
O81   O     O_3   0.849789 0.458155 0.164051 -0.599110
C221  C     C_3   0.846590 0.372226 0.170201 0.167081
H101  H     H_    0.811909 0.368855 0.186262 0.177251
H102  H     H_    0.909891 0.343906 0.173238 0.090144
C222  C     C_3   0.798575 0.320111 0.152736 -0.342998
H103  H     H_    0.737429 0.351037 0.149066 0.238182
H104  H     H_    0.836083 0.316331 0.137130 0.266304
C223  C     C_3   0.781856 0.230788 0.160811 -0.972561
H105  H     H_    0.842170 0.198789 0.164714 0.268379
H106  H     H_    0.749059 0.194160 0.147570 0.267386
H107  H     H_    0.741344 0.232168 0.175919 0.274699
O82   O     O_3   0.865039 0.579766 0.835255 -0.596064
C224  C     C_3   0.887295 0.661453 0.827951 0.138205
H108  H     H_    0.852940 0.672753 0.812154 0.168076
H109  H     H_    0.955717 0.668653 0.824011 0.089164
C225  C     C_3   0.860228 0.728251 0.845107 -0.311644
H110  H     H_    0.792704 0.719032 0.849417 0.242785
H111  H     H_    0.898299 0.721602 0.860489 0.261678
C226  C     C_3   0.872546 0.817084 0.836165 -0.981535
H112  H     H_    0.939932 0.828043 0.832044 0.268385
H113  H     H_    0.852834 0.863916 0.849003 0.282346
H114  H     H_    0.833701 0.826336 0.821016 0.262412
O83   O     O_3   0.529724 0.845871 0.163991 -0.605227
C227  C     C_3   0.615446 0.835265 0.169943 0.167908
H115  H     H_    0.616573 0.803056 0.186285 0.179424
H116  H     H_    0.650387 0.895828 0.172351 0.093460
C228  C     C_3   0.660987 0.779548 0.152780 -0.343724
H117  H     H_    0.623259 0.721659 0.149582 0.237456
H118  H     H_    0.668020 0.814174 0.136912 0.267331
C229  C     C_3   0.748437 0.754480 0.160878 -0.965216
H119  H     H_    0.787208 0.811480 0.164260 0.267618
H120  H     H_    0.780368 0.715918 0.147858 0.267562
H121  H     H_    0.743493 0.716706 0.176300 0.275339
O84   O     O_3   0.427232 0.868827 0.837226 -0.598084
C230  C     C_3   0.344245 0.890567 0.830797 0.138668
H122  H     H_    0.329313 0.853935 0.815436 0.167318
H123  H     H_    0.336776 0.958359 0.826441 0.090505
C231  C     C_3   0.280883 0.866674 0.848966 -0.313846
H124  H     H_    0.290456 0.799843 0.853688 0.240898
H125  H     H_    0.291055 0.907083 0.863928 0.262442
C232  C     C_3   0.190328 0.878210 0.841057 -0.980574
H126  H     H_    0.179074 0.944939 0.836538 0.268916
H127  H     H_    0.146075 0.860911 0.854616 0.281847
H128  H     H_    0.177552 0.837068 0.826371 0.262441
O85   O     O_3   0.651343 0.991102 0.617616 -0.607833
C233  C     C_3   0.670302 0.911062 0.608331 0.140547
H129  H     H_    0.644409 0.906987 0.591188 0.146056
H130  H     H_    0.644419 0.857942 0.618330 0.128869
C234  C     C_3   0.765960 0.901010 0.606985 -0.346165
H131  H     H_    0.793444 0.954732 0.597698 0.230112
H132  H     H_    0.792595 0.901659 0.624097 0.235138
C235  C     C_3   0.790436 0.818814 0.595234 -0.957031
H133  H     H_    0.762845 0.763989 0.603984 0.278212
H134  H     H_    0.860083 0.812249 0.595152 0.272750
H135  H     H_    0.767806 0.818725 0.577736 0.259380
O86   O     O_3   0.633271 0.944052 0.382727 -0.608433
C236  C     C_3   0.693712 0.007889 0.386371 0.103809
H136  H     H_    0.665221 0.063113 0.395186 0.142779
H137  H     H_    0.721135 0.028648 0.370223 0.168658
C237  C     C_3   0.764130 0.972729 0.400864 -0.318081
H138  H     H_    0.737396 0.952616 0.417099 0.225250
H139  H     H_    0.792299 0.916740 0.392466 0.232945
C238  C     C_3   0.832899 0.038209 0.405051 -0.984709
H140  H     H_    0.862607 0.056884 0.389075 0.275658
H141  H     H_    0.882142 0.011160 0.415950 0.271816
H142  H     H_    0.806158 0.094840 0.413450 0.266941
O87   O     O_3   0.996346 0.646770 0.617780 -0.614663
C239  C     C_3   0.075401 0.670416 0.608834 0.135562
H143  H     H_    0.079262 0.648271 0.591267 0.144988
H144  H     H_    0.130066 0.644497 0.618256 0.133410
C240  C     C_3   0.082356 0.766404 0.609076 -0.359636
H145  H     H_    0.027593 0.793726 0.600189 0.226195
H146  H     H_    0.081315 0.789775 0.626589 0.238211
C241  C     C_3   0.163527 0.795603 0.597813 -0.932051
H147  H     H_    0.219346 0.768974 0.606342 0.281855
H148  H     H_    0.167555 0.865330 0.598616 0.267823
H149  H     H_    0.164296 0.775434 0.580041 0.264408
O88   O     O_3   0.071042 0.644398 0.380924 -0.608406
C242  C     C_3   0.006526 0.704322 0.384268 0.104705
H150  H     H_    0.950686 0.675782 0.392641 0.147392
H151  H     H_    0.986781 0.731096 0.368011 0.171094
C243  C     C_3   0.039986 0.775360 0.399139 -0.321591
H152  H     H_    0.059994 0.749006 0.415377 0.228180
H153  H     H_    0.095746 0.804647 0.391078 0.232678
C244  C     C_3   0.973025 0.842650 0.403268 -0.983494
H154  H     H_    0.954573 0.872264 0.387324 0.274699
H155  H     H_    0.998589 0.892189 0.414550 0.272492
H156  H     H_    0.916450 0.814608 0.411230 0.269427
O89   O     O_3   0.346539 0.976085 0.617977 -0.610926
C245  C     C_3   0.314255 0.058252 0.615478 0.111612
H157  H     H_    0.360635 0.099479 0.606841 0.151786
H158  H     H_    0.298421 0.086371 0.632028 0.168792
C246  C     C_3   0.234045 0.053775 0.601492 -0.356871
H159  H     H_    0.248112 0.022157 0.585304 0.231582
H160  H     H_    0.185817 0.016028 0.610412 0.223454
C247  C     C_3   0.198664 0.141367 0.597081 -0.939154
H161  H     H_    0.182846 0.173658 0.613016 0.272712
H162  H     H_    0.140449 0.135763 0.586944 0.261323
H163  H     H_    0.245251 0.179859 0.587807 0.273235
O90   O     O_3   0.360698 0.077601 0.381147 -0.604756
C248  C     C_3   0.299515 0.014317 0.384389 0.108204
H164  H     H_    0.327481 0.956903 0.391968 0.142305
H165  H     H_    0.269790 0.996954 0.368189 0.173871
C249  C     C_3   0.231893 0.048362 0.400184 -0.321534
H166  H     H_    0.261359 0.065854 0.416373 0.227239
H167  H     H_    0.203380 0.105799 0.392949 0.233325
C250  C     C_3   0.162934 0.983218 0.404215 -0.990362
H168  H     H_    0.130260 0.967489 0.388365 0.276533
H169  H     H_    0.116074 0.009123 0.416185 0.272842
H170  H     H_    0.190187 0.924996 0.411335 0.269136
O91   O     O_3   0.029097 0.343553 0.618344 -0.611054
C251  C     C_3   0.949654 0.303699 0.616929 0.114072
H171  H     H_    0.905142 0.342743 0.607088 0.153917
H172  H     H_    0.922638 0.292934 0.633821 0.167945
C252  C     C_3   0.960071 0.218388 0.605266 -0.347631
H173  H     H_    0.985663 0.228017 0.588231 0.228342
H174  H     H_    0.005562 0.179447 0.614728 0.232941
C253  C     C_3   0.876233 0.171434 0.603628 -0.944249
H175  H     H_    0.850609 0.159118 0.620519 0.271907
H176  H     H_    0.885883 0.110143 0.594933 0.262274
H177  H     H_    0.829880 0.208872 0.594065 0.269372
O92   O     O_3   0.936370 0.372435 0.383000 -0.609099
C254  C     C_3   0.998350 0.310122 0.386131 0.107407
H178  H     H_    0.057152 0.337551 0.393346 0.143727
H179  H     H_    0.013369 0.278472 0.369967 0.173832
C255  C     C_3   0.963995 0.244828 0.402308 -0.324304
H180  H     H_    0.949130 0.276124 0.418491 0.225533
H181  H     H_    0.904919 0.217287 0.395473 0.232788
C256  C     C_3   0.027420 0.174455 0.406206 -0.987084
H182  H     H_    0.040926 0.140414 0.390349 0.276735
H183  H     H_    0.001032 0.129041 0.418312 0.271251
H184  H     H_    0.086986 0.200609 0.413097 0.269725
O93   O     O_3   0.148106 0.511654 0.117089 -0.609735
C257  C     C_3   0.187262 0.432646 0.114036 0.097617
H185  H     H_    0.142940 0.385708 0.106549 0.146917
H186  H     H_    0.210483 0.408865 0.130295 0.169494
C258  C     C_3   0.262128 0.442986 0.098261 -0.335866
H187  H     H_    0.239691 0.468877 0.082191 0.226939
H188  H     H_    0.307942 0.488221 0.105675 0.230822
C259  C     C_3   0.306252 0.359098 0.093823 -0.960417
H189  H     H_    0.330985 0.333043 0.109590 0.274524
H190  H     H_    0.359888 0.368793 0.082222 0.262983
H191  H     H_    0.261838 0.313146 0.086146 0.268948
O94   O     O_3   0.133846 0.444916 0.882696 -0.608158
C260  C     C_3   0.194142 0.508929 0.886287 0.103967
H192  H     H_    0.165606 0.564021 0.895148 0.142476
H193  H     H_    0.221240 0.529840 0.870113 0.168489
C261  C     C_3   0.264911 0.473924 0.900687 -0.317979
H194  H     H_    0.238513 0.453672 0.916948 0.225108
H195  H     H_    0.293100 0.418046 0.892242 0.232978
C262  C     C_3   0.333563 0.539581 0.904811 -0.984571
H196  H     H_    0.362897 0.558457 0.888805 0.275542
H197  H     H_    0.383109 0.512603 0.915627 0.271821
H198  H     H_    0.306812 0.596070 0.913275 0.266678
O95   O     O_3   0.503712 0.146405 0.117348 -0.617479
C263  C     C_3   0.585479 0.181226 0.115841 0.099617
H199  H     H_    0.634631 0.132296 0.112651 0.153562
H200  H     H_    0.600683 0.215274 0.131619 0.175388
C264  C     C_3   0.587652 0.243336 0.096561 -0.352832
H201  H     H_    0.569095 0.210112 0.080925 0.229055
H202  H     H_    0.541731 0.294847 0.099813 0.229419
C265  C     C_3   0.675377 0.281165 0.093500 -0.933984
H203  H     H_    0.695103 0.315394 0.108837 0.272898
H204  H     H_    0.674548 0.326217 0.079474 0.263086
H205  H     H_    0.721887 0.230851 0.089628 0.277425
O96   O     O_3   0.571914 0.145060 0.880780 -0.608155
C266  C     C_3   0.507188 0.204739 0.884154 0.104702
H206  H     H_    0.451484 0.176001 0.892543 0.147147
H207  H     H_    0.487270 0.231452 0.867905 0.171229
C267  C     C_3   0.540454 0.275878 0.899021 -0.321596
H208  H     H_    0.560581 0.249584 0.915255 0.228127
H209  H     H_    0.596103 0.305337 0.890952 0.232718
C268  C     C_3   0.473286 0.342957 0.903160 -0.983734
H210  H     H_    0.454731 0.372530 0.887218 0.274612
H211  H     H_    0.498703 0.392564 0.914444 0.272496
H212  H     H_    0.416803 0.314732 0.911122 0.269388
O97   O     O_3   0.848555 0.462939 0.118142 -0.611074
C269  C     C_3   0.806566 0.540688 0.115964 0.105525
H213  H     H_    0.847775 0.587981 0.107665 0.146314
H214  H     H_    0.786947 0.565295 0.132618 0.172163
C270  C     C_3   0.727978 0.527394 0.101707 -0.338471
H215  H     H_    0.746698 0.501588 0.085143 0.227890
H216  H     H_    0.685722 0.481092 0.109885 0.230336
C271  C     C_3   0.680195 0.609716 0.098491 -0.957185
H217  H     H_    0.659136 0.635560 0.114823 0.269109
H218  H     H_    0.623878 0.597933 0.087963 0.261173
H219  H     H_    0.720932 0.656754 0.090106 0.274815
O98   O     O_3   0.860878 0.577696 0.881167 -0.604702
C272  C     C_3   0.799923 0.514272 0.884506 0.108027
H220  H     H_    0.828137 0.457017 0.892106 0.142040
H221  H     H_    0.770058 0.496664 0.868343 0.173903
C273  C     C_3   0.732407 0.548309 0.900334 -0.321396
H222  H     H_    0.761988 0.565840 0.916505 0.227098
H223  H     H_    0.703826 0.605723 0.893106 0.233415
C274  C     C_3   0.663498 0.483152 0.904405 -0.990631
H224  H     H_    0.630673 0.467462 0.888574 0.276525
H225  H     H_    0.616750 0.509034 0.916409 0.272732
H226  H     H_    0.690827 0.424918 0.911497 0.269201
O99   O     O_3   0.525749 0.844808 0.117759 -0.617743
C275  C     C_3   0.445697 0.805949 0.116821 0.102943
H227  H     H_    0.395833 0.851199 0.111623 0.153251
H228  H     H_    0.429099 0.779780 0.133391 0.181949
C276  C     C_3   0.448462 0.734042 0.099743 -0.339027
H229  H     H_    0.463237 0.759996 0.083052 0.229674
H230  H     H_    0.498984 0.689048 0.104313 0.232921
C277  C     C_3   0.364554 0.687069 0.098645 -0.968397
H231  H     H_    0.351280 0.656377 0.114801 0.269563
H232  H     H_    0.367517 0.637634 0.085456 0.262790
H233  H     H_    0.312469 0.731089 0.094696 0.276711
O100  O     O_3   0.437864 0.872839 0.883150 -0.608945
C278  C     C_3   0.499926 0.810657 0.886332 0.107306
H234  H     H_    0.558662 0.838242 0.893543 0.143290
H235  H     H_    0.515033 0.778884 0.870189 0.173620
C279  C     C_3   0.465588 0.745477 0.902543 -0.324094
H236  H     H_    0.450814 0.776872 0.918718 0.225293
H237  H     H_    0.406459 0.717962 0.895735 0.232940
C280  C     C_3   0.528948 0.675059 0.906447 -0.987047
H238  H     H_    0.542326 0.640916 0.890598 0.276745
H239  H     H_    0.502560 0.629741 0.918579 0.270985
H240  H     H_    0.588576 0.701184 0.913308 0.269640
O101  O     O_3   0.957585 0.726280 0.988746 -0.614712
C281  C     C_3   0.871192 0.722232 0.994630 0.059274
H241  H     H_    0.863163 0.758097 0.010454 0.163650
H242  H     H_    0.848332 0.657050 0.998037 0.120768
C282  C     C_3   0.817003 0.762853 0.976557 -0.374859
H243  H     H_    0.841928 0.826552 0.972778 0.247878
H244  H     H_    0.820015 0.724097 0.961074 0.218091
C283  C     C_3   0.725054 0.770349 0.983814 -0.905336
H245  H     H_    0.698321 0.706982 0.987105 0.252282
H246  H     H_    0.687914 0.800215 0.970378 0.273282
H247  H     H_    0.719550 0.809907 0.999100 0.259654
O102  O     O_3   0.917492 0.277253 0.011897 -0.607350
C284  C     C_3   0.829154 0.286365 0.009757 0.068579
H248  H     H_    0.811676 0.261808 0.992995 0.166592
H249  H     H_    0.806940 0.353103 0.010520 0.112748
C285  C     C_3   0.783856 0.233910 0.027451 -0.363513
H250  H     H_    0.812519 0.170192 0.028133 0.262330
H251  H     H_    0.791277 0.264540 0.044040 0.214106
C286  C     C_3   0.690018 0.224894 0.022439 -0.912623
H252  H     H_    0.659892 0.287890 0.021664 0.253931
H253  H     H_    0.659133 0.188174 0.035833 0.271471
H254  H     H_    0.680610 0.191093 0.006340 0.264073
O103  O     O_3   0.304458 0.972604 0.989576 -0.619290
C287  C     C_3   0.260516 0.904024 0.979658 0.048086
H255  H     H_    0.257643 0.852852 0.991994 0.162000
H256  H     H_    0.291632 0.875494 0.964735 0.125342
C288  C     C_3   0.170537 0.931230 0.974097 -0.357661
H257  H     H_    0.139091 0.955491 0.989416 0.228345
H258  H     H_    0.172300 0.982861 0.961763 0.220691
C289  C     C_3   0.118946 0.858059 0.964625 -0.894879
H259  H     H_    0.147746 0.834282 0.948910 0.263743
H260  H     H_    0.053877 0.879587 0.961048 0.269422
H261  H     H_    0.115607 0.806027 0.976801 0.301858
O104  O     O_3   0.766470 0.009242 0.018548 -0.626041
C290  C     C_3   0.823562 0.943225 0.023798 0.103815
H262  H     H_    0.839051 0.908354 0.008285 0.203487
H263  H     H_    0.798962 0.895193 0.035576 0.104213
C291  C     C_3   0.904971 0.981618 0.032968 -0.376184
H264  H     H_    0.928061 0.031041 0.021457 0.240080
H265  H     H_    0.892165 0.011618 0.049424 0.225051
C292  C     C_3   0.973532 0.915108 0.035504 -0.940482
H266  H     H_    0.952419 0.864904 0.047006 0.273705
H267  H     H_    0.031267 0.945010 0.042407 0.261626
H268  H     H_    0.989169 0.886462 0.019048 0.294559
O105  O     O_3   0.025274 0.270839 0.982439 -0.612590
C293  C     C_3   0.113989 0.266398 0.984269 0.064691
H269  H     H_    0.127076 0.217713 0.996776 0.184942
H270  H     H_    0.142600 0.326073 0.990706 0.114762
C294  C     C_3   0.155245 0.239326 0.962128 -0.413839
H271  H     H_    0.116772 0.189376 0.953980 0.246107
H272  H     H_    0.158693 0.294159 0.950814 0.224051
C295  C     C_3   0.244185 0.205559 0.965541 -0.896178
H273  H     H_    0.283576 0.252718 0.974515 0.261869
H274  H     H_    0.273630 0.191689 0.949119 0.269992
H275  H     H_    0.241818 0.146268 0.975159 0.301853
O106  O     O_3   0.079352 0.709543 0.014843 -0.611001
C296  C     C_3   0.164108 0.720613 0.021857 0.056270
H276  H     H_    0.204570 0.719992 0.006751 0.145179
H277  H     H_    0.188533 0.669354 0.032689 0.129101
C297  C     C_3   0.174006 0.806097 0.033688 -0.354727
H278  H     H_    0.156886 0.857298 0.022094 0.233910
H279  H     H_    0.130679 0.810128 0.048169 0.228675
C298  C     C_3   0.263994 0.819926 0.041939 -0.924539
H280  H     H_    0.280745 0.771376 0.054347 0.266249
H281  H     H_    0.269060 0.882982 0.049996 0.276219
H282  H     H_    0.309491 0.816699 0.027897 0.260270
O107  O     O_3   0.763891 0.988489 0.980060 -0.627644
C299  C     C_3   0.819903 0.054375 0.973865 0.120749
H283  H     H_    0.832866 0.094419 0.988735 0.207132
H284  H     H_    0.795481 0.097485 0.960820 0.107746
C300  C     C_3   0.902540 0.015232 0.965723 -0.389617
H285  H     H_    0.924949 0.968246 0.977953 0.233824
H286  H     H_    0.891564 0.982187 0.949584 0.223922
C301  C     C_3   0.970937 0.081645 0.962772 -0.900326
H287  H     H_    0.949257 0.131960 0.951418 0.274419
H288  H     H_    0.028104 0.051846 0.955534 0.254934
H289  H     H_    0.987612 0.109664 0.979196 0.302449
O108  O     O_3   0.324524 0.103391 0.012517 -0.622668
C302  C     C_3   0.268325 0.151779 0.025776 0.071120
H290  H     H_    0.252564 0.209037 0.016242 0.147885
H291  H     H_    0.297026 0.176984 0.041369 0.129125
C303  C     C_3   0.186483 0.102444 0.029898 -0.351533
H292  H     H_    0.155481 0.088459 0.013709 0.226940
H293  H     H_    0.200058 0.041028 0.037777 0.226462
C304  C     C_3   0.125866 0.152101 0.044781 -0.931382
H294  H     H_    0.154353 0.162928 0.061451 0.271817
H295  H     H_    0.066464 0.115934 0.046856 0.273026
H296  H     H_    0.110612 0.213832 0.037256 0.265401
O109  O     O_3   0.458049 0.224284 0.488994 -0.614811
C305  C     C_3   0.371743 0.220119 0.494970 0.059046
H297  H     H_    0.363786 0.256479 0.510716 0.163503
H298  H     H_    0.349235 0.154975 0.498567 0.121497
C306  C     C_3   0.317075 0.259848 0.476853 -0.376190
H299  H     H_    0.341488 0.323615 0.472934 0.247151
H300  H     H_    0.320209 0.220706 0.461439 0.218330
C307  C     C_3   0.225134 0.266829 0.484150 -0.904643
H301  H     H_    0.198878 0.203337 0.487533 0.252329
H302  H     H_    0.187679 0.296196 0.470698 0.273264
H303  H     H_    0.219453 0.306603 0.499390 0.259611
O110  O     O_3   0.413474 0.775736 0.511513 -0.607550
C308  C     C_3   0.325422 0.785222 0.508819 0.069654
H304  H     H_    0.309545 0.761773 0.491837 0.167438
H305  H     H_    0.303203 0.851936 0.509750 0.112769
C309  C     C_3   0.278458 0.731688 0.525971 -0.364257
H306  H     H_    0.307620 0.668219 0.526757 0.262802
H307  H     H_    0.283591 0.761802 0.542688 0.212842
C310  C     C_3   0.185408 0.721879 0.520105 -0.917184
H308  H     H_    0.154780 0.784593 0.519167 0.255800
H309  H     H_    0.153201 0.684469 0.533143 0.268509
H310  H     H_    0.178399 0.688402 0.503873 0.264014
O111  O     O_3   0.801780 0.473770 0.489449 -0.620141
C311  C     C_3   0.758471 0.404318 0.479770 0.046765
H311  H     H_    0.756196 0.353669 0.492266 0.162118
H312  H     H_    0.789685 0.375515 0.464893 0.125964
C312  C     C_3   0.668243 0.430455 0.474145 -0.358762
H313  H     H_    0.636574 0.454974 0.489404 0.228027
H314  H     H_    0.669559 0.481632 0.461675 0.221180
C313  C     C_3   0.617354 0.356472 0.464855 -0.894409
H315  H     H_    0.646324 0.332473 0.449184 0.263771
H316  H     H_    0.552055 0.377222 0.461246 0.269314
H317  H     H_    0.614608 0.304818 0.477150 0.302713
O112  O     O_3   0.263787 0.505093 0.518675 -0.625882
C314  C     C_3   0.321488 0.439475 0.523810 0.103513
H318  H     H_    0.338674 0.406325 0.508164 0.204007
H319  H     H_    0.296723 0.389905 0.535108 0.102872
C315  C     C_3   0.401659 0.478207 0.533621 -0.375107
H320  H     H_    0.424919 0.528826 0.522500 0.239424
H321  H     H_    0.387256 0.506729 0.550164 0.225895
C316  C     C_3   0.470892 0.412394 0.536148 -0.943403
H322  H     H_    0.449658 0.361100 0.547295 0.273050
H323  H     H_    0.527775 0.442525 0.543468 0.262496
H324  H     H_    0.487978 0.385127 0.519632 0.293005
O113  O     O_3   0.522002 0.768706 0.482237 -0.612295
C317  C     C_3   0.610671 0.763832 0.484160 0.064880
H325  H     H_    0.623371 0.714879 0.496623 0.184763
H326  H     H_    0.639447 0.823269 0.490700 0.114738
C318  C     C_3   0.652153 0.736981 0.462030 -0.415198
H327  H     H_    0.613699 0.687192 0.453807 0.246079
H328  H     H_    0.655833 0.791946 0.450766 0.224554
C319  C     C_3   0.740997 0.703052 0.465486 -0.894448
H329  H     H_    0.780429 0.750174 0.474461 0.262443
H330  H     H_    0.770507 0.689071 0.449080 0.269938
H331  H     H_    0.738451 0.643810 0.475122 0.302281
O114  O     O_3   0.580757 0.206165 0.514778 -0.611448
C320  C     C_3   0.664918 0.219411 0.522025 0.056079
H332  H     H_    0.705966 0.219559 0.507031 0.145424
H333  H     H_    0.690169 0.168866 0.532948 0.130847
C321  C     C_3   0.672268 0.305354 0.533760 -0.355241
H334  H     H_    0.654607 0.355883 0.522018 0.233617
H335  H     H_    0.628077 0.308801 0.548066 0.228881
C322  C     C_3   0.761473 0.321421 0.542324 -0.922714
H336  H     H_    0.778431 0.273936 0.555006 0.263091
H337  H     H_    0.764818 0.385000 0.550149 0.274976
H338  H     H_    0.807825 0.318359 0.528473 0.260299
O115  O     O_3   0.261648 0.485454 0.480137 -0.627723
C323  C     C_3   0.317634 0.551508 0.474043 0.120349
H339  H     H_    0.330979 0.590913 0.489003 0.207378
H340  H     H_    0.292975 0.595199 0.461162 0.108171
C324  C     C_3   0.400076 0.512630 0.465675 -0.390283
H341  H     H_    0.422950 0.465490 0.477802 0.232797
H342  H     H_    0.388669 0.479846 0.449521 0.224235
C325  C     C_3   0.468262 0.579215 0.462657 -0.899141
H343  H     H_    0.446157 0.629679 0.451406 0.274523
H344  H     H_    0.525261 0.549630 0.455266 0.254742
H345  H     H_    0.485379 0.607007 0.479077 0.301930
O116  O     O_3   0.823642 0.604261 0.512448 -0.622238
C326  C     C_3   0.766879 0.652176 0.525657 0.071159
H346  H     H_    0.750315 0.709027 0.516046 0.147532
H347  H     H_    0.795501 0.678060 0.541184 0.129063
C327  C     C_3   0.685586 0.602037 0.529892 -0.349723
H348  H     H_    0.654520 0.587514 0.513746 0.226761
H349  H     H_    0.699789 0.540829 0.537800 0.226447
C328  C     C_3   0.624702 0.651282 0.544796 -0.936893
H350  H     H_    0.653373 0.662691 0.561419 0.272881
H351  H     H_    0.565730 0.614514 0.546983 0.273822
H352  H     H_    0.608656 0.712727 0.537222 0.264476

loop_
_geom_bond_atom_site_label_1
_geom_bond_atom_site_label_2
_geom_bond_distance
_ccdc_geom_bond_type
C84   C144  1.416391 A    
C193  H36   1.108723 S    
C230  H122  1.111231 S    
C262  H197  1.109974 S    
C279  H236  1.112033 S    
C186  H20   1.111949 S    
O81   C221  1.417742 S    
O9    C1    1.276028 A    
C41   C105  1.405542 A    
C324  H341  1.111258 S    
C251  C252  1.527617 S    
Zn5   O51   1.921201 S    
C49   O61   1.350063 S    
O86   C236  1.410199 S    
C281  C282  1.533806 S    
N4    C92   1.441650 S    
O73   C197  1.417834 S    
C80   C140  1.417986 A    
C122  C181  1.394236 A    
O85   C233  1.415119 S    
O82   C224  1.417237 S    
C234  C235  1.527705 S    
C300  H286  1.111296 S    
C257  C258  1.527775 S    
C159  C167  1.446740 A    
C127  C180  1.404966 A    
C272  H220  1.115959 S    
C22   C25   1.413949 S    
C128  C179  1.397078 A    
C129  C174  1.401634 A    
C50   C114  1.403847 A    
C1    C144  1.483737 S    
C213  H83   1.110563 S    
C210  H75   1.111376 S    
C325  H343  1.110861 S    
Zn3   O38   1.921679 S    
C301  H288  1.109704 S    
C278  H235  1.114088 S    
C193  H37   1.110942 S    
C313  H316  1.110260 S    
O111  C311  1.418651 S    
C148  C151  1.472607 A    
Zn1   O47   1.928158 S    
C244  H154  1.110839 S    
C232  H128  1.110938 S    
Zn6   O19   1.891916 S    
C62   C78   1.404825 A    
C261  H195  1.111597 S    
C256  H182  1.110835 S    
C216  C217  1.526043 S    
C21   C26   1.414101 S    
C237  H138  1.111995 S    
C208  H72   1.110939 S    
Zn13  O35   1.921201 S    
C145  C150  1.424591 A    
O34   C22   1.258181 A    
Zn14  O36   1.921202 S    
C250  H168  1.110815 S    
C189  H27   1.110565 S    
C263  H199  1.116651 S    
C258  H188  1.111732 S    
C98   C165  1.421992 A    
C47   C111  1.409301 A    
C133  C170  1.398336 A    
C285  C286  1.526123 S    
Zn3   O3    1.953927 S    
O72   C194  1.417408 S    
C45   C109  1.409615 A    
C23   C32   1.416380 S    
C160  C184  1.426834 A    
C259  H191  1.111118 S    
C280  H240  1.110928 S    
C313  H317  1.109713 S    
C132  H12   1.084118 S    
C20   C27   1.417556 S    
C272  H221  1.113902 S    
C318  H327  1.110411 S    
C41   O53   1.349987 S    
C157  C181  1.425242 A    
C274  H225  1.109824 S    
C99   C111  1.396001 A    
C130  C173  1.394009 A    
C102  C114  1.404630 A    
C82   C142  1.417984 A    
C235  H134  1.110346 S    
C307  H301  1.110667 S    
C48   C112  1.407596 A    
N6    C94   1.443399 S    
C327  H349  1.109494 S    
C251  H171  1.114791 S    
C312  H314  1.110598 S    
C136  C171  1.397289 A    
C189  H26   1.111729 S    
C154  C166  1.424013 A    
C282  C283  1.526550 S    
C7    C138  1.484333 S    
C155  C179  1.427374 A    
C195  H40   1.111704 S    
C12   C35   1.415891 S    
C52   C116  1.408901 A    
C297  C298  1.527365 S    
C325  H345  1.110206 S    
Zn1   O44   1.919449 S    
C246  H160  1.111437 S    
Zn2   O43   1.919451 S    
C6    C139  1.490253 S    
C260  C261  1.527488 S    
O22   C10   1.261901 A    
Zn3   O18   1.888246 S    
C243  H152  1.111908 S    
O93   C257  1.410854 S    
C191  H31   1.111335 S    
C304  H296  1.110554 S    
C310  H308  1.110643 S    
C124  H4    1.084105 S    
C326  H346  1.108440 S    
O112  C314  1.424537 S    
C171  O103  1.394143 S    
Zn8   O41   1.927134 S    
C76   C140  1.416427 A    
C289  H261  1.109774 S    
C56   N8    1.365895 A    
O40   C18   1.264826 A    
O115  C323  1.423648 S    
C276  C277  1.526479 S    
C201  H54   1.111719 S    
C324  C325  1.523498 S    
C241  H147  1.110386 S    
C100  C112  1.411558 A    
C288  C289  1.526158 S    
C238  H141  1.109964 S    
C102  C161  1.422312 A    
C321  H334  1.109976 S    
C177  O109  1.384003 S    
C284  H249  1.117663 S    
O17   C5    1.275759 A    
C223  H105  1.110830 S    
N2    C90   1.443317 S    
C52   N8    1.367009 A    
Zn7   O3    1.935399 S    
Zn11  O29   1.920290 S    
O101  C281  1.416719 S    
C256  H184  1.110927 S    
C173  O105  1.379630 S    
C123  H3    1.078553 S    
O116  C326  1.416524 S    
C69   C85   1.406059 A    
C106  C122  1.392881 A    
O11   C3    1.274595 A    
C187  H21   1.110932 S    
C269  C270  1.527303 S    
C135  H15   1.083382 S    
C131  C176  1.403701 A    
C196  H44   1.110949 S    
C97   C105  1.405855 A    
C214  H85   1.110485 S    
C304  H295  1.110537 S    
C257  H185  1.115886 S    
Zn13  O4    1.945940 S    
O96   C266  1.411441 S    
Zn14  O3    1.945937 S    
Zn15  O26   1.927134 S    
C283  H246  1.110610 S    
O102  C284  1.415814 S    
C72   C96   1.403250 A    
C264  C265  1.526904 S    
C239  C240  1.527746 S    
O44   C22   1.256603 A    
N8    C96   1.441939 S    
C69   O93   1.381715 S    
C212  H80   1.111234 S    
C305  C306  1.534004 S    
C311  C312  1.530710 S    
C97   C109  1.406326 A    
C227  H115  1.111254 S    
C234  H131  1.111833 S    
C153  C158  1.424578 A    
O38   C20   1.261880 A    
C246  C247  1.526341 S    
C246  H159  1.111948 S    
C274  H224  1.110805 S    
C291  H265  1.111165 S    
C310  H309  1.110791 S    
C249  C250  1.525324 S    
C59   C75   1.404474 A    
C169  O101  1.383900 S    
O74   C200  1.417234 S    
C295  H274  1.110541 S    
N1    C89   1.442551 S    
C2    C143  1.491711 S    
C100  C108  1.396164 A    
C226  H113  1.110515 S    
O47   C9    1.264119 A    
C104  C120  1.411536 A    
C88   C144  1.418156 A    
C240  H145  1.111667 S    
C299  H284  1.115806 S    
C328  H350  1.110910 S    
C318  C319  1.525401 S    
O5    C1    1.272014 A    
O75   C203  1.417906 S    
O97   C269  1.410996 S    
C243  H153  1.111380 S    
C44   C108  1.408605 A    
C273  C274  1.525275 S    
C30   C35   1.194535 T    
O31   C19   1.264143 A    
C210  H76   1.110103 S    
C291  C292  1.526245 S    
C288  H258  1.110522 S    
Zn15  O2    1.935399 S    
Zn5   O20   1.891916 S    
Zn11  O2    1.953927 S    
C115  C131  1.387472 A    
Zn16  O5    1.897468 S    
C58   O90   1.381352 S    
O114  C320  1.420264 S    
C322  H337  1.110411 S    
O27   C15   1.256907 A    
C249  H166  1.112062 S    
C184  O116  1.402637 S    
C63   O87   1.386027 S    
C245  H158  1.113823 S    
C306  C307  1.526543 S    
C293  H269  1.103317 S    
C290  H263  1.114875 S    
C268  H210  1.110839 S    
O94   C260  1.410167 S    
Zn15  O33   1.923371 S    
C103  C119  1.395951 A    
O26   C14   1.259419 A    
C230  H123  1.116711 S    
O109  C305  1.416849 S    
C265  H204  1.110511 S    
C191  C192  1.531437 S    
C107  C123  1.387480 A    
Zn8   O13   1.897468 S    
C146  C170  1.428116 A    
C191  H32   1.117417 S    
C9    C38   1.417677 S    
C324  H342  1.111272 S    
C251  H172  1.115054 S    
C263  C264  1.528549 S    
C316  H322  1.110863 S    
O14   C6    1.274700 A    
C303  H293  1.109659 S    
C3    C142  1.484357 S    
C65   O97   1.382124 S    
C276  H229  1.111919 S    
C58   C74   1.404832 A    
C201  C202  1.526317 S    
C55   O67   1.349830 S    
C16   C39   1.413971 S    
C104  C163  1.432063 A    
O43   C21   1.256793 A    
C53   O65   1.349298 S    
C296  H277  1.117192 S    
C18   C29   1.415897 S    
C207  H68   1.111733 S    
C48   N4    1.365922 A    
C223  H107  1.110938 S    
C60   O92   1.381197 S    
C309  H307  1.110612 S    
C211  H77   1.110815 S    
C188  H25   1.116669 S    
C265  H205  1.111006 S    
C224  H109  1.116811 S    
C323  H340  1.115928 S    
C218  H95   1.116727 S    
C229  H119  1.110842 S    
C273  H223  1.111273 S    
C135  C172  1.404742 A    
C50   O62   1.350118 S    
C187  H23   1.111065 S    
C43   N3    1.363689 A    
C228  C229  1.526118 S    
C328  H352  1.110609 S    
C126  C177  1.397117 A    
C54   N6    1.370823 A    
C123  C184  1.404225 A    
C288  H257  1.111429 S    
C320  H332  1.110314 S    
C252  C253  1.527003 S    
C149  C173  1.425547 A    
C118  C134  1.397747 A    
C275  H227  1.116650 S    
C250  H169  1.109817 S    
C259  H190  1.110370 S    
C232  H126  1.111054 S    
C219  H97   1.110653 S    
C292  H267  1.110393 S    
C212  C213  1.532477 S    
C79   C139  1.419971 A    
C26   C39   1.193407 T    
C101  C113  1.405762 A    
O84   C230  1.417273 S    
C156  C180  1.453110 A    
C227  C228  1.532254 S    
C254  C255  1.527034 S    
C57   C73   1.406468 A    
C215  H87   1.111232 S    
C255  C256  1.525046 S    
Zn12  O30   1.920292 S    
C194  H39   1.116711 S    
C233  H129  1.110369 S    
C98   C110  1.407200 A    
C281  H242  1.116812 S    
C146  C149  1.430882 A    
C131  H11   1.078844 S    
C270  H215  1.111974 S    
C64   C80   1.403229 A    
C298  H280  1.110308 S    
N5    C93   1.443289 S    
O106  C296  1.420392 S    
C207  C208  1.526297 S    
C297  H279  1.108928 S    
C104  C116  1.396072 A    
C315  H321  1.111111 S    
O69   C185  1.413077 S    
C27   C38   1.195518 T    
C102  C118  1.407184 A    
C219  C220  1.526297 S    
C308  H305  1.117689 S    
C48   O60   1.349870 S    
C79   O71   1.385052 S    
C286  H252  1.110646 S    
C206  C207  1.532426 S    
C271  H217  1.110316 S    
C160  C168  1.417978 A    
C229  H121  1.110940 S    
O32   C20   1.264138 A    
C236  H136  1.115474 S    
C208  H70   1.111056 S    
O37   C19   1.261952 A    
C86   O78   1.385274 S    
C326  H347  1.112612 S    
C203  H59   1.111246 S    
C217  H91   1.110840 S    
C145  C169  1.425353 A    
C42   O54   1.350106 S    
C179  O111  1.393480 S    
C247  H162  1.110335 S    
C202  H57   1.110511 S    
O105  C293  1.414301 S    
C200  C201  1.532471 S    
C197  H46   1.117285 S    
C190  H29   1.110487 S    
C83   O83   1.384738 S    
C204  C205  1.526048 S    
C315  C316  1.526206 S    
C149  C161  1.423179 A    
C203  H60   1.117470 S    
O103  C287  1.418755 S    
C151  C163  1.447055 A    
O8    C4    1.277940 A    
C222  C223  1.526046 S    
C157  C165  1.422674 A    
C59   O91   1.382636 S    
C147  C152  1.410557 A    
C70   C86   1.404760 A    
C279  H237  1.111395 S    
C253  H177  1.110844 S    
C302  H291  1.112631 S    
O48   C10   1.264115 A    
C287  C288  1.530933 S    
C198  C199  1.526586 S    
C321  C322  1.527342 S    
C199  H50   1.109553 S    
C129  H9    1.080639 S    
C317  C318  1.538511 S    
C66   C82   1.404815 A    
O16   C8    1.279433 A    
C266  C267  1.526841 S    
C242  H150  1.115826 S    
C189  C190  1.526289 S    
O51   C13   1.257452 A    
C283  H247  1.110344 S    
C234  H132  1.111777 S    
C197  C198  1.532569 S    
C155  C167  1.419174 A    
C29   C36   1.194534 T    
O52   C14   1.257514 A    
C110  C126  1.398036 A    
C248  H165  1.113907 S    
C245  H157  1.114917 S    
C78   O70   1.385266 S    
C253  H176  1.110398 S    
C231  C232  1.526282 S    
C152  C176  1.426511 A    
O45   C11   1.263350 A    
C156  C159  1.472100 A    
C78   C138  1.416098 A    
C32   C33   1.194752 T    
C232  H127  1.110478 S    
C45   N1    1.370340 A    
C240  C241  1.527353 S    
C307  H303  1.110222 S    
C305  H297  1.109921 S    
C294  C295  1.525530 S    
C228  H117  1.111474 S    
C66   O98   1.381299 S    
O71   C191  1.417673 S    
C67   C83   1.406745 A    
C199  H49   1.110809 S    
C249  H167  1.111316 S    
C258  H187  1.111984 S    
C248  C249  1.526758 S    
C65   C81   1.406501 A    
C252  H173  1.111769 S    
C41   N1    1.367958 A    
C228  H118  1.110127 S    
O87   C239  1.415447 S    
O42   C24   1.259408 A    
Zn16  O25   1.927134 S    
O6    C2    1.275142 A    
C275  C276  1.527558 S    
C224  H108  1.111250 S    
C24   C31   1.416253 S    
C280  H239  1.110019 S    
C73   C137  1.422548 A    
C28   C37   1.195519 T    
C209  H73   1.111309 S    
Zn4   O37   1.921679 S    
C42   C106  1.403825 A    
C46   O58   1.349179 S    
Zn5   O40   1.924759 S    
C159  C183  1.449807 A    
C215  C216  1.532582 S    
Zn6   O39   1.924757 S    
C97   C166  1.421397 A    
C268  H212  1.111005 S    
C154  C157  1.430801 A    
C192  H34   1.110685 S    
C284  H248  1.111240 S    
C64   C92   1.403319 A    
C58   C90   1.404505 A    
C259  H189  1.109672 S    
Zn8   O50   1.923369 S    
C282  H244  1.110752 S    
C220  H98   1.111074 S    
C195  H41   1.110649 S    
C112  C128  1.388065 A    
C196  H42   1.111077 S    
Zn16  O34   1.923369 S    
C280  H238  1.110823 S    
C49   C113  1.405178 A    
C25   C40   1.193388 T    
C88   O80   1.385295 S    
C185  H17   1.115247 S    
C183  O115  1.373737 S    
C260  H193  1.114760 S    
Zn5   O1    1.945940 S    
C221  H101  1.111236 S    
C220  H99   1.110510 S    
Zn3   O45   1.920290 S    
C51   N7    1.363691 A    
C206  H66   1.111231 S    
C271  H219  1.110881 S    
Zn4   O46   1.920292 S    
C133  H13   1.083228 S    
C114  C130  1.392597 A    
C236  C237  1.527456 S    
C4    C141  1.493927 S    
C49   N5    1.368569 A    
O92   C254  1.410304 S    
Zn12  O21   1.921679 S    
C205  H63   1.110840 S    
C273  H222  1.112064 S    
Zn13  O24   1.924759 S    
C69   C93   1.405185 A    
C325  H344  1.109699 S    
O35   C23   1.257458 A    
Zn14  O23   1.924757 S    
Zn4   O17   1.888246 S    
C158  C182  1.424618 A    
Zn15  O6    1.897468 S    
O79   C215  1.417947 S    
C145  C161  1.418978 A    
C319  H329  1.110665 S    
C276  H230  1.111270 S    
C195  C196  1.526303 S    
C201  H55   1.110682 S    
Zn12  O1    1.953923 S    
C241  H148  1.109356 S    
C204  H61   1.111557 S    
C46   C110  1.408902 A    
Zn13  O12   1.891916 S    
Zn14  O11   1.891916 S    
C153  C177  1.424921 A    
C72   C88   1.403222 A    
C71   O95   1.382457 S    
C298  H282  1.109866 S    
C289  H260  1.110266 S    
C270  C271  1.526150 S    
C312  C313  1.526098 S    
C243  C244  1.526169 S    
C223  H106  1.110265 S    
C193  H35   1.110797 S    
C277  H233  1.110723 S    
C262  H198  1.110886 S    
O107  C299  1.423554 S    
C74   C138  1.418023 A    
Zn7   O14   1.897468 S    
C57   C89   1.403128 A    
C256  H183  1.110000 S    
C300  H285  1.111323 S    
C239  H143  1.110179 S    
O12   C4    1.275565 A    
C117  C133  1.396533 A    
C247  H163  1.110881 S    
C66   C94   1.404572 A    
C237  H139  1.111601 S    
C235  H133  1.110216 S    
C60   C76   1.405918 A    
C187  H22   1.110595 S    
O76   C206  1.417278 S    
C196  H43   1.110509 S    
C200  H52   1.111249 S    
C62   O86   1.381477 S    
C155  C160  1.410515 A    
C300  C301  1.523479 S    
C257  H186  1.113877 S    
C241  H149  1.111154 S    
O83   C227  1.417952 S    
O7    C3    1.273101 A    
C125  C178  1.398580 A    
C213  H82   1.111730 S    
C54   O66   1.349195 S    
C185  C186  1.528189 S    
C180  O112  1.379103 S    
C290  H262  1.106293 S    
C264  H202  1.111796 S    
C231  H124  1.111740 S    
C278  C279  1.527029 S    
C147  C163  1.419242 A    
C56   C120  1.407591 A    
C209  C210  1.531143 S    
N7    C95   1.437249 S    
C313  H315  1.110681 S    
C222  H103  1.111622 S    
O21   C9    1.261976 A    
C233  C234  1.528580 S    
C51   O63   1.350358 S    
O95   C263  1.412837 S    
C126  H6    1.083652 S    
C261  H194  1.111999 S    
C52   O64   1.350135 S    
C134  C169  1.396869 A    
O23   C11   1.264971 A    
O39   C17   1.264963 A    
Zn11  O22   1.921679 S    
C323  C324  1.529349 S    
C312  H313  1.111440 S    
Zn7   O49   1.923371 S    
C148  C164  1.444821 A    
Zn9   O4    1.942342 S    
O15   C7    1.273014 A    
C199  H51   1.110914 S    
Zn10  O3    1.942338 S    
C99   C107  1.409821 A    
C258  C259  1.526488 S    
O25   C13   1.259564 A    
Zn6   O52   1.921202 S    
C61   O85   1.385897 S    
C150  C174  1.424173 A    
C156  C168  1.444718 A    
C283  H245  1.110666 S    
C59   C91   1.400747 A    
C45   O57   1.349261 S    
O18   C6    1.277395 A    
C61   C89   1.410017 A    
Zn9   O31   1.928158 S    
C294  H272  1.110839 S    
C267  H209  1.111353 S    
C318  H328  1.110817 S    
Zn10  O32   1.928158 S    
O80   C218  1.417399 S    
O10   C2    1.277875 A    
C274  H226  1.110901 S    
O36   C24   1.257523 A    
C116  C132  1.379370 A    
C311  H311  1.105818 S    
C176  O108  1.402206 S    
C267  H208  1.111908 S    
C284  C285  1.533686 S    
C105  C121  1.394226 A    
C98   C106  1.404615 A    
C244  H155  1.109765 S    
C289  H259  1.110686 S    
C242  C243  1.526871 S    
O46   C12   1.263413 A    
C134  H14   1.083666 S    
C67   O99   1.382563 S    
O88   C242  1.411392 S    
C287  H255  1.105725 S    
C286  H253  1.110841 S    
O41   C23   1.259556 A    
C122  H2    1.083570 S    
C301  H287  1.110847 S    
Zn1   O1    1.942342 S    
C56   O68   1.349896 S    
C285  H251  1.110490 S    
O78   C212  1.417500 S    
O28   C16   1.256713 A    
C77   O69   1.383253 S    
C204  H62   1.110304 S    
C244  H156  1.110998 S    
C205  H65   1.110963 S    
C295  H275  1.109859 S    
C70   O94   1.381493 S    
C267  C268  1.526203 S    
C231  H125  1.110639 S    
C279  C280  1.524960 S    
C225  C226  1.526313 S    
C72   O96   1.381576 S    
C287  H256  1.114846 S    
C194  H38   1.111242 S    
C323  H339  1.110113 S    
C255  H181  1.111423 S    
C121  C182  1.402758 A    
C130  H10   1.083557 S    
C269  H213  1.115596 S    
C255  H180  1.112034 S    
C158  C166  1.422358 A    
C319  H331  1.109830 S    
O110  C308  1.415455 S    
C254  H178  1.115679 S    
C238  H142  1.110889 S    
C63   C91   1.410266 A    
C296  H276  1.110306 S    
C150  C162  1.422446 A    
C125  H5    1.083211 S    
C44   O56   1.350163 S    
C293  C294  1.538500 S    
C192  H33   1.111764 S    
C120  C136  1.387927 A    
C154  C178  1.428129 A    
C226  H112  1.111038 S    
C31   C34   1.194751 T    
C103  C115  1.409836 A    
C316  H324  1.111386 S    
C211  H78   1.110319 S    
C188  H24   1.111232 S    
C61   C77   1.407448 A    
C8    C137  1.497345 S    
C314  C315  1.528829 S    
C229  H120  1.110242 S    
C71   C87   1.403792 A    
C235  H135  1.111045 S    
C214  H84   1.111079 S    
Zn16  O1    1.935396 S    
N3    C91   1.437887 S    
C136  H16   1.082394 S    
C214  H86   1.110928 S    
C172  O104  1.378491 S    
C190  H28   1.111079 S    
C261  C262  1.525614 S    
C75   O75   1.385161 S    
C307  H302  1.110611 S    
C68   O100  1.381133 S    
C252  H174  1.111845 S    
C85   O77   1.384503 S    
C186  H19   1.111886 S    
O99   C275  1.412463 S    
C301  H289  1.110171 S    
C213  C214  1.526281 S    
C275  H228  1.113069 S    
C278  H234  1.115674 S    
C239  H144  1.117866 S    
C47   O59   1.349921 S    
C292  H266  1.110851 S    
C295  H273  1.110686 S    
C128  H8    1.082558 S    
C327  C328  1.526655 S    
C57   O89   1.382701 S    
Zn8   O4    1.935396 S    
O91   C251  1.412119 S    
C221  H102  1.117280 S    
C10   C37   1.417555 S    
C46   N2    1.370850 A    
C254  H179  1.114070 S    
C215  H88   1.116930 S    
C121  H1    1.080381 S    
C211  H79   1.110914 S    
C100  C167  1.431943 A    
C233  H130  1.117421 S    
O49   C15   1.257973 A    
C132  C175  1.401167 A    
O13   C5    1.272100 A    
C291  H264  1.112108 S    
C67   C95   1.398479 A    
C82   O82   1.385118 S    
C309  H306  1.110982 S    
C71   C95   1.401830 A    
O89   C245  1.411756 S    
C286  H254  1.111152 S    
C42   N2    1.368994 A    
C203  C204  1.531332 S    
C226  H114  1.110960 S    
C17   C30   1.416014 S    
O20   C8    1.275944 A    
C108  C124  1.379321 A    
C277  H231  1.109653 S    
C198  H48   1.110367 S    
C269  H214  1.114014 S    
C14   C33   1.416258 S    
C202  H56   1.111048 S    
C311  H312  1.115021 S    
C299  H283  1.110275 S    
C328  H351  1.110548 S    
C55   C119  1.409446 A    
C216  H89   1.111336 S    
O24   C12   1.264834 A    
C53   C117  1.409529 A    
C152  C164  1.418105 A    
C60   C92   1.405690 A    
C308  H304  1.111322 S    
Zn7   O42   1.927134 S    
C217  H92   1.110088 S    
C220  H100  1.110951 S    
C210  C211  1.526008 S    
C43   C107  1.405846 A    
C216  H90   1.110438 S    
C192  C193  1.526716 S    
C200  H53   1.116787 S    
C64   O88   1.381567 S    
C322  H338  1.110000 S    
C101  C162  1.421867 A    
C68   C84   1.406117 A    
C77   C137  1.418982 A    
C294  H271  1.110428 S    
C103  C164  1.428144 A    
C65   C93   1.402718 A    
C326  C327  1.537039 S    
Zn2   O48   1.928158 S    
C225  H111  1.110677 S    
C290  C291  1.528926 S    
C13   C34   1.416386 S    
C222  H104  1.110352 S    
Zn6   O2    1.945937 S    
C230  C231  1.532414 S    
C47   N3    1.366217 A    
C208  H71   1.110478 S    
C265  H203  1.109999 S    
C74   O74   1.385126 S    
C50   N6    1.368945 A    
C250  H170  1.110902 S    
C285  H250  1.110977 S    
C217  H93   1.110877 S    
C87   C143  1.420981 A    
C170  O102  1.382530 S    
C266  H207  1.114301 S    
C303  H292  1.110687 S    
C247  H161  1.109525 S    
C85   C141  1.419833 A    
Zn11  O10   1.888246 S    
C206  H67   1.116709 S    
C304  H294  1.110822 S    
C146  C162  1.423962 A    
Zn1   O16   1.893707 S    
C76   O76   1.385055 S    
C262  H196  1.110841 S    
C153  C165  1.418497 A    
C271  H218  1.110300 S    
Zn2   O15   1.893706 S    
C212  H81   1.116667 S    
C81   O81   1.384935 S    
C296  C297  1.533578 S    
O29   C17   1.263362 A    
C80   O72   1.385299 S    
C63   C79   1.402412 A    
C293  H270  1.115929 S    
C101  C117  1.406170 A    
C218  H94   1.111239 S    
C207  H69   1.110648 S    
C317  H326  1.115929 S    
C188  C189  1.532477 S    
C19   C28   1.417679 S    
C202  H58   1.110960 S    
C54   C118  1.408923 A    
C306  H299  1.110720 S    
C70   C94   1.406903 A    
C218  C219  1.532504 S    
C240  H146  1.111710 S    
C319  H330  1.110525 S    
O90   C248  1.410847 S    
C305  H298  1.116700 S    
C73   O73   1.384963 S    
C15   C40   1.414103 S    
C86   C142  1.416147 A    
C263  H200  1.112798 S    
O70   C188  1.417509 S    
C55   N7    1.365398 A    
O108  C302  1.416525 S    
C320  H333  1.116800 S    
C43   O55   1.350359 S    
O104  C290  1.424579 S    
C186  C187  1.526611 S    
C53   N5    1.370299 A    
C11   C36   1.416013 S    
C320  C321  1.533802 S    
C245  C246  1.527546 S    
C51   C115  1.405610 A    
C68   C96   1.405916 A    
C316  H323  1.110418 S    
C314  H318  1.106122 S    
C99   C168  1.427682 A    
C238  H140  1.110847 S    
C174  O106  1.389442 S    
C314  H319  1.114843 S    
C219  H96   1.111703 S    
O113  C317  1.414420 S    
C292  H268  1.111369 S    
C178  O110  1.382317 S    
C302  H290  1.108304 S    
C327  H348  1.110547 S    
Zn9   O28   1.919449 S    
C209  H74   1.117960 S    
C147  C171  1.427801 A    
Zn10  O27   1.919451 S    
C148  C172  1.453556 A    
C253  H175  1.111062 S    
O19   C7    1.274658 A    
O33   C21   1.258063 A    
Zn2   O2    1.942338 S    
C303  C304  1.526586 S    
C194  C195  1.532522 S    
Zn9   O8    1.893707 S    
C75   C139  1.421134 A    
C281  H241  1.110053 S    
C306  H300  1.110727 S    
Zn4   O4    1.953923 S    
C87   O79   1.384798 S    
Zn10  O7    1.893706 S    
C272  C273  1.526701 S    
C124  C183  1.400895 A    
C282  H243  1.110775 S    
C83   C143  1.423231 A    
C309  C310  1.526180 S    
C111  C127  1.380029 A    
Zn12  O9    1.888246 S    
C297  H278  1.109976 S    
C44   N4    1.366866 A    
C151  C175  1.450036 A    
C315  H320  1.112178 S    
O100  C278  1.410186 S    
C242  H151  1.114319 S    
C109  C125  1.396840 A    
C264  H201  1.112299 S    
C185  H18   1.114781 S    
C260  H192  1.115443 S    
O77   C209  1.418112 S    
C182  O114  1.390341 S    
C299  C300  1.529380 S    
C62   C90   1.406859 A    
C113  C129  1.394122 A    
O98   C272  1.410789 S    
C236  H137  1.114735 S    
C224  C225  1.532445 S    
C127  H7    1.083152 S    
C310  H310  1.111167 S    
C237  C238  1.525625 S    
C308  C309  1.533387 S    
C205  H64   1.110012 S    
C227  H116  1.117548 S    
C317  H325  1.103374 S    
O50   C16   1.258058 A    
C266  H206  1.115855 S    
C84   O84   1.385043 S    
C321  H335  1.108847 S    
C302  C303  1.536671 S    
C175  O107  1.373752 S    
C277  H232  1.110387 S    
C270  H216  1.111658 S    
C197  H45   1.111275 S    
C190  H30   1.110932 S    
C322  H336  1.110697 S    
C198  H47   1.111801 S    
C119  C135  1.379661 A    
C81   C141  1.421899 A    
C268  H211  1.109762 S    
O30   C18   1.263422 A    
C225  H110  1.111722 S    
C248  H164  1.115935 S    
C5    C140  1.483385 S    
C181  O113  1.379677 S    
C298  H281  1.110406 S    
C221  C222  1.532624 S    
