data_mof_unit_62122.cif
_audit_creation_date              2012-12-10T17:27:10-0500
_audit_creation_method            fapswitch 2.2
_symmetry_space_group_name_H-M    P1
_symmetry_Int_Tables_number       1
_space_group_crystal_system       monoclinic
_cell_length_a                    21.461142
_cell_length_b                    29.409567
_cell_length_c                    29.407815
_cell_angle_alpha                 90.0
_cell_angle_beta                  89.752528
_cell_angle_gamma                 90.0
_cell_volume                      18560.948475

loop_
_atom_site_label
_atom_site_type_symbol
_atom_type_description
_atom_site_fract_x
_atom_site_fract_y
_atom_site_fract_z
_atom_type_partial_charge
C1    C     C_R   0.000032 0.999993 0.085535 0.819380
C2    C     C_R   0.999968 0.999993 0.914465 0.819379
C3    C     C_R   0.500232 0.500000 0.585534 0.825156
C4    C     C_R   0.499767 0.500000 0.414466 0.825155
C5    C     C_1   0.000019 0.999998 0.179035 -0.014312
C6    C     C_1   0.999981 0.999998 0.820965 -0.014312
C7    C     C_1   0.500632 0.500060 0.679032 -0.008461
C8    C     C_1   0.499368 0.500060 0.320968 -0.008459
C9    C     C_1   0.000149 0.999971 0.229281 -0.001268
C10   C     C_1   0.999851 0.999971 0.770719 -0.001269
C11   C     C_1   0.500728 0.500085 0.729277 0.001301
C12   C     C_1   0.499272 0.500085 0.270723 0.001300
C13   C     C_1   0.000255 0.999958 0.271662 0.003250
C14   C     C_1   0.999745 0.999958 0.728338 0.003250
C15   C     C_1   0.500701 0.500082 0.771659 0.001959
C16   C     C_1   0.499299 0.500082 0.228341 0.001958
C17   C     C_1   0.000328 0.999960 0.321916 0.001122
C18   C     C_1   0.999672 0.999960 0.678084 0.001122
C19   C     C_1   0.500567 0.500058 0.821914 0.000718
C20   C     C_1   0.499433 0.500058 0.178086 0.000718
C21   C     C_1   0.000310 0.999970 0.364300 -0.188693
C22   C     C_1   0.999690 0.999970 0.635700 -0.188693
C23   C     C_1   0.500397 0.500031 0.864299 -0.188866
C24   C     C_1   0.499603 0.500031 0.135701 -0.188867
C25   C     C_R   0.500000 0.085495 0.000000 0.808371
C26   C     C_R   1.000000 0.585497 0.500000 0.814358
C27   C     C_R   0.378677 0.999667 0.000135 0.886967
C28   C     C_R   0.621323 0.999667 0.999865 0.886968
C29   C     C_R   0.878698 0.501570 0.500133 0.901289
C30   C     C_R   0.121302 0.501570 0.499867 0.901293
C31   C     C_R   0.500000 0.914391 0.000000 0.835636
C32   C     C_R   0.000000 0.414392 0.500000 0.863262
C33   C     C_R   0.000000 0.084533 0.500000 0.797007
C34   C     C_R   0.500000 0.584531 0.000000 0.796880
C35   C     C_R   0.000113 0.999984 0.415442 0.796957
C36   C     C_R   0.999887 0.999984 0.584558 0.796957
C37   C     C_R   0.500124 0.500000 0.915442 0.796938
C38   C     C_R   0.499876 0.500000 0.084558 0.796938
C39   C     C_R   0.121373 0.999889 0.999948 0.863212
C40   C     C_R   0.878627 0.999889 0.000052 0.863212
C41   C     C_R   0.621366 0.499972 0.499782 0.871281
C42   C     C_R   0.378634 0.499972 0.500218 0.871286
C43   C     C_R   0.000000 0.915437 0.500000 0.796986
C44   C     C_R   0.500000 0.415436 0.000000 0.797109
C45   C     C_1   0.500000 0.136626 0.000000 -0.201188
C46   C     C_1   1.000000 0.636631 0.500000 -0.195044
C47   C     C_1   0.500000 0.179007 0.000000 0.000823
C48   C     C_1   1.000000 0.679012 0.500000 0.001288
C49   C     C_1   0.500000 0.229263 0.000000 0.004024
C50   C     C_1   1.000000 0.729268 0.500000 0.004149
C51   C     C_1   1.000000 0.771652 0.500000 0.003321
C52   C     C_1   0.500000 0.271648 0.000000 0.003213
C53   C     C_1   1.000000 0.821909 0.500000 0.001986
C54   C     C_1   0.500000 0.321906 0.000000 0.002133
C55   C     C_1   0.000000 0.864294 0.500000 -0.188405
C56   C     C_1   0.500000 0.364292 0.000000 -0.188337
C57   C     C_1   0.500000 0.863271 1.000000 -0.189532
C58   C     C_1   0.000000 0.363274 0.500000 -0.187205
C59   C     C_1   0.500000 0.820898 1.000000 0.000341
C60   C     C_1   0.000000 0.320903 0.500000 -0.009549
C61   C     C_1   0.500000 0.770656 1.000000 0.002287
C62   C     C_1   0.000000 0.270665 0.500000 -0.000506
C63   C     C_3   0.228731 0.026297 0.034676 -0.233903
C64   C     C_3   0.771269 0.026297 0.965324 -0.233904
C65   C     C_3   0.770587 0.016413 0.040149 -0.277890
C66   C     C_3   0.229413 0.016414 0.959851 -0.277890
C67   C     C_3   0.728078 0.543408 0.508560 -0.237097
C68   C     C_3   0.271922 0.543409 0.491448 -0.237096
C69   C     C_3   0.270179 0.486735 0.541296 -0.278703
C70   C     C_3   0.729820 0.486742 0.458701 -0.278705
C71   C     C_1   0.000000 0.228290 0.500000 0.001971
C72   C     C_1   0.500000 0.728281 1.000000 0.002057
C73   C     C_1   0.000000 0.178044 0.500000 0.000631
C74   C     C_1   0.500000 0.678037 1.000000 0.001010
C75   C     C_1   0.000000 0.135666 0.500000 -0.188925
C76   C     C_1   0.500000 0.635660 1.000000 -0.188895
C77   C     C_3   0.270145 0.042078 0.994632 0.138077
C78   C     C_3   0.729855 0.042078 0.005369 0.138077
C79   C     C_3   0.769804 0.529428 0.468110 0.125757
C80   C     C_3   0.230196 0.529423 0.531895 0.125764
C81   C     C_3   0.310978 0.999815 0.000553 -0.139876
C82   C     C_3   0.689022 0.999815 0.999447 -0.139875
C83   C     C_3   0.810936 0.501941 0.500492 -0.139972
C84   C     C_3   0.189064 0.501941 0.499508 -0.139982
C85   C     C_3   0.269694 0.983379 0.040045 0.427696
C86   C     C_3   0.730306 0.983380 0.959954 0.427696
C87   C     C_3   0.729438 0.973785 0.033398 0.412920
C88   C     C_3   0.270562 0.973785 0.966601 0.412920
C89   C     C_3   0.769165 0.515033 0.540980 0.426769
C90   C     C_3   0.230835 0.515039 0.459022 0.426763
C91   C     C_3   0.228802 0.459553 0.508053 0.418797
C92   C     C_3   0.771197 0.459555 0.491940 0.418796
C93   C     C_3   0.229840 0.956373 0.005937 0.035813
C94   C     C_3   0.770160 0.956373 0.994062 0.035813
C95   C     C_3   0.729843 0.471923 0.532921 0.041095
C96   C     C_3   0.270157 0.471928 0.467074 0.041100
C97   C     C_3   0.189036 0.999395 0.999995 -0.160613
C98   C     C_3   0.810964 0.999395 0.000004 -0.160612
C99   C     C_3   0.689028 0.499971 0.500044 -0.158482
C100  C     C_3   0.310972 0.499971 0.499956 -0.158485
C101  C     C_1   0.000011 0.999998 0.136659 -0.210482
C102  C     C_1   0.999989 0.999998 0.863341 -0.210481
C103  C     C_1   0.500473 0.500030 0.636656 -0.210084
C104  C     C_1   0.499527 0.500030 0.363343 -0.210086
Cu1   Cu    Cu3+1 1.000000 0.957510 0.000000 0.928538
Cu2   Cu    Cu3+1 0.500000 0.457510 0.500000 0.929898
Cu3   Cu    Cu3+1 0.000000 0.042470 0.000000 0.949338
Cu4   Cu    Cu3+1 0.500000 0.542470 0.500000 0.940759
Cu5   Cu    Cu3+1 0.500000 0.999950 0.957510 0.994789
Cu6   Cu    Cu3+1 0.500000 0.999950 0.042490 0.994789
Cu7   Cu    Cu3+1 0.000000 0.499950 0.457510 0.985189
Cu8   Cu    Cu3+1 0.000000 0.499950 0.542490 0.985190
Cu9   Cu    Cu3+1 0.062770 0.999990 0.500000 0.961737
Cu10  Cu    Cu3+1 0.937230 0.999990 0.500000 0.961737
Cu11  Cu    Cu3+1 0.562770 0.499990 0.000000 0.961558
Cu12  Cu    Cu3+1 0.437230 0.499990 0.000000 0.961558
H1    H     H_    0.209994 0.048164 0.062300 0.148133
H2    H     H_    0.790006 0.048165 0.937701 0.148133
H3    H     H_    0.788876 0.030332 0.072542 0.137366
H4    H     H_    0.211124 0.030333 0.927458 0.137366
H5    H     H_    0.709064 0.577903 0.515163 0.159324
H6    H     H_    0.290936 0.577905 0.484851 0.159328
H7    H     H_    0.288168 0.475677 0.574858 0.135577
H8    H     H_    0.711830 0.475690 0.425138 0.135572
O1    O     O_R   0.000000 0.964120 0.061970 -0.568665
O2    O     O_R   0.000000 0.964120 0.938030 -0.568665
O3    O     O_R   0.500000 0.464120 0.561970 -0.568436
O4    O     O_R   0.500000 0.464120 0.438030 -0.568436
O5    O     O_R   0.053000 0.938010 0.500000 -0.557210
O6    O     O_R   0.947000 0.938010 0.500000 -0.557210
O7    O     O_R   0.553000 0.438010 0.000000 -0.557150
O8    O     O_R   0.447000 0.438010 0.000000 -0.557150
O9    O     O_R   0.000000 0.035860 0.061950 -0.565751
O10   O     O_R   0.000000 0.035860 0.938050 -0.565751
O11   O     O_R   0.500000 0.535860 0.561950 -0.565797
O12   O     O_R   0.500000 0.535860 0.438050 -0.565796
O13   O     O_R   0.091580 0.964120 0.000000 -0.584875
O14   O     O_R   0.908420 0.964120 0.000000 -0.584875
O15   O     O_R   0.591580 0.464120 0.500000 -0.585554
O16   O     O_R   0.408420 0.464120 0.500000 -0.585555
O17   O     O_R   0.091590 0.035860 0.000000 -0.578401
O18   O     O_R   0.908410 0.035860 0.000000 -0.578401
O19   O     O_R   0.591590 0.535860 0.500000 -0.588409
O20   O     O_R   0.408410 0.535860 0.500000 -0.588411
O21   O     O_R   0.500000 0.061920 0.964120 -0.572042
O22   O     O_R   0.500000 0.061920 0.035880 -0.572043
O23   O     O_R   0.000000 0.561920 0.464120 -0.569697
O24   O     O_R   0.000000 0.561920 0.535880 -0.569699
O25   O     O_R   0.408440 0.999940 0.964130 -0.569171
O26   O     O_R   0.591560 0.999940 0.035870 -0.569172
O27   O     O_R   0.591560 0.999940 0.964130 -0.555269
O28   O     O_R   0.408440 0.999940 0.035870 -0.555270
O29   O     O_R   0.908440 0.499940 0.464130 -0.589267
O30   O     O_R   0.091560 0.499940 0.535870 -0.589268
O31   O     O_R   0.091560 0.499940 0.464130 -0.555392
O32   O     O_R   0.908440 0.499940 0.535870 -0.555390
O33   O     O_R   0.500000 0.937960 0.964120 -0.563805
O34   O     O_R   0.500000 0.937960 0.035880 -0.563805
O35   O     O_R   0.000000 0.437960 0.464120 -0.567324
O36   O     O_R   0.000000 0.437960 0.535880 -0.567325
O37   O     O_R   0.053020 0.061970 0.500000 -0.557377
O38   O     O_R   0.946980 0.061970 0.500000 -0.557377
O39   O     O_R   0.553020 0.561970 0.000000 -0.557407
O40   O     O_R   0.446980 0.561970 0.000000 -0.557406
O41   O     O_R   0.053020 0.999990 0.438010 -0.557249
O42   O     O_R   0.946980 0.999990 0.561990 -0.557249
O43   O     O_R   0.946980 0.999990 0.438010 -0.557334
O44   O     O_R   0.053020 0.999990 0.561990 -0.557334
O45   O     O_R   0.553020 0.499990 0.938010 -0.557604
O46   O     O_R   0.446980 0.499990 0.061990 -0.557604
O47   O     O_R   0.446980 0.499990 0.938010 -0.557068
O48   O     O_R   0.553020 0.499990 0.061990 -0.557068
C105  C     C_3   0.294733 0.090155 0.988461 -0.837304
H9    H     H_    0.255076 0.114137 0.985286 0.242535
H10   H     H_    0.323352 0.099797 0.018292 0.228338
H11   H     H_    0.323906 0.091901 0.957258 0.230361
C106  C     C_3   0.705267 0.090155 0.011541 -0.837304
H12   H     H_    0.744924 0.114137 0.014716 0.242535
H13   H     H_    0.676648 0.099797 0.981711 0.228338
H14   H     H_    0.676094 0.091900 0.042744 0.230362
C107  C     C_3   0.793208 0.562137 0.431847 -0.818186
H15   H     H_    0.752942 0.578259 0.414643 0.234528
H16   H     H_    0.822310 0.588880 0.447820 0.225958
H17   H     H_    0.821467 0.543369 0.406340 0.239971
C108  C     C_3   0.206793 0.562127 0.568164 -0.818171
H18   H     H_    0.247059 0.578246 0.585371 0.234520
H19   H     H_    0.177691 0.588873 0.552196 0.225957
H20   H     H_    0.178534 0.543355 0.593669 0.239968
O49   O     O_3   0.298026 0.970955 0.081635 -0.599375
C109  C     C_3   0.259322 0.943241 0.108999 0.081934
H21   H     H_    0.287483 0.933177 0.138966 0.172343
H22   H     H_    0.247504 0.910946 0.091819 0.140016
C110  C     C_3   0.200896 0.968073 0.126487 -0.390883
H23   H     H_    0.214426 0.001515 0.141011 0.231920
H24   H     H_    0.167826 0.973812 0.098151 0.206122
C111  C     C_3   0.167426 0.940262 0.162945 -0.891579
H25   H     H_    0.152545 0.906956 0.148859 0.254258
H26   H     H_    0.125518 0.958950 0.174858 0.264873
H27   H     H_    0.198496 0.934495 0.192500 0.255929
O50   O     O_3   0.701974 0.970957 0.918364 -0.599375
C112  C     C_3   0.740677 0.943243 0.891000 0.081933
H28   H     H_    0.712516 0.933180 0.861032 0.172344
H29   H     H_    0.752497 0.910948 0.908179 0.140016
C113  C     C_3   0.799103 0.968076 0.873512 -0.390881
H30   H     H_    0.785573 0.001518 0.858989 0.231920
H31   H     H_    0.832173 0.973814 0.901848 0.206121
C114  C     C_3   0.832573 0.940265 0.837053 -0.891578
H32   H     H_    0.847454 0.906959 0.851138 0.254257
H33   H     H_    0.874481 0.958954 0.825140 0.264873
H34   H     H_    0.801503 0.934499 0.807498 0.255928
O51   O     O_3   0.702449 0.945539 0.066955 -0.597727
C115  C     C_3   0.742773 0.941882 0.104507 0.069110
H35   H     H_    0.741559 0.974044 0.124437 0.144194
H36   H     H_    0.791634 0.934719 0.093646 0.135346
C116  C     C_3   0.720583 0.902985 0.134925 -0.315172
H37   H     H_    0.672021 0.909744 0.146371 0.227699
H38   H     H_    0.720997 0.870742 0.115189 0.224207
C117  C     C_3   0.762260 0.897660 0.176503 -0.924887
H39   H     H_    0.810871 0.890024 0.165843 0.257687
H40   H     H_    0.744900 0.869192 0.197876 0.260765
H41   H     H_    0.761764 0.929298 0.197140 0.258399
O52   O     O_3   0.297551 0.945541 0.933044 -0.597726
C118  C     C_3   0.257228 0.941884 0.895492 0.069109
H42   H     H_    0.258439 0.974047 0.875563 0.144192
H43   H     H_    0.208367 0.934719 0.906352 0.135347
C119  C     C_3   0.279419 0.902989 0.865072 -0.315169
H44   H     H_    0.327981 0.909751 0.853626 0.227698
H45   H     H_    0.279007 0.870746 0.884806 0.224208
C120  C     C_3   0.237741 0.897665 0.823494 -0.924885
H46   H     H_    0.189131 0.890027 0.834154 0.257686
H47   H     H_    0.255103 0.869198 0.802119 0.260764
H48   H     H_    0.238236 0.929304 0.802858 0.258399
O53   O     O_3   0.796315 0.533768 0.580586 -0.602791
C121  C     C_3   0.758303 0.528254 0.619559 0.083796
H49   H     H_    0.785439 0.541258 0.648894 0.170591
H50   H     H_    0.749889 0.491924 0.627183 0.144833
C122  C     C_3   0.697212 0.555510 0.617219 -0.392462
H51   H     H_    0.707712 0.591470 0.608471 0.230915
H52   H     H_    0.666204 0.541202 0.590755 0.211870
C123  C     C_3   0.662210 0.553934 0.662465 -0.894243
H53   H     H_    0.650837 0.518214 0.671583 0.256073
H54   H     H_    0.618049 0.573381 0.659581 0.263389
H55   H     H_    0.690782 0.569306 0.689859 0.256528
O54   O     O_3   0.203685 0.533782 0.419419 -0.602793
C124  C     C_3   0.241693 0.528272 0.380444 0.083803
H56   H     H_    0.214557 0.541280 0.351111 0.170584
H57   H     H_    0.250102 0.491943 0.372815 0.144834
C125  C     C_3   0.302788 0.555524 0.382785 -0.392454
H58   H     H_    0.292291 0.591484 0.391534 0.230912
H59   H     H_    0.333794 0.541214 0.409247 0.211876
C126  C     C_3   0.337789 0.553948 0.337538 -0.894246
H60   H     H_    0.349159 0.518228 0.328419 0.256072
H61   H     H_    0.381952 0.573393 0.340423 0.263389
H62   H     H_    0.309218 0.569323 0.310144 0.256526
O55   O     O_3   0.200242 0.416764 0.514423 -0.612787
C127  C     C_3   0.238889 0.388479 0.540756 0.065081
H63   H     H_    0.238419 0.400226 0.576736 0.144553
H64   H     H_    0.287719 0.388380 0.527687 0.144868
C128  C     C_3   0.213604 0.339967 0.538953 -0.314945
H65   H     H_    0.164866 0.339513 0.551931 0.228038
H66   H     H_    0.213440 0.327987 0.503098 0.225609
C129  C     C_3   0.253063 0.307652 0.567439 -0.924594
H67   H     H_    0.301759 0.306924 0.554495 0.256037
H68   H     H_    0.233456 0.272776 0.565400 0.261939
H69   H     H_    0.253016 0.318567 0.603603 0.257588
O56   O     O_3   0.799758 0.416767 0.485564 -0.612788
C130  C     C_3   0.761112 0.388490 0.459222 0.065079
H70   H     H_    0.761582 0.400247 0.423246 0.144553
H71   H     H_    0.712283 0.388385 0.472292 0.144869
C131  C     C_3   0.786402 0.339979 0.461011 -0.314948
H72   H     H_    0.835140 0.339532 0.448034 0.228042
H73   H     H_    0.786564 0.327988 0.496863 0.225612
C132  C     C_3   0.746945 0.307673 0.432514 -0.924608
H74   H     H_    0.698249 0.306937 0.445459 0.256040
H75   H     H_    0.766557 0.272797 0.434541 0.261945
H76   H     H_    0.746992 0.318601 0.396355 0.257590
C133  C     C_3   0.206096 0.907547 0.008477 -0.827622
H77   H     H_    0.245926 0.883987 0.013208 0.233123
H78   H     H_    0.172591 0.903819 0.037056 0.229816
H79   H     H_    0.181821 0.898548 0.976515 0.238828
C134  C     C_3   0.793904 0.907547 0.991521 -0.827621
H80   H     H_    0.754073 0.883987 0.986789 0.233122
H81   H     H_    0.827409 0.903819 0.962941 0.229815
H82   H     H_    0.818178 0.898547 0.023482 0.238828
C135  C     C_3   0.704191 0.436843 0.566277 -0.846877
H83   H     H_    0.743006 0.421554 0.585831 0.239956
H84   H     H_    0.670264 0.453068 0.589769 0.219181
H85   H     H_    0.679786 0.409494 0.547488 0.242270
C136  C     C_3   0.295808 0.436853 0.433712 -0.846882
H86   H     H_    0.256994 0.421566 0.414156 0.239953
H87   H     H_    0.329734 0.453083 0.410221 0.219179
H88   H     H_    0.320216 0.409502 0.452495 0.242266

loop_
_geom_bond_atom_site_label_1
_geom_bond_atom_site_label_2
_ccdc_geom_bond_type
C118  H42   S    
C118  C119  S    
C134  H82   S    
C2    O10   A    
C66   C97   S    
Cu5   O27   S    
C41   O19   A    
Cu6   O28   S    
C40   C98   S    
C95   C99   S    
C57   C59   T    
C69   H7    S    
C85   O49   S    
C82   C87   S    
C87   C94   S    
C36   O44   A    
C132  H76   S    
C64   H2    S    
O54   C124  S    
C60   C62   S    
C9    C13   T    
C91   C96   S    
C11   C15   T    
C39   O17   A    
C40   O14   A    
C114  H34   S    
C68   C90   S    
C84   C91   S    
C93   C133  S    
C92   O56   S    
C48   C50   S    
C124  H56   S    
C63   C85   S    
Cu10  O6    S    
C121  H50   S    
C125  H59   S    
C65   C87   S    
C45   C47   T    
C5    C101  T    
C67   C79   S    
C71   C73   S    
C111  H25   S    
C128  H66   S    
C23   C37   S    
C28   C82   S    
Cu2   O3    S    
C17   C21   T    
Cu12  O47   S    
C121  C122  S    
C19   C23   T    
C116  H37   S    
C120  H46   S    
C78   C82   S    
C16   C20   S    
C26   O24   A    
C8    C104  T    
C31   O33   A    
C131  H73   S    
C1    C101  S    
Cu4   O20   S    
C3    C103  S    
C66   C77   S    
Cu8   O36   S    
C70   C79   S    
Cu5   O21   S    
Cu11  O48   S    
Cu6   O26   S    
C21   C35   S    
C44   O8    A    
C22   C36   S    
Cu1   O1    S    
C31   C57   S    
C135  H84   S    
Cu2   O15   S    
C91   O55   S    
C4    C104  S    
C6    C102  T    
Cu11  O39   S    
C81   C88   S    
Cu10  O38   S    
Cu9   O37   S    
C69   C100  S    
C70   H8    S    
C30   O30   A    
C115  H35   S    
C120  H47   S    
C110  H23   S    
C124  C125  S    
C58   C60   T    
C127  C128  S    
C27   O28   A    
C90   O54   S    
C78   C106  S    
Cu7   Cu8   S    
Cu5   O33   S    
Cu9   O44   S    
Cu10  O43   S    
Cu1   Cu3   S    
C74   C76   T    
Cu3   O10   S    
C34   O40   A    
C66   C88   S    
C130  C131  S    
C108  H19   S    
C2    C102  S    
Cu11  Cu12  S    
C89   O53   S    
C85   C93   S    
C33   C75   S    
C106  H13   S    
C127  H64   S    
Cu3   O17   S    
O53   C121  S    
Cu1   O14   S    
C7    C103  T    
C122  H51   S    
C112  H29   S    
O49   C109  S    
C84   C90   S    
C111  H27   S    
C1    O9    A    
C67   H5    S    
C36   O42   A    
C105  H10   S    
C83   C89   S    
C59   C61   S    
C42   O16   A    
C12   C16   T    
C43   O5    A    
Cu4   O11   S    
C10   C14   T    
C116  C117  S    
C126  H62   S    
C51   C53   S    
C68   C100  S    
C5    C9    S    
C42   C100  S    
C117  H40   S    
Cu12  O8    S    
C115  C116  S    
C8    C12   S    
C110  C111  S    
C136  H86   S    
Cu12  O46   S    
Cu7   O29   S    
C43   C55   S    
C25   C45   S    
C70   C99   S    
C117  H41   S    
C18   C22   T    
C64   C78   S    
C37   O47   A    
C130  H70   S    
C118  H43   S    
C38   O48   A    
C129  H67   S    
C134  H81   S    
C13   C17   S    
C133  H78   S    
C63   C97   S    
Cu2   Cu4   S    
C96   C100  S    
C123  H53   S    
C132  H75   S    
C62   C71   T    
Cu1   O13   S    
C113  H30   S    
C28   O27   A    
C119  H44   S    
Cu8   O32   S    
C133  H79   S    
C114  H33   S    
C69   C91   S    
C81   C85   S    
O55   C127  S    
C34   C76   S    
C93   C97   S    
C73   C75   T    
C32   C58   S    
C80   C84   S    
C129  H69   S    
C126  H60   S    
C107  H15   S    
C15   C19   S    
C109  H21   S    
C65   C98   S    
Cu9   O41   S    
C63   H1    S    
C39   C97   S    
C94   C98   S    
Cu2   O4    S    
C136  H88   S    
Cu7   O35   S    
C109  C110  S    
C109  H22   S    
C41   C99   S    
C25   O22   A    
Cu6   O34   S    
C67   C99   S    
C4    O12   A    
C32   O35   A    
C64   C98   S    
C131  C132  S    
C87   O51   S    
C64   C86   S    
C38   O46   A    
C46   C48   T    
C4    O4    A    
C114  H32   S    
C96   C136  S    
C72   C74   S    
C107  H16   S    
C68   H6    S    
C82   C86   S    
C123  H55   S    
C79   C107  S    
C89   C95   S    
C135  H83   S    
Cu7   O23   S    
C44   C56   S    
Cu2   O16   S    
O51   C115  S    
C113  C114  S    
C77   C81   S    
C49   C52   T    
C50   C51   T    
C65   H3    S    
C90   C96   S    
C94   C134  S    
C61   C72   T    
C111  H26   S    
C30   O31   A    
C115  H36   S    
C124  H57   S    
C42   O20   A    
Cu7   O31   S    
C121  H49   S    
C125  H58   S    
Cu9   Cu10  S    
C107  H17   S    
C77   C105  S    
C65   C78   S    
C70   C92   S    
C6    C10   S    
Cu4   O12   S    
C120  H48   S    
C33   O38   A    
Cu3   O9    S    
C95   C135  S    
Cu5   Cu6   S    
C37   O45   A    
C79   C83   S    
C130  H71   S    
C108  H18   S    
C3    O11   A    
C26   O23   A    
C41   O15   A    
C31   O34   A    
C26   C46   S    
C106  H12   S    
C131  H72   S    
Cu4   O19   S    
C68   C80   S    
C39   O13   A    
C28   O26   A    
C40   O18   A    
C112  H28   S    
C14   C18   S    
C33   O37   A    
Cu11  O45   S    
C128  C129  S    
C47   C49   S    
Cu11  O7    S    
C105  H9    S    
C44   O7    A    
C7    C11   S    
C83   C92   S    
Cu9   O5    S    
Cu1   O2    S    
C1    O1    A    
C29   C83   S    
C135  H85   S    
C116  H38   S    
C3    O3    A    
C126  H61   S    
C122  H52   S    
C67   C89   S    
C86   C94   S    
C35   O41   A    
C20   C24   T    
O50   C112  S    
C110  H24   S    
C24   C38   S    
C80   C108  S    
C125  C126  S    
C27   O25   A    
C66   H4    S    
C52   C54   S    
Cu10  O42   S    
C53   C55   T    
C54   C56   T    
C27   C81   S    
C34   O39   A    
C108  H20   S    
C129  H68   S    
C134  H80   S    
C92   C95   S    
Cu8   O24   S    
Cu5   O25   S    
C35   O43   A    
C106  H14   S    
C127  H63   S    
C123  H54   S    
C132  H74   S    
Cu3   O18   S    
C2    O2    A    
C113  H31   S    
C119  H45   S    
C29   O32   A    
C112  C113  S    
C122  C123  S    
C128  H65   S    
C29   O29   A    
C63   C77   S    
C105  H11   S    
C88   C93   S    
Cu12  O40   S    
C43   O6    A    
C25   O21   A    
C119  C120  S    
Cu6   O22   S    
C117  H39   S    
C136  H87   S    
C88   O52   S    
C30   C84   S    
O52   C118  S    
O56   C130  S    
C69   C80   S    
Cu8   O30   S    
C133  H77   S    
C86   O50   S    
C32   O36   A    
