data_mof_unit_53581.cif
_audit_creation_date              2012-10-26T17:13:05-0400
_audit_creation_method            fapswitch 2.2
_symmetry_space_group_name_H-M    P1
_symmetry_Int_Tables_number       1
_space_group_crystal_system       triclinic
_cell_length_a                    16.941228
_cell_length_b                    16.763335
_cell_length_c                    16.862229
_cell_angle_alpha                 67.70303
_cell_angle_beta                  67.397467
_cell_angle_gamma                 67.465242
_cell_volume                      3929.17861964

loop_
_atom_site_label
_atom_site_type_symbol
_atom_type_description
_atom_site_fract_x
_atom_site_fract_y
_atom_site_fract_z
_atom_type_partial_charge
C1    C     C_R   0.320993 0.960040 0.452686 0.000296
C2    C     C_R   0.308694 0.437733 0.002631 -0.000082
C3    C     C_R   0.541015 0.415479 0.988446 0.025493
C4    C     C_R   0.968005 0.475202 0.595724 0.024597
C5    C     C_R   0.022668 0.527271 0.408401 0.024235
C6    C     C_R   0.039579 0.676792 0.552449 -0.000495
C7    C     C_R   0.955006 0.323902 0.450300 -0.000437
C8    C     C_R   0.455769 0.980494 0.456091 -0.005084
C9    C     C_R   0.544057 0.020275 0.543695 -0.005097
C10   C     C_R   0.988775 0.452221 0.453581 -0.004897
C11   C     C_R   0.002902 0.549684 0.550292 -0.004719
C12   C     C_R   0.449247 0.450888 0.998768 -0.005668
C13   C     C_R   0.542734 0.541572 0.026926 -0.005018
C14   C     C_R   0.027162 0.828412 0.565069 0.552593
C15   C     C_R   0.678917 0.040455 0.547200 0.000331
C16   C     C_R   0.971809 0.171634 0.435459 0.552418
C17   C     C_R   0.828887 0.565647 0.025063 0.555765
C18   C     C_R   0.168860 0.431031 0.984260 0.556751
C19   C     C_R   0.565017 0.026867 0.828482 0.553178
C20   C     C_R   0.434969 0.973190 0.171513 0.552185
C21   C     C_R   0.434866 0.171518 0.973296 0.552572
C22   C     C_R   0.564721 0.828245 0.027998 0.552328
C23   C     C_R   0.985100 0.430553 0.168840 0.551524
C24   C     C_R   0.013267 0.569853 0.831911 0.563272
C25   C     C_R   0.171506 0.973654 0.434738 0.553159
C26   C     C_R   0.004300 0.433633 0.310544 -0.000988
C27   C     C_R   0.828490 0.026409 0.565244 0.552188
C28   C     C_R   0.409600 0.965954 0.410121 0.023662
C29   C     C_R   0.590278 0.034645 0.589727 0.023693
C30   C     C_R   0.982075 0.403534 0.404845 0.025392
C31   C     C_R   0.010782 0.598055 0.598468 0.025729
C32   C     C_R   0.402029 0.404086 0.987194 0.024125
C33   C     C_R   0.590647 0.588351 0.037557 0.023976
C34   C     C_R   0.270092 0.960306 0.401121 -0.024944
C35   C     C_R   0.729885 0.039913 0.598838 -0.024980
C36   C     C_R   0.986311 0.390609 0.263439 -0.023147
C37   C     C_R   0.988908 0.568250 0.692603 -0.002424
C38   C     C_R   0.009585 0.610462 0.738450 -0.023100
C39   C     C_R   0.398329 0.269594 0.964394 -0.026278
C40   C     C_R   0.599227 0.728779 0.043355 -0.026994
C41   C     C_R   0.598826 0.040978 0.729540 -0.025260
C42   C     C_R   0.401149 0.959227 0.270430 -0.025138
C43   C     C_R   0.731253 0.599217 0.037236 -0.021662
C44   C     C_R   0.262967 0.392385 0.985586 -0.022163
C45   C     C_R   0.035534 0.730777 0.602474 -0.026524
C46   C     C_R   0.961188 0.269635 0.399207 -0.026542
C47   C     C_R   0.454739 0.050531 0.711211 -0.112766
C48   C     C_R   0.448093 0.322217 0.963372 -0.000905
C49   C     C_R   0.545157 0.950084 0.288652 -0.112749
C50   C     C_R   0.070964 0.698877 0.458464 -0.114055
C51   C     C_R   0.923143 0.301578 0.544592 -0.114719
C52   C     C_R   0.717607 0.456833 0.031109 -0.122513
C53   C     C_R   0.265027 0.514919 0.035411 -0.115136
C54   C     C_R   0.287015 0.955706 0.545114 -0.113359
C55   C     C_R   0.712866 0.044945 0.454740 -0.113862
C56   C     C_R   0.542043 0.294588 0.942502 -0.113399
C57   C     C_R   0.453315 0.704885 0.070246 -0.113997
C58   C     C_R   0.044673 0.504666 0.267066 -0.114263
C59   C     C_R   0.547258 0.675192 0.050584 -0.001468
C60   C     C_R   0.946529 0.498412 0.736943 -0.114310
C61   C     C_R   0.311707 0.959407 0.311627 -0.167829
C62   C     C_R   0.688303 0.040681 0.688373 -0.167752
C63   C     C_R   0.969287 0.307178 0.307910 -0.162599
C64   C     C_R   0.027722 0.693420 0.693588 -0.161195
C65   C     C_R   0.307955 0.308159 0.969769 -0.163585
C66   C     C_R   0.689406 0.688719 0.039627 -0.165147
C67   C     C_R   0.671380 0.021829 0.412638 0.010989
C68   C     C_R   0.328440 0.978982 0.587141 0.010958
C69   C     C_R   0.937927 0.450813 0.689440 0.012716
C70   C     C_R   0.547408 0.042760 0.677947 -0.000610
C71   C     C_R   0.051213 0.552879 0.314841 0.013077
C72   C     C_R   0.405995 0.658750 0.060032 0.014781
C73   C     C_R   0.587341 0.336213 0.961417 0.015848
C74   C     C_R   0.587750 0.972941 0.329819 0.011975
C75   C     C_R   0.412074 0.027857 0.669965 0.011941
C76   C     C_R   0.312098 0.564698 0.039649 0.011351
C77   C     C_R   0.675404 0.417438 0.006210 0.006087
C78   C     C_R   0.926118 0.352052 0.593004 0.014746
C79   C     C_R   0.065184 0.650000 0.410655 0.014931
C80   C     C_R   0.714599 0.009418 0.326813 -0.124040
C81   C     C_R   0.452508 0.957716 0.321945 -0.000494
C82   C     C_R   0.285194 0.991471 0.672936 -0.123383
C83   C     C_R   0.900202 0.378570 0.734343 -0.123999
C84   C     C_R   0.085479 0.627135 0.269916 -0.122735
C85   C     C_R   0.313920 0.693124 0.072246 -0.125667
C86   C     C_R   0.677961 0.297969 0.956654 -0.126420
C87   C     C_R   0.674221 0.982342 0.286911 -0.123113
C88   C     C_R   0.325575 0.018540 0.712839 -0.122896
C89   C     C_R   0.267619 0.646865 0.061055 -0.128614
C90   C     C_R   0.720826 0.336450 0.982344 -0.134730
C91   C     C_R   0.894777 0.329327 0.686577 -0.125991
C92   C     C_R   0.681263 0.547528 0.035764 -0.000735
C93   C     C_R   0.093193 0.674981 0.317192 -0.124188
C94   C     C_R   0.542947 0.988334 0.414112 0.025015
C95   C     C_R   0.456863 0.012490 0.585655 0.025022
C96   C     C_R   0.961397 0.426186 0.547406 0.024763
C97   C     C_R   0.029794 0.575908 0.456552 0.024506
C98   C     C_R   0.404377 0.531555 0.023804 0.025234
C99   C     C_R   0.586617 0.458817 0.006072 0.026514
C100  C     C_R   0.586360 0.009452 0.457177 0.025162
C101  C     C_R   0.413449 0.991374 0.542589 0.025138
C102  C     C_R   0.451339 0.577995 0.035582 0.025338
Cu1   Cu    Cu3+1 0.995180 0.995180 0.424630 0.903794
Cu2   Cu    Cu3+1 0.004820 0.004820 0.575370 0.905941
Cu3   Cu    Cu3+1 0.995180 0.424630 0.995180 0.897320
Cu4   Cu    Cu3+1 0.004820 0.575370 0.004820 0.905261
Cu5   Cu    Cu3+1 0.424630 0.995180 0.995180 0.902524
Cu6   Cu    Cu3+1 0.575370 0.004820 0.004820 0.901861
H1    H     H_    0.272503 0.962721 0.272065 0.155387
H2    H     H_    0.866650 0.273041 0.722925 0.102419
H3    H     H_    0.790083 0.304204 0.981310 0.094075
H4    H     H_    0.197483 0.676617 0.066401 0.091568
H5    H     H_    0.219109 0.982861 0.708067 0.104046
H6    H     H_    0.780677 0.018044 0.291677 0.102872
H7    H     H_    0.714618 0.236436 0.936716 0.099831
H8    H     H_    0.277958 0.756278 0.089154 0.099597
H9    H     H_    0.104098 0.649414 0.198172 0.095007
H10   H     H_    0.876186 0.359205 0.806546 0.105546
H11   H     H_    0.412772 0.075925 0.767976 0.148307
H12   H     H_    0.727559 0.037155 0.727987 0.155557
H13   H     H_    0.587198 0.924591 0.231966 0.148350
H14   H     H_    0.102997 0.752112 0.421467 0.135798
H15   H     H_    0.892844 0.247004 0.581154 0.134854
H16   H     H_    0.776639 0.411751 0.049289 0.155491
H17   H     H_    0.194370 0.536099 0.063705 0.137516
H18   H     H_    0.229807 0.932222 0.587883 0.149885
H19   H     H_    0.770133 0.068364 0.412044 0.149040
H20   H     H_    0.581778 0.241001 0.911101 0.140815
H21   H     H_    0.414942 0.762130 0.096566 0.141501
H22   H     H_    0.075504 0.521413 0.196197 0.132917
H23   H     H_    0.965346 0.269569 0.270253 0.157252
H24   H     H_    0.916675 0.481947 0.808246 0.146346
H25   H     H_    0.033447 0.730526 0.730621 0.158354
H26   H     H_    0.271228 0.270718 0.964461 0.157963
H27   H     H_    0.728779 0.729083 0.034912 0.158383
H28   H     H_    0.290263 0.029475 0.778380 0.104174
H29   H     H_    0.709530 0.971418 0.221366 0.103674
H30   H     H_    0.119739 0.732316 0.280606 0.101852
O1    O     O_R   0.124540 0.978640 0.385460 -0.510189
O2    O     O_R   0.124540 0.385460 0.978640 -0.504938
O3    O     O_R   0.021360 0.875460 0.614540 -0.510566
O4    O     O_R   0.978640 0.124540 0.385460 -0.511407
O5    O     O_R   0.013780 0.867370 0.487190 -0.510157
O6    O     O_R   0.986220 0.132630 0.512810 -0.509257
O7    O     O_R   0.867370 0.487190 0.013780 -0.535428
O8    O     O_R   0.132630 0.512810 0.986220 -0.524912
O9    O     O_R   0.487190 0.013780 0.867370 -0.516696
O10   O     O_R   0.512810 0.986220 0.132630 -0.517273
O11   O     O_R   0.512810 0.132630 0.986220 -0.513631
O12   O     O_R   0.875460 0.021360 0.614540 -0.510720
O13   O     O_R   0.487190 0.867370 0.013780 -0.512574
O14   O     O_R   0.986220 0.512810 0.132630 -0.522310
O15   O     O_R   0.013780 0.487190 0.867370 -0.513766
O16   O     O_R   0.132630 0.986220 0.512810 -0.518953
O17   O     O_R   0.867370 0.013780 0.487190 -0.519336
O18   O     O_R   0.978640 0.385460 0.124540 -0.512666
O19   O     O_R   0.021360 0.614540 0.875460 -0.504713
O20   O     O_R   0.385460 0.124540 0.978640 -0.509936
O21   O     O_R   0.614540 0.875460 0.021360 -0.509758
O22   O     O_R   0.614540 0.021360 0.875460 -0.510286
O23   O     O_R   0.385460 0.978640 0.124540 -0.511249
O24   O     O_R   0.875460 0.614540 0.021360 -0.505046

loop_
_geom_bond_atom_site_label_1
_geom_bond_atom_site_label_2
_ccdc_geom_bond_type
Cu3   O15   S    
C23   O14   A    
C6    C45   A    
C51   H15   S    
C21   O20   A    
C74   C94   A    
C17   O7    A    
C50   H14   S    
C61   H1    S    
C50   C79   A    
C60   H24   S    
C72   C85   A    
C75   C95   A    
Cu6   O21   S    
C54   H18   S    
C89   H4    S    
C19   O22   A    
C90   H3    S    
C83   H10   S    
C57   H21   S    
C16   O6    A    
C79   C93   A    
C80   C87   A    
C18   C44   S    
C58   C71   A    
C57   C59   A    
C54   C68   A    
C22   O21   A    
Cu2   O12   S    
C2    C32   A    
C80   H6    S    
C49   C81   A    
C93   H30   S    
C4    C96   A    
Cu5   O23   S    
C78   C96   A    
C84   H9    S    
C1    C28   A    
C24   C38   S    
Cu5   Cu6   S    
C20   O10   A    
C3    C12   A    
C63   H23   S    
C74   C87   A    
C36   C63   A    
C8    C101  A    
C9    C95   A    
C62   H12   S    
C65   H26   S    
C9    C29   A    
C25   C34   S    
Cu5   O13   S    
C47   H11   S    
C6    C31   A    
C28   C81   A    
C14   O3    A    
C11   C31   A    
C33   C59   A    
C7    C30   A    
C40   C66   A    
C23   O18   A    
C12   C32   A    
C39   C65   A    
C44   C65   A    
C42   C81   A    
C41   C62   A    
C87   H29   S    
C15   C35   A    
C4    C69   A    
C1    C34   A    
C15   C29   A    
C14   C45   S    
C38   C64   A    
C27   O17   A    
C49   H13   S    
C77   C90   A    
Cu4   O14   S    
C7    C46   A    
C8    C94   A    
C68   C101  A    
C88   H28   S    
C86   C90   A    
C33   C92   A    
C2    C44   A    
C85   C89   A    
C22   C40   S    
C27   C35   S    
C10   C96   A    
C98   C102  A    
C34   C61   A    
C19   O9    A    
C31   C37   A    
C86   H7    S    
C15   C55   A    
C13   C99   A    
C16   O4    A    
C1    C54   A    
C17   C43   S    
C47   C70   A    
C13   C33   A    
C37   C38   A    
C69   C83   A    
Cu1   O1    S    
Cu5   O9    S    
C10   C30   A    
C20   C42   S    
C21   C39   S    
C94   C100  A    
C66   H27   S    
Cu3   O7    S    
C71   C84   A    
Cu2   O6    S    
C49   C74   A    
C6    C50   A    
C4    C11   A    
C18   O2    A    
C26   C58   A    
C42   C61   A    
C53   H17   S    
C67   C100  A    
Cu1   O17   S    
C5    C97   A    
C26   C30   A    
C27   O12   A    
C21   O11   A    
C8    C28   A    
C52   C92   A    
C53   C76   A    
C22   O13   A    
C16   C46   S    
C52   C77   A    
Cu1   O4    S    
Cu5   O20   S    
C24   O15   A    
C91   H2    S    
C29   C70   A    
C26   C36   A    
C48   C56   A    
C64   H25   S    
C56   C73   A    
C25   O1    A    
C25   O16   A    
C24   O19   A    
C12   C98   A    
C79   C97   A    
C85   H8    S    
C67   C80   A    
C82   H5    S    
C55   H19   S    
C18   O8    A    
C2    C53   A    
Cu1   O5    S    
C55   C67   A    
Cu6   O22   S    
Cu4   O24   S    
C78   C91   A    
C9    C100  A    
Cu4   O19   S    
C83   C91   A    
Cu3   Cu4   S    
C76   C89   A    
C45   C64   A    
C95   C101  A    
C43   C92   A    
Cu4   O8    S    
C46   C63   A    
C11   C97   A    
C68   C82   A    
C14   O5    A    
C51   C78   A    
C7    C51   A    
C5    C10   A    
C5    C71   A    
Cu3   O2    S    
C52   H16   S    
C32   C48   A    
C72   C102  A    
C60   C69   A    
C58   H22   S    
C43   C66   A    
C82   C88   A    
C20   O23   A    
C77   C99   A    
C35   C62   A    
C84   C93   A    
C56   H20   S    
C57   C72   A    
C3    C73   A    
C73   C86   A    
C37   C60   A    
C17   O24   A    
C47   C75   A    
Cu6   O11   S    
C3    C99   A    
C75   C88   A    
Cu3   O18   S    
C23   C36   S    
Cu1   Cu2   S    
C40   C59   A    
Cu2   O3    S    
C41   C70   A    
Cu2   O16   S    
C13   C102  A    
C76   C98   A    
C19   C41   S    
C39   C48   A    
Cu6   O10   S    
