data_mof_unit_53940.cif
_audit_creation_date              2013-03-05T16:05:41-0500
_audit_creation_method            fapswitch 2.2
_symmetry_space_group_name_H-M    P1
_symmetry_Int_Tables_number       1
_space_group_crystal_system       triclinic
_cell_length_a                    26.174786
_cell_length_b                    7.194664
_cell_length_c                    23.940955
_cell_angle_alpha                 90.050292
_cell_angle_beta                  101.536506
_cell_angle_gamma                 90.072172
_cell_volume                      4417.44154074

loop_
_atom_site_label
_atom_site_type_symbol
_atom_site_description
_atom_site_fract_x
_atom_site_fract_y
_atom_site_fract_z
_atom_type_partial_charge
O1    O     O_R   0.547620 0.505720 0.453310 -0.592502
O2    O     O_R   0.452380 0.005720 0.546690 -0.591446
O3    O     O_R   0.442260 0.172470 0.436770 -0.578962
O4    O     O_R   0.557740 0.672470 0.563230 -0.575631
C1    C     C_R   0.076209 0.468202 0.078588 0.956123
C2    C     C_R   0.923804 0.967915 0.921444 0.946064
C3    C     C_R   0.424090 0.344392 0.421638 0.965952
C4    C     C_R   0.575885 0.844698 0.578338 0.959578
O5    O     O_R   0.546600 0.175780 0.446490 -0.581314
O6    O     O_R   0.453400 0.675780 0.553510 -0.581606
O7    O     O_R   0.557460 0.008970 0.556480 -0.571271
O8    O     O_R   0.442540 0.508970 0.443520 -0.574225
C5    C     C_R   0.561019 0.345076 0.432995 0.952430
C6    C     C_R   0.438999 0.845057 0.567020 0.955140
O9    O     O_R   0.047630 0.803580 0.953300 -0.588365
O10   O     O_R   0.952370 0.303580 0.046700 -0.590528
O11   O     O_3   0.503440 0.340340 0.536080 -0.277477
O12   O     O_3   0.496560 0.840340 0.463920 -0.280461
V1    V     V_3+5 0.499360 0.064140 0.493310 1.209666
V2    V     V_3+5 0.500640 0.564140 0.506690 1.210334
O13   O     O_R   0.057730 0.636870 0.063240 -0.578155
O14   O     O_R   0.942270 0.136870 0.936760 -0.568768
O15   O     O_3   0.996540 0.468950 0.963950 -0.280165
O16   O     O_3   0.003460 0.968950 0.036050 -0.285575
C7    C     C_R   0.108304 0.785093 0.868770 -0.140203
C8    C     C_R   0.891662 0.285051 0.131210 -0.147241
H1    H     H_    0.087122 0.660798 0.875879 0.133947
H2    H     H_    0.912789 0.160824 0.124055 0.133678
C9    C     C_R   0.144233 0.773866 0.832721 -0.140148
C10   C     C_R   0.855748 0.273808 0.167279 -0.144967
H3    H     H_    0.150207 0.641352 0.813506 0.108762
H4    H     H_    0.849727 0.141342 0.186463 0.108853
C11   C     C_R   0.173096 0.930740 0.822682 0.115600
C12   C     C_R   0.826958 0.430601 0.177375 0.117358
C13   C     C_R   0.164669 0.099923 0.848855 -0.143742
C14   C     C_R   0.835444 0.599721 0.151246 -0.147728
H5    H     H_    0.186080 0.223455 0.841515 0.114344
H6    H     H_    0.814094 0.723194 0.158635 0.112800
C15   C     C_R   0.128187 0.111953 0.884313 -0.128282
C16   C     C_R   0.871906 0.611768 0.115767 -0.135337
H7    H     H_    0.122801 0.244380 0.903871 0.134621
H8    H     H_    0.877338 0.744152 0.096245 0.131932
C17   C     C_R   0.099791 0.954267 0.895121 -0.123903
C18   C     C_R   0.900228 0.454162 0.104897 -0.121809
C19   C     C_R   0.262362 0.993804 0.803420 -0.142564
C20   C     C_R   0.737740 0.493458 0.196682 -0.148281
H9    H     H_    0.272918 0.062236 0.844431 0.138896
H10   H     H_    0.727209 0.561691 0.155690 0.135328
C21   C     C_R   0.299684 0.979052 0.769144 -0.139664
C22   C     C_R   0.700428 0.478772 0.230971 -0.139330
H11   H     H_    0.338176 0.035378 0.785180 0.135993
H12   H     H_    0.661964 0.534940 0.214968 0.134901
C23   C     C_R   0.287775 0.890048 0.715622 0.106300
C24   C     C_R   0.712309 0.390033 0.284468 0.107366
C25   C     C_R   0.237521 0.813779 0.697954 -0.160429
C26   C     C_R   0.762520 0.313947 0.302098 -0.163075
H13   H     H_    0.226388 0.747009 0.656785 0.113898
H14   H     H_    0.773626 0.247377 0.343248 0.111803
C27   C     C_R   0.200470 0.825989 0.732734 -0.164367
C28   C     C_R   0.799562 0.326097 0.267304 -0.163574
H15   H     H_    0.162088 0.766933 0.717768 0.117092
H16   H     H_    0.837915 0.267206 0.282240 0.116869
C29   C     C_R   0.212388 0.917148 0.785693 0.089347
C30   C     C_R   0.787675 0.417005 0.214372 0.090197
C31   C     C_R   0.329791 0.722174 0.643603 -0.118187
C32   C     C_R   0.670208 0.222315 0.356431 -0.121223
H17   H     H_    0.303226 0.606646 0.643365 0.108568
H18   H     H_    0.696704 0.106844 0.356623 0.107732
C33   C     C_R   0.366649 0.712216 0.608665 -0.062772
C34   C     C_R   0.633339 0.212370 0.391358 -0.069958
H19   H     H_    0.366192 0.591923 0.581324 0.134824
H20   H     H_    0.633723 0.092155 0.418649 0.133652
C35   C     C_R   0.403030 0.855959 0.608088 -0.200019
C36   C     C_R   0.597034 0.356011 0.391975 -0.198960
C37   C     C_R   0.402532 0.010505 0.645093 -0.093840
C38   C     C_R   0.597647 0.510481 0.355055 -0.091165
C39   C     C_R   0.363890 0.021736 0.678296 -0.190144
C40   C     C_R   0.636299 0.521731 0.321867 -0.194121
H21   H     H_    0.362905 0.142979 0.704892 0.142038
H22   H     H_    0.637360 0.642925 0.295330 0.141711
C41   C     C_R   0.327450 0.877983 0.678475 0.096066
C42   C     C_R   0.672643 0.378030 0.321624 0.097215
C43   C     C_3   0.775850 0.720350 0.783575 -0.457366
C44   C     C_3   0.209472 0.227869 0.235380 -0.523317
C45   C     C_3   0.743638 0.032892 0.808073 0.103278
C46   C     C_3   0.259239 0.444032 0.183523 0.098037
C47   C     C_3   0.695593 0.022118 0.756999 0.089126
C48   C     C_3   0.308851 0.433968 0.232822 0.082619
H23   H     H_    0.694837 0.636469 0.756165 0.198217
H24   H     H_    0.282582 0.089373 0.271059 0.184560
H25   H     H_    0.768180 0.663000 0.824261 0.227995
H26   H     H_    0.209653 0.119377 0.202236 0.206785
H27   H     H_    0.734025 0.959821 0.845627 0.131153
H28   H     H_    0.259816 0.324252 0.154139 0.149266
H29   H     H_    0.689593 0.162904 0.737462 0.157894
H30   H     H_    0.327368 0.574180 0.238129 0.153589
C49   C     C_1   0.621387 0.856069 0.624298 -0.183175
C50   C     C_1   0.378535 0.354805 0.375657 -0.190528
C51   C     C_3   0.791447 0.928441 0.792189 0.130357
C52   C     C_3   0.208284 0.424115 0.207987 0.164351
C53   C     C_3   0.725822 0.695460 0.735857 -0.173126
C54   C     C_3   0.258916 0.203745 0.283874 -0.175588
C55   C     C_3   0.706835 0.888249 0.709176 0.046681
C56   C     C_3   0.292929 0.385628 0.290909 0.039441
C57   C     C_3   0.752510 0.977811 0.685880 -0.463957
C58   C     C_3   0.258597 0.551040 0.303563 -0.381206
C59   C     C_3   0.801616 0.001428 0.734179 -0.333319
C60   C     C_3   0.208216 0.567593 0.256648 -0.334366
C61   C     C_1   0.659659 0.869610 0.662435 0.064351
C62   C     C_1   0.340207 0.367478 0.337536 0.035605
C63   C     C_1   0.839291 0.944619 0.838119 0.084581
C64   C     C_1   0.160610 0.444279 0.162093 0.028032
C65   C     C_1   0.877976 0.956876 0.875821 -0.231412
C66   C     C_1   0.122006 0.457663 0.124321 -0.241266
H31   H     H_    0.834678 0.923644 0.722476 0.182509
H32   H     H_    0.173694 0.542693 0.276262 0.188068
H33   H     H_    0.813285 0.150073 0.737442 0.207924
H34   H     H_    0.204117 0.711599 0.239746 0.191974
H35   H     H_    0.762339 0.892591 0.650787 0.209204
H36   H     H_    0.248303 0.536282 0.346124 0.221772
H37   H     H_    0.809401 0.640489 0.773905 0.234075
H38   H     H_    0.172944 0.205479 0.251616 0.200271
H39   H     H_    0.740582 0.115813 0.666896 0.199940
H40   H     H_    0.281058 0.683073 0.305354 0.202022
V3    V     V_3+5 0.000640 0.745210 0.006690 1.173242
V4    V     V_3+5 0.999360 0.245210 0.993310 1.178125
O17   O     O_R   0.057440 0.306950 0.056520 -0.583184
O18   O     O_R   0.942560 0.806950 0.943480 -0.582473
O19   O     O_R   0.953390 0.633680 0.053510 -0.597165
O20   O     O_R   0.046610 0.133680 0.946490 -0.596668
C67   C     C_R   0.937821 0.464694 0.065770 0.908310
C68   C     C_R   0.062184 0.964736 0.934236 0.910967
C69   C     C_2   0.443433 0.156750 0.653138 1.052414
O21   O     O_2   0.431926 0.318502 0.660355 -0.643914
O22   O     O_R   0.495495 0.108677 0.654923 -0.763539
H41   H     H_    0.519710 0.220157 0.661188 0.354867
C70   C     C_2   0.556848 0.656612 0.347082 1.049994
O23   O     O_2   0.568515 0.818555 0.340271 -0.644812
O24   O     O_R   0.504712 0.608244 0.344943 -0.771844
H42   H     H_    0.480574 0.719689 0.338783 0.343711
N1    N     N_R   0.754235 0.227783 0.825405 0.229326
O25   O     O_R   0.718692 0.321928 0.844125 -0.356509
O26   O     O_R   0.799095 0.306131 0.825614 -0.449087
N2    N     N_R   0.259348 0.614449 0.149747 0.249009
O27   O     O_R   0.258068 0.602649 0.095252 -0.344745
O28   O     O_R   0.262642 0.777731 0.173639 -0.393599
N3    N     N_R   0.647514 0.973531 0.776610 0.254944
O29   O     O_R   0.607388 0.083612 0.765070 -0.318276
O30   O     O_R   0.645039 0.827609 0.808040 -0.357742
N4    N     N_R   0.348096 0.305502 0.218743 0.247731
O31   O     O_R   0.395322 0.364631 0.220051 -0.323466
O32   O     O_R   0.335989 0.136337 0.201774 -0.346331
C71   C     C_2   0.733963 0.554784 0.691196 1.025810
O33   O     O_2   0.698468 0.449035 0.670914 -0.671568
O34   O     O_R   0.781179 0.547372 0.672350 -0.817251
H43   H     H_    0.781314 0.447627 0.642446 0.312270
C72   C     C_2   0.244109 0.141106 0.339041 1.009892
O35   O     O_2   0.265128 0.004391 0.363895 -0.669645
O36   O     O_R   0.206141 0.236879 0.361191 -0.812736
H44   H     H_    0.199857 0.180555 0.398031 0.323396

loop_
_geom_bond_atom_site_label_1
_geom_bond_atom_site_label_2
_geom_bond_distance
_ccdc_geom_bond_type
C32   H18   1.082296 S    
C48   H30   1.114717 S    
V4    O17   1.968615 S    
C50   C62   1.217340 T    
C3    C50   1.454149 S    
C25   C27   1.401656 A    
C1    C66   1.454944 S    
C44   C54   1.566161 S    
C13   C15   1.401517 A    
N3    O29   1.301194 A    
O4    C4    1.349386 A    
C7    C17   1.408779 A    
C56   C58   1.557747 S    
C8    C18   1.408767 A    
O22   H41   1.013914 S    
C15   H7    1.082992 S    
C32   C34   1.399380 A    
C38   C70   1.484554 S    
C18   C67   1.489991 S    
C70   O24   1.398851 S    
O7    V1    1.959613 S    
C22   C24   1.409716 A    
C47   N3    1.470319 S    
C23   C41   1.498802 S    
C17   C68   1.490075 S    
C13   H5    1.083180 S    
C38   C40   1.408138 A    
O3    C3    1.349353 A    
N1    O26   1.300950 A    
C54   C56   1.571652 S    
C46   C48   1.572244 S    
O14   V4    1.964561 S    
V4    O20   1.996328 S    
C44   H38   1.113360 S    
C2    O14   1.331363 A    
C9    C11   1.404751 A    
O11   V2    1.753497 S    
C49   C61   1.216727 T    
C57   H39   1.111158 S    
C28   H16   1.083017 S    
O12   V1    1.752194 S    
C19   H9    1.083086 S    
C33   H19   1.083276 S    
O10   C67   1.329233 A    
O5    C5    1.333688 A    
H24   C54   1.109871 S    
C46   H28   1.114006 S    
C45   H27   1.113106 S    
O5    V1    1.995993 S    
C72   O35   1.222990 D    
O9    C68   1.329340 A    
O6    V2    1.996454 S    
C21   H11   1.081988 S    
C47   H29   1.114119 S    
C34   C36   1.406892 A    
V3    O18   1.970077 S    
C22   H12   1.081996 S    
C33   C35   1.406888 A    
C53   C71   1.517511 S    
C71   O34   1.398900 S    
C46   C52   1.566681 S    
C12   C14   1.406203 A    
C58   H36   1.109978 S    
C39   H21   1.082886 S    
C53   C55   1.566922 S    
C43   C51   1.553992 S    
C35   C37   1.422769 A    
O8    V2    1.958304 S    
C54   C72   1.517566 S    
C64   C66   1.217762 T    
C48   C56   1.568730 S    
C20   H10   1.083088 S    
C23   C25   1.409069 A    
C7    C9    1.400192 A    
C3    O8    1.343870 A    
C24   C26   1.409056 A    
C27   H15   1.083016 S    
C52   C60   1.556124 S    
C10   C12   1.404757 A    
C45   C47   1.570723 S    
C46   N2    1.469643 S    
C44   C52   1.555048 S    
C6    C35   1.493168 S    
C60   H34   1.110115 S    
C14   C16   1.401425 A    
N2    O28   1.301344 A    
O6    C6    1.333869 A    
C45   N1    1.472133 S    
C15   C17   1.407769 A    
C31   H17   1.082291 S    
C19   C29   1.403943 A    
C26   C28   1.401626 A    
C20   C30   1.403938 A    
O20   C68   1.333466 A    
C4    C49   1.453030 S    
C2    C65   1.453893 S    
C45   C51   1.570854 S    
C32   C42   1.405811 A    
C57   C59   1.556499 S    
C40   C42   1.406622 A    
C31   C41   1.405832 A    
O36   H44   1.013738 S    
C39   C41   1.406635 A    
C11   C29   1.488581 S    
C51   C63   1.496517 S    
C1    O17   1.326696 A    
C12   C30   1.488482 S    
C19   C21   1.399890 A    
C63   C65   1.217317 T    
C43   H37   1.112342 S    
O3    V1    1.967007 S    
C37   C39   1.408247 A    
C59   H31   1.112873 S    
C36   C38   1.422670 A    
O15   V4    1.752799 S    
C47   C55   1.567987 S    
C52   C64   1.495924 S    
C25   H13   1.082171 S    
C69   O21   1.223208 D    
C55   C57   1.555952 S    
N4    O32   1.301313 A    
C27   C29   1.405273 A    
O1    C5    1.328015 A    
O13   V3    1.966999 S    
C24   C42   1.498662 S    
C51   C59   1.556977 S    
C56   C62   1.497544 S    
O1    V2    1.987700 S    
C43   C53   1.566066 S    
H23   C53   1.109716 S    
O2    V1    1.987515 S    
C48   N4    1.470858 S    
N2    O27   1.301071 A    
O24   H42   1.013925 S    
C37   C69   1.484810 S    
C8    C10   1.400195 A    
C7    H1    1.082974 S    
C43   H25   1.112698 S    
C70   O23   1.223402 D    
C20   C22   1.399820 A    
C8    H2    1.082973 S    
C28   C30   1.405255 A    
C55   C61   1.497206 S    
C60   H32   1.112904 S    
C14   H6    1.083185 S    
C2    O18   1.326427 A    
C9    H3    1.083236 S    
N1    O25   1.301157 A    
C10   H4    1.083235 S    
O16   V3    1.751494 S    
C58   C60   1.556569 S    
C4    O7    1.343451 A    
C31   C33   1.399416 A    
C16   H8    1.082990 S    
C11   C13   1.406247 A    
C26   H14   1.082174 S    
C40   H22   1.082907 S    
N3    O30   1.301277 A    
O2    C6    1.328105 A    
C21   C23   1.409758 A    
O4    V2    1.964569 S    
V3    O19   1.995864 S    
C16   C18   1.407763 A    
C1    O13   1.331448 A    
C5    C36   1.493163 S    
C72   O36   1.398408 S    
O9    V3    1.987820 S    
C58   H40   1.112794 S    
O34   H43   1.013748 S    
C69   O22   1.398690 S    
N4    O31   1.301207 A    
C57   H35   1.110825 S    
C34   H20   1.083270 S    
C44   H26   1.113271 S    
C71   O33   1.222669 D    
O10   V4    1.988001 S    
C59   H33   1.110224 S    
O19   C67   1.333271 A    
