data_mof_unit_36234.cif
_audit_creation_date              2012-12-10T18:49:54-0500
_audit_creation_method            fapswitch 2.2
_symmetry_space_group_name_H-M    P1
_symmetry_Int_Tables_number       1
_space_group_crystal_system       triclinic
_cell_length_a                    10.732659
_cell_length_b                    9.842746
_cell_length_c                    10.651937
_cell_angle_alpha                 89.75205
_cell_angle_beta                  90.054088
_cell_angle_gamma                 89.89326
_cell_volume                      1125.24523117

loop_
_atom_site_label
_atom_site_type_symbol
_atom_type_description
_atom_site_fract_x
_atom_site_fract_y
_atom_site_fract_z
_atom_type_partial_charge
C1    C     C_R   0.260319 0.499705 0.499485 0.890997
C2    C     C_3   0.499148 0.651621 0.928785 -0.387809
C3    C     C_R   0.064729 0.403717 0.574486 -0.053448
C4    C     C_R   0.064226 0.585224 0.414171 -0.052704
C5    C     C_R   0.935976 0.403871 0.574819 -0.047433
C6    C     C_R   0.935110 0.585113 0.414250 -0.057767
C7    C     C_R   0.872217 0.497333 0.497312 -0.141215
C8    C     C_R   0.127768 0.497547 0.497116 -0.141025
C9    C     C_R   0.548438 0.071319 0.598860 -0.052850
C10   C     C_R   0.548809 0.927522 0.598707 -0.060035
C11   C     C_R   0.450945 0.928648 0.401321 -0.056045
C12   C     C_R   0.450902 0.072470 0.401332 -0.064351
C13   C     C_R   0.499865 0.500526 0.257754 0.850838
C14   C     C_R   0.739642 0.499543 0.499848 0.890712
C15   C     C_R   0.499925 0.500394 0.742352 0.844422
C16   C     C_3   0.382543 0.426911 0.073811 -0.432513
C17   C     C_3   0.617859 0.427867 0.074039 -0.426168
C18   C     C_3   0.380925 0.428159 0.929154 -0.166709
C19   C     C_3   0.619464 0.429030 0.929388 -0.168625
C20   C     C_3   0.499014 0.650453 0.071459 -0.389340
C21   C     C_3   0.499819 0.501694 0.121724 0.132907
C22   C     C_3   0.499855 0.502555 0.879213 0.068103
H1    H     H_    0.382888 0.319562 0.107323 0.167899
H2    H     H_    0.618630 0.320544 0.107611 0.174266
H3    H     H_    0.381104 0.321219 0.895562 0.149987
H4    H     H_    0.620277 0.322076 0.895827 0.144891
H5    H     H_    0.414841 0.705323 0.105575 0.190741
H6    H     H_    0.582477 0.706166 0.105867 0.197021
N1    N     N_R   0.499970 0.857200 0.499970 -0.083128
N2    N     N_R   0.499970 0.142800 0.499970 -0.082556
O1    O     O_R   0.316750 0.614620 0.499990 -0.604060
O2    O     O_R   0.316750 0.385380 0.499990 -0.616638
O3    O     O_R   0.499970 0.614670 0.314790 -0.630014
O4    O     O_R   0.499970 0.385330 0.314790 -0.636788
O5    O     O_R   0.683220 0.614710 0.500010 -0.605755
O6    O     O_R   0.683220 0.385290 0.500010 -0.614559
O7    O     O_R   0.500010 0.614660 0.685200 -0.630441
O8    O     O_R   0.500010 0.385340 0.685200 -0.635454
Zn1   Zn    Zn3+2 0.499980 0.653120 0.500000 0.970969
Zn2   Zn    Zn3+2 0.499980 0.346880 0.500000 0.961210
H7    H     H_    0.297622 0.475483 0.114117 0.174653
H8    H     H_    0.702276 0.477174 0.114459 0.174301
H9    H     H_    0.411769 0.874803 0.322376 0.139082
H10   H     H_    0.411418 0.127213 0.322490 0.127848
C23   C     C_1   0.264597 0.492736 0.883545 0.175844
N3    N     N_1   0.173857 0.544269 0.848690 -0.188393
C24   C     C_1   0.735171 0.494426 0.883944 0.173656
N4    N     N_1   0.825398 0.546603 0.849188 -0.190837
H11   H     H_    0.415870 0.708105 0.894244 0.192128
H12   H     H_    0.582026 0.708615 0.894615 0.183984
C25   C     C_1   0.131075 0.306828 0.654042 0.228026
N5    N     N_1   0.183419 0.229196 0.716829 -0.204828
C26   C     C_1   0.130905 0.669800 0.324319 0.191583
N6    N     N_1   0.183714 0.736932 0.252595 -0.229130
C27   C     C_1   0.870626 0.308197 0.655850 0.224207
N7    N     N_1   0.819599 0.231451 0.720268 -0.229842
C28   C     C_1   0.867692 0.670098 0.324891 0.198654
N8    N     N_1   0.814117 0.737604 0.253754 -0.209038
H13   H     H_    0.586645 0.125111 0.678253 0.140312
H14   H     H_    0.588101 0.872794 0.677650 0.130257

loop_
_geom_bond_atom_site_label_1
_geom_bond_atom_site_label_2
_ccdc_geom_bond_type
C2    C22   S    
C10   H14   S    
C27   N7    T    
C15   O8    A    
C11   H9    S    
C6    C7    A    
C20   H5    S    
C4    C26   S    
C1    C8    S    
C2    H12   S    
C9    C10   A    
O5    Zn1   S    
C24   N4    T    
C6    C28   S    
O6    Zn2   S    
C4    C8    A    
N1    Zn1   S    
C13   C21   S    
C13   O4    A    
C12   H10   S    
O8    Zn2   S    
C23   N3    T    
C16   C21   S    
C13   O3    A    
C10   N1    A    
C28   N8    T    
O3    Zn1   S    
C18   H3    S    
C9    N2    A    
O4    Zn2   S    
C16   C18   S    
C2    H11   S    
C26   N6    T    
O1    Zn1   S    
C16   H1    S    
O2    Zn2   S    
C14   O6    A    
O7    Zn1   S    
C19   C24   S    
C17   H2    S    
C1    O2    A    
N2    Zn2   S    
C25   N5    T    
C18   C23   S    
C3    C5    A    
C1    O1    A    
C19   C22   S    
C20   C21   S    
C11   N1    A    
C4    C6    A    
C3    C8    A    
C15   C22   S    
C14   O5    A    
C5    C7    A    
C19   H4    S    
C3    C25   S    
C17   H8    S    
C17   C19   S    
C20   H6    S    
C12   N2    A    
C18   C22   S    
C2    C20   S    
C16   H7    S    
C5    C27   S    
C7    C14   S    
C15   O7    A    
C11   C12   A    
C9    H13   S    
C17   C21   S    
