data_mof_unit_34993.cif
_audit_creation_date              2012-12-11T14:29:26-0500
_audit_creation_method            fapswitch 2.2
_symmetry_space_group_name_H-M    P1
_symmetry_Int_Tables_number       1
_space_group_crystal_system       triclinic
_cell_length_a                    6.940087
_cell_length_b                    14.702794
_cell_length_c                    16.373978
_cell_angle_alpha                 90.515387
_cell_angle_beta                  90.186563
_cell_angle_gamma                 90.517774
_cell_volume                      1670.63381127

loop_
_atom_site_label
_atom_site_type_symbol
_atom_type_description
_atom_site_fract_x
_atom_site_fract_y
_atom_site_fract_z
_atom_type_partial_charge
O1    O     O_R   0.494400 0.416610 0.413880 -0.546307
O2    O     O_R   0.823920 0.406790 0.585520 -0.546564
O3    O     O_R   0.994250 0.583390 0.586120 -0.537149
C1    C     C_R   0.654955 0.384952 0.613311 0.749031
O4    O     O_R   0.824110 0.405730 0.414490 -0.536613
O5    O     O_R   0.994440 0.582310 0.413870 -0.523912
C2    C     C_R   0.654364 0.383798 0.386273 0.759029
O6    O     O_R   0.494210 0.417690 0.586130 -0.523816
O7    O     O_3   0.660810 0.557940 0.500000 -0.374946
V1    V     V_3+5 0.935650 0.489250 0.500000 1.496092
O8    O     O_R   0.324160 0.593210 0.414480 -0.559431
C3    C     C_R   0.156186 0.613860 0.386081 0.744167
O9    O     O_R   0.323970 0.594270 0.585510 -0.528293
C4    C     C_R   0.157459 0.617467 0.613545 0.683688
V2    V     V_3+5 0.435660 0.510750 0.500000 1.492640
O10   O     O_3   0.160630 0.442060 0.500000 -0.372511
H1    H     H_    0.543901 0.899287 0.560343 0.147516
C5    C     C_R   0.959966 0.574217 0.765901 -0.069720
C6    C     C_R   0.885484 0.547354 0.840707 -0.110813
C7    C     C_R   0.922975 0.599370 0.910098 -0.129184
C8    C     C_R   0.022738 0.682000 0.904006 -0.036544
C9    C     C_R   0.063440 0.719293 0.826104 0.039096
C10   C     C_R   0.054283 0.659523 0.757199 0.087669
C11   C     C_R   0.118942 0.812095 0.814942 -0.181192
C12   C     C_R   0.196279 0.838628 0.738028 -0.023405
C13   C     C_R   0.254413 0.768850 0.682667 0.072000
C14   C     C_R   0.156176 0.682573 0.684930 -0.147394
C15   C     C_R   0.228844 0.931289 0.715092 -0.010200
C16   C     C_R   0.343460 0.950573 0.647011 -0.092672
C17   C     C_R   0.436176 0.881456 0.605404 -0.221628
C18   C     C_R   0.403792 0.790909 0.626385 -0.053562
H2    H     H_    0.947010 0.525475 0.716694 0.131411
H3    H     H_    0.814222 0.481851 0.846104 0.131407
H4    H     H_    0.888417 0.571380 0.969365 0.135750
H5    H     H_    0.369313 0.020110 0.628244 0.160997
C19   C     C_2   0.236104 0.755638 0.311685 -0.118102
C20   C     C_2   0.152916 0.670810 0.311929 -0.223936
C21   C     C_2   0.260837 0.809006 0.234804 -0.032173
C22   C     C_2   0.106126 0.830868 0.188820 -0.365240
H6    H     H_    0.965744 0.806934 0.208912 0.165363
C23   C     C_2   0.763887 0.203621 0.777334 -0.212181
C24   C     C_2   0.617666 0.193517 0.830666 -0.172408
H7    H     H_    0.876284 0.153307 0.776765 0.176499
C25   C     C_2   0.789435 0.281200 0.720713 -0.050845
C26   C     C_2   0.640532 0.313077 0.675956 -0.341621
H8    H     H_    0.499255 0.282225 0.683509 0.185393
C27   C     C_2   0.779237 0.209493 0.214389 -0.117717
C28   C     C_2   0.614717 0.181578 0.177440 -0.288641
H9    H     H_    0.915283 0.181521 0.193906 0.136442
H10   H     H_    0.477140 0.208862 0.196019 0.129901
C29   C     C_2   0.790690 0.277887 0.282341 -0.099677
C30   C     C_2   0.637221 0.315781 0.319303 -0.285696
H11   H     H_    0.934549 0.297069 0.302805 0.143085
H12   H     H_    0.492111 0.297441 0.300653 0.129052
O11   O     O_R   0.770210 0.079270 0.910680 -0.550180
O12   O     O_R   0.440150 0.091160 0.082270 -0.552928
O13   O     O_R   0.269970 0.914530 0.082860 -0.531682
C31   C     C_R   0.609294 0.113156 0.110503 0.744246
O14   O     O_R   0.440480 0.090100 0.911240 -0.524158
O15   O     O_R   0.270310 0.913460 0.910610 -0.526573
C32   C     C_R   0.609635 0.114706 0.886041 0.714219
O16   O     O_R   0.769870 0.080340 0.082930 -0.543305
O17   O     O_3   0.603660 0.938980 0.996790 -0.360894
V3    V     V_3+5 0.328750 0.007610 0.996740 1.508066
O18   O     O_R   0.940600 0.902510 0.911180 -0.546813
C33   C     C_R   0.109140 0.878917 0.884091 0.697938
O19   O     O_R   0.940270 0.903570 0.082200 -0.532629
C34   C     C_R   0.107325 0.888586 0.114763 0.797341
V4    V     V_3+5 0.828770 0.986010 0.996670 1.486282
O20   O     O_3   0.103730 0.054750 0.996710 -0.381296
C35   C     C_2   0.081071 0.625280 0.235844 0.365850
H13   H     H_    0.107027 0.654065 0.176298 0.100259
O21   O     O_2   0.993560 0.552965 0.238956 -0.528228
C36   C     C_1   0.452145 0.842218 0.215682 0.436624
N1    N     N_1   0.604850 0.869204 0.200613 -0.366109
C37   C     C_1   0.477304 0.264497 0.843623 0.371603
N2    N     N_1   0.365955 0.321279 0.855032 -0.335969
C38   C     C_1   0.983543 0.315568 0.710784 0.383813
N3    N     N_1   0.138296 0.343636 0.702249 -0.345016
C39   C     C_1   0.135020 0.708354 0.974430 0.275800
N4    N     N_1   0.231136 0.726031 0.030166 -0.377797
C40   C     C_2   0.131071 0.009123 0.754371 0.338178
H14   H     H_    0.990625 0.000069 0.781860 0.039175
O22   O     O_2   0.205125 0.084812 0.754719 -0.544873
C41   C     C_2   0.567074 0.729904 0.609563 0.447680
H15   H     H_    0.650290 0.737623 0.553976 0.021428
O23   O     O_2   0.618312 0.674583 0.660257 -0.521563
C42   C     C_2   0.304376 0.799226 0.389546 0.403820
H16   H     H_    0.288066 0.765246 0.447625 0.007586
O24   O     O_2   0.376559 0.875257 0.389860 -0.532024

loop_
_geom_bond_atom_site_label_1
_geom_bond_atom_site_label_2
_ccdc_geom_bond_type
C31   O16   A    
C18   C41   S    
C23   C24   D    
C6    C7    A    
C1    O6    A    
C27   H9    S    
C26   H8    S    
C19   C42   S    
C12   C15   A    
C13   C14   A    
C15   C16   A    
C2    C30   S    
O5    C3    A    
C17   C18   A    
V2    O10   S    
C5    C6    A    
C22   C34   S    
C3    C20   S    
O8    V2    S    
O17   V4    S    
O12   V3    S    
O1    V2    S    
C10   C14   A    
C4    C14   S    
O7    V1    S    
C11   C33   S    
C7    H4    S    
C42   H16   S    
C28   H10   S    
O15   C33   A    
C13   C18   A    
C8    C9    A    
H1    C17   S    
C23   H7    S    
C30   H12   S    
C1    C26   S    
C41   O23   D    
O14   C32   A    
C36   N1    T    
C15   C40   S    
O19   C34   A    
C37   N2    T    
C6    H3    S    
C22   H6    S    
O4    C2    A    
C38   N3    T    
C27   C29   S    
C12   C13   A    
C41   H15   S    
C5    C10   A    
O16   V4    S    
O19   V4    S    
O2    C1    A    
V3    O20   S    
C16   C17   A    
C27   C28   D    
O14   V3    S    
C11   C12   A    
C24   C32   S    
O11   V4    S    
O3    C4    A    
C42   O24   D    
O18   C33   A    
O6    V2    S    
C40   O22   D    
O9    V2    S    
C23   C25   S    
C9    C11   A    
C5    H2    S    
O13   C34   A    
C19   C21   S    
O2    V1    S    
C25   C26   D    
O13   V3    S    
C35   O21   D    
C21   C36   S    
C19   C20   D    
O1    C2    A    
C39   N4    T    
O5    V1    S    
O8    C3    A    
C28   C31   S    
C16   H5    S    
C24   C37   S    
O15   V3    S    
C20   C35   S    
O7    V2    S    
C29   C30   D    
O3    V1    S    
V1    O10   S    
C21   C22   D    
O18   V4    S    
O11   C32   A    
C8    C39   S    
C25   C38   S    
O12   C31   A    
V4    O20   S    
O17   V3    S    
O4    V1    S    
C35   H13   S    
C7    C8    A    
C40   H14   S    
C9    C10   A    
C29   H11   S    
O9    C4    A    
