data_mof_unit_47529.cif
_audit_creation_date              2012-12-11T14:40:13-0500
_audit_creation_method            fapswitch 2.2
_symmetry_space_group_name_H-M    P1
_symmetry_Int_Tables_number       1
_space_group_crystal_system       triclinic
_cell_length_a                    19.649342
_cell_length_b                    10.904957
_cell_length_c                    19.45184
_cell_angle_alpha                 89.616655
_cell_angle_beta                  97.762734
_cell_angle_gamma                 89.843468
_cell_volume                      4129.73084951

loop_
_atom_site_label
_atom_site_type_symbol
_atom_type_description
_atom_site_fract_x
_atom_site_fract_y
_atom_site_fract_z
_atom_type_partial_charge
C1    C     C_R   0.707559 0.999663 0.366369 0.562400
C2    C     C_R   0.292215 0.001778 0.633594 0.558691
C3    C     C_R   0.207559 0.499663 0.366369 0.562403
C4    C     C_R   0.792215 0.501779 0.633594 0.558691
C5    C     C_3   0.704446 0.384050 0.482723 -0.121421
C6    C     C_3   0.266654 0.335179 0.513797 -0.116489
C7    C     C_3   0.204446 0.884050 0.482723 -0.121422
C8    C     C_3   0.766656 0.835180 0.513796 -0.116490
C9    C     C_3   0.752850 0.415103 0.429828 0.042502
C10   C     C_3   0.246986 0.418105 0.571344 0.034890
C11   C     C_3   0.252850 0.915103 0.429828 0.042503
C12   C     C_3   0.746986 0.918105 0.571344 0.034888
C13   C     C_3   0.758273 0.547959 0.453311 -0.150279
C14   C     C_3   0.277162 0.530306 0.539373 -0.137662
C15   C     C_3   0.258273 0.047959 0.453311 -0.150280
C16   C     C_3   0.777161 0.030307 0.539373 -0.137664
C17   C     C_3   0.821864 0.510149 0.506216 -0.167448
C18   C     C_3   0.204848 0.554475 0.497640 -0.177377
C19   C     C_3   0.321864 0.010149 0.506216 -0.167447
C20   C     C_3   0.704847 0.054474 0.497640 -0.177375
C21   C     C_3   0.815755 0.376490 0.481288 -0.097160
C22   C     C_3   0.175482 0.441083 0.531288 -0.109556
C23   C     C_3   0.315755 0.876490 0.481288 -0.097161
C24   C     C_3   0.675482 0.941080 0.531287 -0.109554
C25   C     C_3   0.767168 0.346456 0.534833 -0.132076
C26   C     C_3   0.194895 0.358660 0.472922 -0.108452
C27   C     C_3   0.267168 0.846455 0.534833 -0.132077
C28   C     C_3   0.694896 0.858658 0.472921 -0.108452
C29   C     C_3   0.773802 0.478756 0.559821 0.024581
C30   C     C_3   0.223965 0.471331 0.439821 0.021644
C31   C     C_3   0.273801 0.978756 0.559821 0.024582
C32   C     C_3   0.723965 0.971332 0.439821 0.021644
C33   C     C_3   0.552788 0.267081 0.965365 -0.119706
C34   C     C_3   0.503794 0.278272 0.020536 -0.097705
C35   C     C_3   0.052789 0.767080 0.965365 -0.119706
C36   C     C_3   0.003794 0.778273 0.020536 -0.097705
C37   C     C_3   0.593276 0.163530 0.007961 -0.147540
C38   C     C_3   0.456163 0.180541 0.983647 -0.104294
C39   C     C_3   0.093276 0.663529 0.007961 -0.147540
C40   C     C_3   0.956163 0.680542 0.983647 -0.104294
C41   C     C_3   0.543729 0.175076 0.062184 0.045542
C42   C     C_3   0.505169 0.169596 0.928839 0.051141
C43   C     C_3   0.043729 0.675076 0.062184 0.045542
C44   C     C_3   0.005169 0.669596 0.928839 0.051141
C45   C     C_R   0.535788 0.179853 0.338400 0.544742
C46   C     C_R   0.465346 0.180143 0.662458 0.533073
C47   C     C_R   0.035788 0.679853 0.338400 0.544742
C48   C     C_R   0.965346 0.680143 0.662458 0.533073
C49   C     C_3   0.496288 0.077104 0.025663 -0.101869
C50   C     C_3   0.545017 0.065661 0.969773 -0.121524
C51   C     C_3   0.996288 0.577105 0.025663 -0.101869
C52   C     C_3   0.045016 0.565660 0.969773 -0.121524
C53   C     C_1   0.762960 0.423929 0.904003 -0.005831
C54   C     C_1   0.236808 0.425936 0.095700 -0.003542
C55   C     C_1   0.262960 0.923929 0.904003 -0.005831
C56   C     C_1   0.736809 0.925937 0.095700 -0.003541
C57   C     C_1   0.746946 0.407410 0.034288 -0.046786
C58   C     C_1   0.252203 0.408370 0.965210 -0.047232
C59   C     C_1   0.246946 0.907410 0.034288 -0.046786
C60   C     C_1   0.752203 0.908370 0.965210 -0.047232
C61   C     C_1   0.754072 0.413973 0.963590 -0.048555
C62   C     C_1   0.245335 0.415889 0.036009 -0.046402
C63   C     C_1   0.254072 0.913973 0.963590 -0.048555
C64   C     C_1   0.745335 0.915889 0.036009 -0.046402
C65   C     C_1   0.742024 0.394879 0.094724 -0.002587
C66   C     C_1   0.257267 0.394908 0.904883 -0.004115
C67   C     C_1   0.242024 0.894879 0.094724 -0.002587
C68   C     C_1   0.757266 0.894908 0.904883 -0.004115
C69   C     C_R   0.740147 0.364928 0.360958 0.550600
C70   C     C_R   0.258967 0.368642 0.640616 0.537723
C71   C     C_R   0.240147 0.864928 0.360958 0.550600
C72   C     C_R   0.758967 0.868642 0.640616 0.537723
C73   C     C_R   0.721768 0.952983 0.163675 0.551414
C74   C     C_R   0.278115 0.952062 0.836147 0.550717
C75   C     C_R   0.221768 0.452983 0.163675 0.551415
C76   C     C_R   0.778115 0.452062 0.836147 0.550717
C77   C     C_R   0.563723 0.182860 0.137002 0.559553
C78   C     C_R   0.472750 0.178202 0.857437 0.543252
C79   C     C_R   0.063723 0.682860 0.137002 0.559553
C80   C     C_R   0.972750 0.678202 0.857437 0.543252
C81   C     C_R   0.735739 0.360702 0.164314 0.538870
C82   C     C_R   0.264161 0.360150 0.835624 0.539184
C83   C     C_R   0.235739 0.860702 0.164314 0.538871
C84   C     C_R   0.764161 0.860150 0.835624 0.539185
C85   C     C_1   0.488356 0.172737 0.596111 -0.003613
C86   C     C_1   0.516422 0.171549 0.406360 0.001087
C87   C     C_1   0.988356 0.672737 0.596112 -0.003615
C88   C     C_1   0.016422 0.671549 0.406360 0.001089
C89   C     C_1   0.507502 0.168555 0.466237 -0.026742
C90   C     C_1   0.499403 0.169288 0.536901 -0.037958
C91   C     C_1   0.007503 0.668554 0.466237 -0.026741
C92   C     C_1   0.999403 0.669288 0.536901 -0.037960
C93   C     C_3   0.710678 0.516619 0.508099 0.062063
C94   C     C_3   0.295129 0.447902 0.480515 0.070812
C95   C     C_3   0.210678 0.016619 0.508099 0.062063
C96   C     C_3   0.795129 0.947904 0.480516 0.070813
Cr1   Cr    Cr6+3 0.765830 0.160660 0.268180 1.059181
Cr2   Cr    Cr6+3 0.234170 0.160660 0.731820 1.065253
Cr3   Cr    Cr6+3 0.265830 0.660660 0.268180 1.059180
Cr4   Cr    Cr6+3 0.734170 0.660660 0.731820 1.065253
Cr5   Cr    Cr6+3 0.612110 0.009150 0.248770 1.038561
Cr6   Cr    Cr6+3 0.387890 0.009150 0.751230 1.024981
Cr7   Cr    Cr6+3 0.112110 0.509150 0.248770 1.038561
Cr8   Cr    Cr6+3 0.887890 0.509150 0.751230 1.024981
Cr9   Cr    Cr6+3 0.615930 0.324050 0.248450 1.044042
Cr10  Cr    Cr6+3 0.384070 0.324050 0.751550 1.034827
Cr11  Cr    Cr6+3 0.115930 0.824050 0.248450 1.044041
Cr12  Cr    Cr6+3 0.884070 0.824050 0.751550 1.034826
H1    H     H_    0.654344 0.336930 0.470539 0.127786
H2    H     H_    0.295198 0.248512 0.525154 0.106571
H3    H     H_    0.154344 0.836930 0.470539 0.127785
H4    H     H_    0.795201 0.748515 0.525153 0.106573
H5    H     H_    0.754616 0.628108 0.417519 0.144703
H6    H     H_    0.314718 0.591511 0.569552 0.138265
H7    H     H_    0.254616 0.128108 0.417519 0.144704
H8    H     H_    0.814716 0.091513 0.569553 0.138265
H9    H     H_    0.370302 0.062289 0.517037 0.126654
H10   H     H_    0.676348 0.141359 0.488853 0.104175
H11   H     H_    0.870302 0.562289 0.517037 0.126655
H12   H     H_    0.176350 0.641361 0.488853 0.104175
H13   H     H_    0.859105 0.318197 0.469564 0.170386
H14   H     H_    0.126622 0.438455 0.554028 0.138270
H15   H     H_    0.359105 0.818197 0.469564 0.170381
H16   H     H_    0.626622 0.938450 0.554027 0.138271
H17   H     H_    0.767803 0.270072 0.572306 0.135186
H18   H     H_    0.161257 0.290953 0.443134 0.182000
H19   H     H_    0.267804 0.770071 0.572306 0.135186
H20   H     H_    0.661259 0.790951 0.443133 0.182000
H21   H     H_    0.650036 0.156902 0.019969 0.113105
H22   H     H_    0.399301 0.187356 0.972482 0.120590
H23   H     H_    0.150036 0.656900 0.019969 0.113105
H24   H     H_    0.899301 0.687358 0.972482 0.120590
H25   H     H_    0.575980 0.344219 0.939226 0.130820
H26   H     H_    0.486361 0.365662 0.041498 0.143872
H27   H     H_    0.075981 0.844218 0.939226 0.130820
H28   H     H_    0.986362 0.865663 0.041498 0.143872
H29   H     H_    0.472948 0.999815 0.051526 0.137671
H30   H     H_    0.561762 0.979232 0.947208 0.127568
H31   H     H_    0.972947 0.499816 0.051526 0.137671
H32   H     H_    0.061761 0.479231 0.947208 0.127569
O1    O     O_R   0.783230 0.287800 0.346510 -0.518493
O2    O     O_R   0.216770 0.287800 0.653490 -0.482019
O3    O     O_R   0.283230 0.787800 0.346510 -0.518495
O4    O     O_R   0.716770 0.787800 0.653490 -0.482020
O5    O     O_R   0.554500 0.081650 0.170370 -0.497616
O6    O     O_R   0.445500 0.081650 0.829630 -0.500239
O7    O     O_R   0.054500 0.581650 0.170370 -0.497616
O8    O     O_R   0.945500 0.581650 0.829630 -0.500239
O9    O     O_R   0.545430 0.285140 0.163100 -0.509652
O10   O     O_R   0.454570 0.285140 0.836900 -0.511701
O11   O     O_R   0.045430 0.785140 0.163100 -0.509652
O12   O     O_R   0.954570 0.785140 0.836900 -0.511701
O13   O     O_R   0.677850 0.374730 0.185500 -0.510604
O14   O     O_R   0.322150 0.374730 0.814500 -0.494347
O15   O     O_R   0.177850 0.874730 0.185500 -0.510604
O16   O     O_R   0.822150 0.874730 0.814500 -0.494347
O17   O     O_3   0.664630 0.164620 0.255130 -0.314054
O18   O     O_3   0.335370 0.164620 0.744870 -0.284590
O19   O     O_3   0.164630 0.664620 0.255130 -0.314054
O20   O     O_3   0.835370 0.664620 0.744870 -0.284591
O21   O     O_R   0.760130 0.037060 0.338610 -0.464527
O22   O     O_R   0.239870 0.037060 0.661390 -0.447594
O23   O     O_R   0.260130 0.537060 0.338610 -0.464524
O24   O     O_R   0.739870 0.537060 0.661390 -0.447593
O25   O     O_R   0.666620 0.921370 0.332440 -0.504739
O26   O     O_R   0.333380 0.921370 0.667560 -0.515849
O27   O     O_R   0.166620 0.421370 0.332440 -0.504738
O28   O     O_R   0.833380 0.421370 0.667560 -0.515848
O29   O     O_R   0.557170 0.082420 0.312350 -0.505083
O30   O     O_R   0.442830 0.082420 0.687650 -0.519063
O31   O     O_R   0.057170 0.582420 0.312350 -0.505083
O32   O     O_R   0.942830 0.582420 0.687650 -0.519063
O33   O     O_R   0.548310 0.285980 0.316250 -0.492024
O34   O     O_R   0.451690 0.285980 0.683750 -0.492279
O35   O     O_R   0.048310 0.785980 0.316250 -0.492024
O36   O     O_R   0.951690 0.785980 0.683750 -0.492280
O37   O     O_R   0.680520 0.375500 0.327470 -0.490676
O38   O     O_R   0.319480 0.375500 0.672530 -0.504715
O39   O     O_R   0.180520 0.875500 0.327470 -0.490676
O40   O     O_R   0.819480 0.875500 0.672530 -0.504715
O41   O     O_R   0.780350 0.286970 0.193350 -0.503906
O42   O     O_R   0.219650 0.286970 0.806650 -0.509914
O43   O     O_R   0.280350 0.786970 0.193350 -0.503906
O44   O     O_R   0.719650 0.786970 0.806650 -0.509914
O45   O     O_R   0.757460 0.036290 0.196640 -0.488470
O46   O     O_R   0.242540 0.036290 0.803360 -0.489749
O47   O     O_R   0.257460 0.536290 0.196640 -0.488470
O48   O     O_R   0.742540 0.536290 0.803360 -0.489749
O49   O     O_R   0.663740 0.920540 0.179290 -0.507969
O50   O     O_R   0.336260 0.920540 0.820710 -0.502856
O51   O     O_R   0.163740 0.420540 0.179290 -0.507969
O52   O     O_R   0.836260 0.420540 0.820710 -0.502856
C97   C     C_2   0.644786 0.582144 0.515903 0.564005
O53   O     O_2   0.600733 0.592472 0.465411 -0.508516
O54   O     O_R   0.632201 0.626414 0.580039 -0.647263
H33   H     H_    0.585704 0.667915 0.577739 0.337252
C98   C     C_2   0.362135 0.447829 0.451817 0.601289
O55   O     O_2   0.407328 0.519555 0.474175 -0.500137
O56   O     O_R   0.372355 0.365587 0.399411 -0.688683
H34   H     H_    0.418816 0.376134 0.383016 0.349755
C99   C     C_2   0.144786 0.082144 0.515903 0.564005
O57   O     O_2   0.100732 0.092470 0.465412 -0.508516
O58   O     O_R   0.132202 0.126416 0.580038 -0.647264
H35   H     H_    0.085705 0.167917 0.577739 0.337252
C100  C     C_2   0.862135 0.947837 0.451818 0.601294
O59   O     O_2   0.907324 0.019574 0.474170 -0.500140
O60   O     O_R   0.872360 0.865587 0.399416 -0.688686
H36   H     H_    0.918820 0.876139 0.383021 0.349756

loop_
_geom_bond_atom_site_label_1
_geom_bond_atom_site_label_2
_ccdc_geom_bond_type
C58   C62   S    
C29   C93   S    
O58   H35   S    
C97   O54   S    
C67   C83   S    
Cr10  O10   S    
C49   H29   S    
C17   C29   S    
C99   O57   D    
C14   C18   S    
C7    C27   S    
C35   C39   S    
C35   C36   S    
C8    C96   S    
C81   O41   A    
C44   C80   S    
C19   C31   S    
Cr6   O18   S    
C20   H10   S    
C96   C100  S    
C3    O27   A    
C38   C49   S    
C100  O59   D    
C10   C22   S    
C15   C19   S    
Cr5   O5    S    
Cr11  O35   S    
C37   C41   S    
C33   C42   S    
C38   H22   S    
Cr3   O3    S    
C16   C20   S    
Cr4   O48   S    
C9    C69   S    
C69   O37   A    
C38   C42   S    
Cr3   O19   S    
C8    H4    S    
C15   C95   S    
C11   C71   S    
C83   O15   A    
Cr1   O45   S    
C69   O1    A    
Cr8   O52   S    
C36   H28   S    
C24   H16   S    
C81   O13   A    
Cr1   O41   S    
Cr12  O40   S    
C53   C61   T    
C80   O12   A    
C12   C24   S    
C26   H18   S    
C71   O39   A    
C98   O56   S    
C25   H17   S    
C7    C11   S    
C9    C13   S    
C59   C67   T    
Cr12  O12   S    
C55   C74   S    
C11   C15   S    
C58   C66   T    
Cr9   O17   S    
Cr2   O18   S    
C7    H3    S    
Cr10  O14   S    
C55   C63   T    
C4    O24   A    
Cr5   O29   S    
C18   C30   S    
C23   C27   S    
C2    O26   A    
Cr8   O8    S    
Cr3   O43   S    
C4    C29   S    
C76   O48   A    
C3    O23   A    
Cr8   O32   S    
C46   C85   S    
Cr11  O11   S    
C44   C52   S    
C39   C52   S    
C40   H24   S    
Cr5   O17   S    
O56   H34   S    
Cr6   O26   S    
Cr9   O33   S    
C87   C92   T    
Cr2   O2    S    
Cr7   O31   S    
C99   O58   S    
C2    O22   A    
C34   C41   S    
C27   H19   S    
Cr8   O20   S    
Cr4   O44   S    
C16   H8    S    
C28   C32   S    
C41   C49   S    
C73   O45   A    
Cr2   O22   S    
C22   H14   S    
C74   O46   A    
C100  O60   S    
C25   C29   S    
C54   C75   S    
C75   O47   A    
C70   O2    A    
C16   C96   S    
C27   C31   S    
O60   H36   S    
C68   C84   S    
C12   C16   S    
C84   O44   A    
Cr10  O38   S    
Cr4   O4    S    
C35   H27   S    
C91   C92   S    
C73   O49   A    
C19   C23   S    
C70   O38   A    
C23   H15   S    
C54   C62   T    
C6    C94   S    
Cr9   O13   S    
Cr10  O18   S    
C1    C32   S    
C33   C37   S    
C46   O30   A    
C82   O14   A    
C13   C93   S    
C2    C31   S    
Cr1   O17   S    
C6    H2    S    
C3    C30   S    
C75   O51   A    
C5    C9    S    
C76   O52   A    
C45   O33   A    
Cr8   O28   S    
Cr4   O20   S    
C47   O31   A    
Cr12  O16   S    
C88   C91   T    
C36   C40   S    
C8    C12   S    
Cr11  O19   S    
C74   O50   A    
C46   O34   A    
C33   C34   S    
Cr10  O34   S    
C48   C87   S    
C83   O43   A    
Cr4   O24   S    
C78   O10   A    
Cr7   O27   S    
Cr5   O25   S    
C35   C44   S    
Cr1   O1    S    
C42   C50   S    
Cr3   O23   S    
C10   C70   S    
C14   C94   S    
Cr9   O37   S    
C32   C96   S    
C13   H5    S    
C80   O8    A    
C42   C78   S    
Cr1   O21   S    
C10   C14   S    
C8    C28   S    
C49   C50   S    
C5    C25   S    
C53   C76   S    
Cr7   O51   S    
C72   O40   A    
C78   O6    A    
C77   O9    A    
C9    C21   S    
C18   H12   S    
C19   H9    S    
C7    C95   S    
C48   O32   A    
C79   O11   A    
C20   C32   S    
C72   O4    A    
C21   C25   S    
C56   C73   S    
Cr11  O39   S    
C1    O25   A    
C34   C38   S    
C59   C63   S    
C33   H25   S    
C93   C97   S    
C24   C28   S    
C57   C65   T    
C86   C89   T    
C45   O29   A    
C6    C10   S    
C5    C93   S    
C85   C90   T    
C50   H30   S    
C57   C61   S    
Cr12  O20   S    
Cr2   O42   S    
C95   C99   S    
C40   C51   S    
Cr9   O9    S    
C82   O42   A    
Cr5   O49   S    
C13   C17   S    
C60   C64   S    
C94   C98   S    
C47   C88   S    
C18   C22   S    
C45   C86   S    
Cr3   O47   S    
C51   C52   S    
Cr2   O46   S    
C14   H6    S    
Cr6   O6    S    
C66   C82   S    
C41   C77   S    
C37   C50   S    
C84   O16   A    
Cr7   O19   S    
C56   C64   T    
C6    C26   S    
C77   O5    A    
C39   H23   S    
Cr6   O30   S    
C43   C51   S    
C31   C95   S    
Cr12  O36   S    
C11   C23   S    
Cr6   O50   S    
C37   H21   S    
C79   O7    A    
C15   H7    S    
C21   H13   S    
C98   O55   D    
C12   C72   S    
C17   C21   S    
C17   H11   S    
C47   O35   A    
C1    O21   A    
O54   H33   S    
C52   H32   S    
C4    O28   A    
C40   C44   S    
C60   C68   T    
C30   C94   S    
C97   O53   D    
C22   C26   S    
C39   C43   S    
C34   H26   S    
C65   C81   S    
C36   C43   S    
C5    H1    S    
C71   O3    A    
C89   C90   S    
C43   C79   S    
C20   C24   S    
Cr11  O15   S    
C28   H20   S    
Cr7   O7    S    
C48   O36   A    
C26   C30   S    
C51   H31   S    
