data_mof_unit_56622.cif
_audit_creation_date              2012-12-10T20:00:31-0500
_audit_creation_method            fapswitch 2.2
_symmetry_space_group_name_H-M    P1
_symmetry_Int_Tables_number       1
_space_group_crystal_system       triclinic
_cell_length_a                    14.974045
_cell_length_b                    14.150246
_cell_length_c                    15.820293
_cell_angle_alpha                 89.80347
_cell_angle_beta                  90.061747
_cell_angle_gamma                 90.078883
_cell_volume                      3352.08042672

loop_
_atom_site_label
_atom_site_type_symbol
_atom_type_description
_atom_site_fract_x
_atom_site_fract_y
_atom_site_fract_z
_atom_type_partial_charge
C1    C     C_R   0.327737 0.499938 0.499697 0.933072
C2    C     C_R   0.465049 0.795340 0.566898 0.030439
C3    C     C_R   0.515463 0.203870 0.573185 0.018108
C4    C     C_R   0.534780 0.795844 0.432948 0.029576
C5    C     C_R   0.499927 0.053152 0.499822 0.142494
C6    C     C_R   0.499853 0.946621 0.499791 0.140801
C7    C     C_R   0.500226 0.500187 0.339305 0.902842
C8    C     C_R   0.500343 0.499841 0.660730 0.903234
C9    C     C_R   0.507797 0.587545 0.955436 -0.060616
C10   C     C_R   0.526482 0.414908 0.045236 -0.059856
C11   C     C_R   0.511841 0.588378 0.043970 -0.060609
C12   C     C_R   0.672206 0.500061 0.499655 0.932022
C13   C     C_R   0.522453 0.414028 0.956689 -0.060911
C14   C     C_R   0.511731 0.500232 0.913055 0.030609
C15   C     C_R   0.519475 0.501896 0.087601 0.027414
C16   C     C_1   0.507883 0.499544 0.823683 -0.041431
C17   C     C_1   0.512356 0.501539 0.176748 -0.038812
C18   C     C_1   0.506006 0.500814 0.251288 -0.176836
C19   C     C_1   0.504099 0.499491 0.748931 -0.180275
C20   C     C_R   0.094734 0.572083 0.451849 0.551358
C21   C     C_R   0.905066 0.431248 0.447328 0.547100
C22   C     C_R   0.907635 0.570171 0.540186 0.542665
C23   C     C_R   0.047929 0.499180 0.492731 -0.048687
C24   C     C_R   0.092659 0.426202 0.535529 0.550142
C25   C     C_R   0.187161 0.573487 0.456744 -0.308302
C26   C     C_R   0.812267 0.429436 0.453055 -0.323837
C27   C     C_R   0.814628 0.571603 0.539062 -0.325963
C28   C     C_R   0.185264 0.425374 0.535386 -0.313400
C29   C     C_R   0.231970 0.499749 0.497523 -0.184125
C30   C     C_R   0.767890 0.500229 0.497463 -0.167762
C31   C     C_R   0.505016 0.678959 0.091259 0.140661
C32   C     C_R   0.577051 0.710906 0.140528 -0.151176
C33   C     C_R   0.570386 0.795507 0.185519 -0.148470
C34   C     C_R   0.951666 0.500584 0.492869 -0.049309
C35   C     C_R   0.491958 0.848771 0.181598 -0.107706
C36   C     C_R   0.420036 0.817480 0.132693 -0.128657
C37   C     C_R   0.426327 0.732798 0.087765 -0.132224
C38   C     C_R   0.531455 0.323486 0.909771 0.139898
C39   C     C_R   0.459384 0.287470 0.862851 -0.151446
C40   C     C_R   0.467819 0.201791 0.819792 -0.149458
C41   C     C_R   0.547963 0.151433 0.823543 -0.120927
C42   C     C_R   0.619959 0.186886 0.869968 -0.127248
C43   C     C_R   0.611928 0.272673 0.912863 -0.132431
C44   C     C_R   0.501406 0.677803 0.907082 0.141133
C45   C     C_R   0.484546 0.105143 0.425202 -0.276748
C46   C     C_R   0.572367 0.742838 0.908390 -0.133358
C47   C     C_R   0.566318 0.827571 0.862979 -0.128556
C48   C     C_R   0.489651 0.847796 0.815854 -0.109791
C49   C     C_R   0.418791 0.783439 0.814228 -0.148222
C50   C     C_R   0.424435 0.698773 0.859762 -0.152612
C51   C     C_R   0.535059 0.325012 0.093946 0.141621
C52   C     C_R   0.610964 0.308421 0.144138 -0.160381
C53   C     C_R   0.618617 0.224636 0.190688 -0.134103
C54   C     C_R   0.550850 0.156748 0.187232 -0.121676
C55   C     C_R   0.475137 0.172702 0.137475 -0.138703
C56   C     C_R   0.464621 0.894694 0.568209 -0.277783
C57   C     C_R   0.467024 0.256600 0.091100 -0.126452
C58   C     C_3   0.050234 0.627338 0.324059 -0.338137
C59   C     C_3   0.919820 0.353162 0.320198 -0.340935
C60   C     C_3   0.928597 0.649666 0.666098 -0.335385
C61   C     C_3   0.044772 0.368768 0.661612 -0.335830
C62   C     C_R   0.515373 0.104484 0.574516 -0.276470
C63   C     C_R   0.535037 0.895223 0.431401 -0.279084
C64   C     C_R   0.484593 0.204510 0.426708 0.023381
H1    H     H_    0.223707 0.630915 0.427209 0.184675
H2    H     H_    0.437016 0.756439 0.619514 0.134679
H3    H     H_    0.528263 0.241926 0.631059 0.145454
H4    H     H_    0.562752 0.757316 0.380364 0.133854
H5    H     H_    0.638213 0.670294 0.143936 0.121274
H6    H     H_    0.626000 0.819761 0.223481 0.123046
H7    H     H_    0.486880 0.914204 0.216504 0.111796
H8    H     H_    0.359299 0.858739 0.129770 0.125429
H9    H     H_    0.369932 0.708967 0.050554 0.121632
H10   H     H_    0.396731 0.325512 0.860083 0.121870
H11   H     H_    0.412174 0.174293 0.783688 0.128957
H12   H     H_    0.774560 0.374110 0.422096 0.173294
H13   H     H_    0.554307 0.084918 0.790583 0.111472
H14   H     H_    0.681994 0.147836 0.872770 0.125649
H15   H     H_    0.668195 0.299467 0.948615 0.120861
H16   H     H_    0.632247 0.727747 0.944419 0.120960
H17   H     H_    0.621111 0.877517 0.864222 0.124391
H18   H     H_    0.485134 0.913327 0.780652 0.110645
H19   H     H_    0.359465 0.799195 0.777698 0.125904
H20   H     H_    0.368954 0.649616 0.858325 0.121905
H21   H     H_    0.664037 0.360391 0.147126 0.118398
H22   H     H_    0.677136 0.212306 0.229384 0.126123
H23   H     H_    0.778639 0.626862 0.571656 0.175474
H24   H     H_    0.557003 0.091834 0.223132 0.113759
H25   H     H_    0.422643 0.120120 0.134997 0.126887
H26   H     H_    0.407751 0.268467 0.053263 0.122672
H27   H     H_    0.018630 0.558154 0.308944 0.156727
H28   H     H_    0.119217 0.630436 0.298108 0.159979
H29   H     H_    0.010589 0.683175 0.292095 0.196828
H30   H     H_    0.903955 0.422582 0.290293 0.136035
H31   H     H_    0.860599 0.305861 0.318923 0.169090
H32   H     H_    0.972383 0.319493 0.281246 0.195946
H33   H     H_    0.912514 0.580884 0.697097 0.137899
H34   H     H_    0.220390 0.368040 0.566489 0.181685
H35   H     H_    0.870489 0.698209 0.669001 0.174725
H36   H     H_    0.983432 0.682591 0.702917 0.193534
H37   H     H_    0.015360 0.438709 0.677502 0.154231
H38   H     H_    0.112993 0.362380 0.688953 0.155700
H39   H     H_    0.002439 0.313711 0.691581 0.198633
H40   H     H_    0.471019 0.069391 0.366180 0.129147
H41   H     H_    0.435490 0.930474 0.621859 0.128806
H42   H     H_    0.528749 0.068160 0.633456 0.127266
H43   H     H_    0.563952 0.931404 0.377575 0.127217
H44   H     H_    0.471914 0.243023 0.368837 0.145151
N1    N     N_R   0.500000 0.252470 0.500000 -0.095358
N2    N     N_R   0.500000 0.747530 0.500000 -0.095720
O1    O     O_R   0.369060 0.579480 0.500010 -0.620561
O2    O     O_3   0.952519 0.362725 0.403498 -0.569357
O3    O     O_3   0.957592 0.638714 0.581795 -0.571639
O4    O     O_3   0.045509 0.353532 0.573603 -0.565836
O5    O     O_R   0.630940 0.420520 0.499990 -0.616367
O6    O     O_R   0.630940 0.579480 0.499990 -0.621229
O7    O     O_R   0.369060 0.420520 0.500010 -0.616810
O8    O     O_R   0.499980 0.579460 0.378020 -0.622198
O9    O     O_R   0.500020 0.420540 0.621980 -0.627595
O10   O     O_R   0.500020 0.579460 0.621980 -0.621911
O11   O     O_R   0.499980 0.420540 0.378020 -0.627567
O12   O     O_3   0.049675 0.644742 0.411720 -0.566666
Zn1   Zn    Zn3+2 0.500000 0.606140 0.500000 0.948066
Zn2   Zn    Zn3+2 0.500000 0.393860 0.500000 0.947216

loop_
_geom_bond_atom_site_label_1
_geom_bond_atom_site_label_2
_ccdc_geom_bond_type
C54   H24   S    
C21   C26   A    
C24   O4    S    
O6    Zn1   S    
C41   C42   A    
C35   C36   A    
C60   H35   S    
C50   H20   S    
O9    Zn2   S    
C4    C63   A    
C36   C37   A    
C61   H39   S    
O7    Zn2   S    
C10   C15   A    
C41   H13   S    
C38   C39   A    
C20   C25   A    
C43   H15   S    
C17   C18   T    
C39   H10   S    
O11   Zn2   S    
C44   C50   A    
C46   C47   A    
C11   C15   A    
C22   O3    S    
C2    N2    A    
C31   C32   A    
C26   H12   S    
C23   C24   A    
C53   H22   S    
C51   C57   A    
C59   H30   S    
C58   H27   S    
C20   O12   S    
O10   Zn1   S    
C4    N2    A    
C12   O5    A    
C7    C18   S    
C11   C31   S    
C13   C14   A    
C27   C30   A    
C7    O8    A    
C60   O3    S    
C59   H31   S    
C7    O11   A    
C10   C51   S    
C44   C46   A    
C64   H44   S    
C25   C29   A    
C22   C34   A    
C58   O12   S    
C8    C19   S    
C57   H26   S    
O1    Zn1   S    
C51   C52   A    
C25   H1    S    
C60   H33   S    
C39   C40   A    
C4    H4    S    
C21   C34   A    
C60   H36   S    
C53   C54   A    
C5    C45   A    
C31   C37   A    
C6    C63   A    
C61   H37   S    
C9    C14   A    
C45   H40   S    
N2    Zn1   S    
C47   C48   A    
C20   C23   A    
C23   C34   S    
C1    C29   S    
C59   O2    S    
C1    O7    A    
C27   H23   S    
C9    C11   A    
C13   C38   S    
C33   H6    S    
C48   C49   A    
C52   H21   S    
C42   H14   S    
C22   C27   A    
C55   C57   A    
C14   C16   S    
C42   C43   A    
C63   H43   S    
C21   O2    S    
C52   C53   A    
C8    O10   A    
C3    C62   A    
C28   H34   S    
C15   C17   S    
C37   H9    S    
C54   C55   A    
C28   C29   A    
C9    C44   S    
O5    Zn2   S    
C12   C30   S    
C58   H29   S    
C3    H3    S    
C24   C28   A    
C6    C56   A    
C2    H2    S    
C10   C13   A    
N1    Zn2   S    
C26   C30   A    
C32   H5    S    
C62   H42   S    
C45   C64   A    
C40   H11   S    
C32   C33   A    
C49   H19   S    
C61   H38   S    
C38   C43   A    
C55   H25   S    
C2    C56   A    
C1    O1    A    
C46   H16   S    
C64   N1    A    
C5    C6    S    
C3    N1    A    
C16   C19   T    
C33   C35   A    
C48   H18   S    
C5    C62   A    
O8    Zn1   S    
C47   H17   S    
C56   H41   S    
C35   H7    S    
C49   C50   A    
C59   H32   S    
C61   O4    S    
C40   C41   A    
C58   H28   S    
C36   H8    S    
C8    O9    A    
C12   O6    A    
