data_mof_unit_37845.cif
_audit_creation_date              2012-12-10T17:14:42-0500
_audit_creation_method            fapswitch 2.2
_symmetry_space_group_name_H-M    P1
_symmetry_Int_Tables_number       1
_space_group_crystal_system       triclinic
_cell_length_a                    10.66541
_cell_length_b                    12.874857
_cell_length_c                    11.951585
_cell_angle_alpha                 99.041928
_cell_angle_beta                  92.935849
_cell_angle_gamma                 95.469902
_cell_volume                      1609.70374791

loop_
_atom_site_label
_atom_site_type_symbol
_atom_type_description
_atom_site_fract_x
_atom_site_fract_y
_atom_site_fract_z
_atom_type_partial_charge
C1    C     C_R   0.500524 0.300288 0.479329 0.911897
C2    C     C_R   0.499790 0.699681 0.520668 0.907731
C3    C     C_R   0.421135 0.121913 0.503520 -0.115311
C4    C     C_R   0.579540 0.877956 0.496885 -0.098780
C5    C     C_R   0.440746 0.017912 0.513673 -0.098227
C6    C     C_R   0.559824 0.981910 0.486491 -0.083318
C7    C     C_R   0.458668 0.365953 0.027510 0.645463
C8    C     C_R   0.540986 0.633860 0.972533 0.586867
C9    C     C_R   0.432862 0.384885 0.142145 0.381636
C10   C     C_R   0.566994 0.615115 0.857938 0.302875
C11   C     C_R   0.529690 0.561030 0.154329 0.427221
C12   C     C_R   0.469961 0.438754 0.845282 0.537684
C13   C     C_R   0.515930 0.549696 0.032315 -0.304094
C14   C     C_R   0.483362 0.450063 0.967421 -0.337459
C15   C     C_R   0.260528 0.501164 0.501115 1.029835
C16   C     C_R   0.739487 0.498920 0.498872 1.018355
C17   C     C_3   0.046969 0.533047 0.607133 0.197986
C18   C     C_3   0.953040 0.466718 0.392805 0.135521
C19   C     C_3   0.953286 0.434081 0.566940 0.505992
C20   C     C_3   0.046713 0.565697 0.432988 0.479949
C21   C     C_3   0.875514 0.498069 0.496009 -0.525151
C22   C     C_3   0.124486 0.501730 0.503927 -0.550406
C23   C     C_3   0.969122 0.596937 0.535944 0.556189
C24   C     C_3   0.030898 0.402849 0.464002 0.505246
C25   C     C_R   0.484393 0.810706 0.530128 -0.217968
C26   C     C_R   0.516092 0.189171 0.469899 -0.178874
C27   C     C_R   0.655603 0.050640 0.449236 0.303711
C28   C     C_R   0.345069 0.949212 0.551162 0.339511
C29   C     C_R   0.632218 0.154612 0.442518 0.560300
C30   C     C_R   0.368474 0.845296 0.557863 0.554194
Cu1   Cu    Cu3+1 0.509400 0.507730 0.615930 1.153755
Cu2   Cu    Cu3+1 0.490600 0.492270 0.384070 1.135073
H1    H     H_    0.667021 0.846058 0.476151 0.251647
H2    H     H_    0.333726 0.153652 0.524471 0.232266
N1    N     N_R   0.523540 0.519360 0.790140 -0.318693
N2    N     N_R   0.476460 0.480640 0.209860 -0.335286
O1    O     O_R   0.506670 0.354460 0.582000 -0.539429
O2    O     O_R   0.493330 0.645540 0.418000 -0.582656
O3    O     O_R   0.490800 0.341410 0.386200 -0.523744
O4    O     O_R   0.509200 0.658590 0.613800 -0.541990
O5    O     O_R   0.324790 0.506500 0.597880 -0.519181
O6    O     O_R   0.675210 0.493500 0.402120 -0.527557
O7    O     O_R   0.308910 0.493440 0.402080 -0.551542
O8    O     O_R   0.691090 0.506560 0.597920 -0.529605
F1    F     F_    0.904085 0.365056 0.635159 -0.519532
F2    F     F_    0.095956 0.634716 0.364779 -0.543351
S1    S     S_3+6 0.100578 0.577833 0.752163 0.163025
O9    O     O_2   0.146612 0.487691 0.802830 -0.219860
O10   O     O_2   0.205845 0.665454 0.760159 -0.204650
O11   O     O_3   0.979687 0.622546 0.823690 -0.410924
H3    H     H_    0.014497 0.644060 0.903296 0.396298
S2    S     S_3+6 0.899449 0.421491 0.247764 0.181226
O12   O     O_2   0.793072 0.334928 0.240353 -0.157482
O13   O     O_2   0.854329 0.511132 0.195617 -0.200372
O14   O     O_3   0.018761 0.374286 0.175789 -0.401278
H4    H     H_    0.085381 0.434649 0.184425 0.372816
F3    F     F_    0.936345 0.697608 0.570953 -0.501726
F4    F     F_    0.063611 0.302170 0.428921 -0.516674
F5    F     F_    0.277089 0.775092 0.585915 -0.577850
F6    F     F_    0.724091 0.225054 0.415655 -0.598231
S3    S     S_3+6 0.806291 0.010250 0.416233 0.171765
O15   O     O_2   0.866647 0.977349 0.519614 -0.180344
O16   O     O_2   0.790649 0.917137 0.321708 -0.178306
O17   O     O_3   0.902962 0.107118 0.376850 -0.326082
H5    H     H_    0.878662 0.105923 0.295494 0.401731
S4    S     S_3+6 0.195522 0.990087 0.587312 0.152616
O18   O     O_2   0.215132 0.079463 0.685825 -0.231912
O19   O     O_2   0.134164 0.028025 0.487383 -0.173607
O20   O     O_3   0.099042 0.891443 0.623656 -0.325618
H6    H     H_    0.041698 0.926536 0.676591 0.415498
S5    S     S_3+6 0.368739 0.323874 0.774587 0.156121
O21   O     O_2   0.448603 0.233894 0.750541 -0.194616
O22   O     O_2   0.270578 0.294796 0.853564 -0.160429
O23   O     O_3   0.287064 0.334194 0.654111 -0.516335
H7    H     H_    0.210800 0.282886 0.648621 0.413308
S6    S     S_3+6 0.632214 0.675150 0.224544 0.176061
O24   O     O_2   0.702077 0.661985 0.332132 -0.224929
O25   O     O_2   0.731976 0.702796 0.146558 -0.116877
O26   O     O_3   0.546721 0.778619 0.251302 -0.437859
H8    H     H_    0.457483 0.747925 0.246289 0.353057
S7    S     S_3+6 0.664343 0.721322 0.816104 0.177127
O27   O     O_2   0.758088 0.768097 0.913389 -0.134843
O28   O     O_2   0.737236 0.687432 0.715446 -0.181918
O29   O     O_3   0.576468 0.817526 0.788700 -0.450944
H9    H     H_    0.493100 0.800441 0.818029 0.375530
S8    S     S_3+6 0.335583 0.279005 0.183860 0.133204
O30   O     O_2   0.415892 0.193658 0.206250 -0.221108
O31   O     O_2   0.263338 0.311783 0.285336 -0.237604
O32   O     O_3   0.230075 0.227802 0.075085 -0.407568
H10   H     H_    0.183567 0.165979 0.099877 0.410450
F7    F     F_    0.461641 0.264067 0.977125 -0.515862
F8    F     F_    0.539228 0.735682 0.023561 -0.562779

loop_
_geom_bond_atom_site_label_1
_geom_bond_atom_site_label_2
_ccdc_geom_bond_type
S4    O19   D    
O14   H4    S    
C16   C21   S    
C27   C29   A    
C18   C21   S    
S6    O26   S    
C4    C25   A    
C18   S2    S    
S1    O10   D    
C17   C23   S    
C18   C24   S    
Cu2   N2    S    
C11   N2    A    
C19   C21   S    
S6    O25   D    
C11   S6    S    
C5    C6    A    
S8    O31   D    
S4    O20   S    
Cu1   O4    S    
C7    C9    A    
Cu2   O3    S    
S3    O16   D    
C27   S3    S    
C15   C22   S    
C6    C27   A    
C9    N2    A    
C20   C23   S    
C10   N1    A    
C8    F8    S    
Cu2   O2    S    
C16   O8    A    
C18   C20   S    
S2    O14   S    
C1    O1    A    
S4    O18   D    
C13   C14   A    
S3    O15   D    
S7    O28   D    
S2    O13   D    
S7    O27   D    
S1    O11   S    
C7    C14   A    
Cu1   O8    S    
S1    O9    D    
S6    O24   D    
C15   O5    A    
C4    C6    A    
O23   H7    S    
S5    O22   D    
S8    O30   D    
C3    H2    S    
Cu1   O1    S    
S3    O17   S    
C28   S4    S    
C9    S8    S    
C5    C28   A    
C2    O2    A    
Cu1   Cu2   S    
C29   F6    S    
C7    F7    S    
C30   F5    S    
O11   H3    S    
O29   H9    S    
C12   N1    A    
C24   F4    S    
C12   S5    S    
C12   C14   A    
C21   C23   S    
C1    C26   S    
C22   C24   S    
C16   O6    A    
S7    O29   S    
S2    O12   D    
C25   C30   A    
C23   F3    S    
C4    H1    S    
Cu1   O5    S    
C3    C26   A    
C17   S1    S    
C20   C22   S    
C3    C5    A    
S8    O32   S    
S5    O23   S    
C19   F1    S    
C10   S7    S    
C17   C22   S    
O17   H5    S    
C28   C30   A    
C19   C24   S    
C15   O7    A    
S5    O21   D    
C11   C13   A    
C17   C19   S    
Cu2   O7    S    
C2    C25   S    
Cu1   N1    S    
O20   H6    S    
C1    O3    A    
O26   H8    S    
C8    C13   A    
C2    O4    A    
C26   C29   A    
C8    C10   A    
Cu2   O6    S    
O32   H10   S    
C20   F2    S    
