data_mof_unit_51817.cif
_audit_creation_date              2012-12-11T17:16:58-0500
_audit_creation_method            fapswitch 2.2
_symmetry_space_group_name_H-M    P1
_symmetry_Int_Tables_number       1
_space_group_crystal_system       triclinic
_cell_length_a                    7.00221
_cell_length_b                    13.362923
_cell_length_c                    14.717562
_cell_angle_alpha                 99.149384
_cell_angle_beta                  89.595904
_cell_angle_gamma                 90.434986
_cell_volume                      1359.53820145

loop_
_atom_site_label
_atom_site_type_symbol
_atom_type_description
_atom_site_fract_x
_atom_site_fract_y
_atom_site_fract_z
_atom_type_partial_charge
O1    O     O_R   0.354890 0.151580 0.148210 -0.534818
O2    O     O_R   0.645110 0.848420 0.851790 -0.534819
O3    O     O_R   0.682370 0.152980 0.336770 -0.550496
O4    O     O_R   0.317630 0.847020 0.663230 -0.550495
O5    O     O_R   0.854980 0.348430 0.351800 -0.535238
O6    O     O_R   0.145020 0.651570 0.648200 -0.535238
C1    C     C_R   0.513428 0.129954 0.364679 0.697744
C2    C     C_R   0.486572 0.870046 0.635321 0.697743
O7    O     O_R   0.684450 0.139580 0.148000 -0.537492
O8    O     O_R   0.315550 0.860420 0.852000 -0.537492
O9    O     O_R   0.857080 0.334940 0.161680 -0.518769
O10   O     O_R   0.142920 0.665060 0.838320 -0.518769
C3    C     C_R   0.515665 0.112817 0.114200 0.727713
C4    C     C_R   0.484335 0.887183 0.885800 0.727711
O11   O     O_R   0.352790 0.165070 0.338330 -0.535553
O12   O     O_R   0.647210 0.834930 0.661670 -0.535553
O13   O     O_3   0.522170 0.314120 0.254710 -0.361363
O14   O     O_3   0.477830 0.685880 0.745290 -0.361363
V1    V     V_3+5 0.796120 0.238110 0.249130 1.439047
V2    V     V_3+5 0.203880 0.761890 0.750870 1.439047
O15   O     O_R   0.186930 0.347040 0.163240 -0.547216
O16   O     O_R   0.813070 0.652960 0.836760 -0.547216
C5    C     C_R   0.019465 0.368932 0.134428 0.764698
C6    C     C_R   0.980535 0.631068 0.865572 0.764695
O17   O     O_R   0.184850 0.360440 0.352010 -0.538272
O18   O     O_R   0.815150 0.639560 0.647990 -0.538272
C7    C     C_R   0.015847 0.387223 0.385785 0.730530
C8    C     C_R   0.984153 0.612777 0.614215 0.730531
V3    V     V_3+5 0.296410 0.261900 0.250880 1.434907
V4    V     V_3+5 0.703590 0.738100 0.749120 1.434905
O19   O     O_3   0.020490 0.185890 0.245290 -0.377322
O20   O     O_3   0.979510 0.814110 0.754710 -0.377321
C9    C     C_1   0.005163 0.466878 0.466281 -0.180735
C10   C     C_1   0.994837 0.533122 0.533719 -0.180736
C11   C     C_3   0.172910 0.518822 0.969051 0.134043
C12   C     C_3   0.827090 0.481178 0.030949 0.134040
C13   C     C_3   0.107914 0.546392 0.070863 0.092061
C14   C     C_3   0.892086 0.453608 0.929136 0.092062
C15   C     C_3   0.013640 0.439529 0.064680 -0.122218
C16   C     C_3   0.986360 0.560471 0.935320 -0.122220
C17   C     C_3   0.080044 0.413324 0.963196 0.161393
C18   C     C_3   0.919956 0.586676 0.036804 0.161393
C19   C     C_3   0.325797 0.006434 0.464774 0.159081
C20   C     C_3   0.674203 0.993567 0.535227 0.159068
C21   C     C_3   0.438676 0.906462 0.463157 -0.228652
C22   C     C_3   0.561324 0.093539 0.536843 -0.228666
H1    H     H_    0.389047 0.829409 0.432511 0.127071
H2    H     H_    0.610953 0.170592 0.567489 0.127067
C23   C     C_3   0.494258 0.940756 0.565467 -0.118164
C24   C     C_3   0.505742 0.059245 0.434533 -0.118166
C25   C     C_3   0.381851 0.039264 0.566397 0.223792
C26   C     C_3   0.618149 0.960737 0.433603 0.223785
C27   C     C_1   0.505092 0.033138 0.033711 -0.175188
C28   C     C_1   0.494908 0.966862 0.966288 -0.175188
C29   C     C_3   0.218368 0.601208 0.152933 -0.776220
H3    H     H_    0.295070 0.667611 0.133316 0.210647
H4    H     H_    0.117625 0.627509 0.210142 0.215411
H5    H     H_    0.321222 0.549023 0.177461 0.217176
C30   C     C_3   0.781633 0.398792 0.847066 -0.776226
H6    H     H_    0.704932 0.332389 0.866683 0.210647
H7    H     H_    0.678780 0.450976 0.822538 0.217176
H8    H     H_    0.882377 0.372491 0.789858 0.215408
N1    N     N_3   0.354996 0.538757 0.927147 -0.648742
H9    H     H_    0.416777 0.602953 0.965815 0.227063
H10   H     H_    0.441790 0.476406 0.928333 0.227214
N2    N     N_3   0.645004 0.461243 0.072853 -0.648744
H11   H     H_    0.583223 0.397049 0.034184 0.227065
H12   H     H_    0.558211 0.523594 0.071665 0.227213
N3    N     N_3   0.169204 0.318017 0.923505 -0.661749
H13   H     H_    0.214234 0.324998 0.856948 0.239076
H14   H     H_    0.291954 0.309870 0.961514 0.212266
N4    N     N_3   0.830795 0.681983 0.076495 -0.661747
H15   H     H_    0.785754 0.674999 0.143050 0.239078
H16   H     H_    0.708053 0.690133 0.038482 0.212267
C31   C     C_3   0.140006 0.004731 0.413232 -0.732582
H17   H     H_    0.168491 0.988673 0.338048 0.203055
H18   H     H_    0.053139 0.941526 0.430914 0.237650
H19   H     H_    0.066051 0.078549 0.429811 0.220658
C32   C     C_3   0.859995 0.995270 0.586768 -0.732564
H20   H     H_    0.831511 0.011328 0.661952 0.203057
H21   H     H_    0.933951 0.921451 0.570189 0.220659
H22   H     H_    0.946861 0.058475 0.569086 0.237656
N5    N     N_3   0.261998 0.087056 0.642146 -0.682062
H23   H     H_    0.351477 0.127978 0.691407 0.222550
H24   H     H_    0.201158 0.029915 0.673856 0.238014
N6    N     N_3   0.737996 0.912945 0.357852 -0.682052
H25   H     H_    0.798866 0.970088 0.326155 0.238015
H26   H     H_    0.648506 0.872047 0.308582 0.222546

loop_
_geom_bond_atom_site_label_1
_geom_bond_atom_site_label_2
_ccdc_geom_bond_type
C20   C23   S    
N2    H12   S    
C29   H3    S    
N1    H10   S    
O13   V3    S    
C12   C18   S    
O4    C2    A    
V1    O19   S    
C15   C17   S    
C27   C28   T    
C7    C9    S    
O9    V1    S    
C11   C13   S    
O3    C1    A    
C12   N2    S    
O12   V4    S    
C13   C18   S    
N3    H14   S    
O7    C3    A    
C6    C16   S    
O5    C7    A    
O7    V1    S    
O6    C8    A    
O8    V2    S    
C23   C25   S    
C24   C26   S    
O3    V1    S    
O14   V4    S    
C20   C26   S    
C16   C18   S    
N2    H11   S    
C8    C10   S    
C30   H6    S    
C2    O12   A    
C14   C16   S    
C19   C31   S    
C26   N6    S    
O2    C4    A    
C18   N4    S    
C20   C22   S    
O11   V3    S    
C3    C27   S    
C21   H1    S    
O17   V3    S    
C22   H2    S    
C30   H7    S    
N6    H26   S    
C32   H20   S    
C14   C17   S    
N4    H16   S    
O8    C4    A    
C32   H21   S    
N6    H25   S    
C1    O11   A    
C21   C26   S    
O15   V3    S    
C22   C25   S    
C12   C15   S    
N1    H9    S    
C13   C29   S    
C31   H17   S    
C31   H18   S    
N5    H23   S    
C21   C23   S    
O10   V2    S    
O1    V3    S    
C9    C10   T    
C19   C21   S    
C4    C28   S    
O18   V4    S    
C29   H4    S    
O16   C6    A    
O1    C3    A    
C12   C14   S    
C25   N5    S    
C17   N3    S    
V2    O20   S    
O10   C6    A    
C30   H8    S    
O16   V4    S    
N5    H24   S    
C20   C32   S    
C1    C24   S    
N4    H15   S    
C32   H22   S    
C19   C24   S    
O5    V1    S    
O17   C7    A    
O6    V2    S    
C22   C24   S    
O18   C8    A    
O2    V4    S    
O15   C5    A    
C11   C16   S    
V3    O19   S    
V4    O20   S    
C19   C25   S    
C5    C15   S    
O9    C5    A    
O13   V1    S    
O14   V2    S    
N3    H13   S    
C11   C17   S    
C31   H19   S    
C14   C30   S    
O4    V2    S    
C13   C15   S    
C29   H5    S    
C11   N1    S    
C2    C23   S    
