data_mof_unit_16428.cif
_audit_creation_date              2013-03-05T16:12:14-0500
_audit_creation_method            fapswitch 2.2
_symmetry_space_group_name_H-M    P1
_symmetry_Int_Tables_number       1
_space_group_crystal_system       triclinic
_cell_length_a                    10.76767
_cell_length_b                    9.527798
_cell_length_c                    27.729851
_cell_angle_alpha                 90.565872
_cell_angle_beta                  90.595038
_cell_angle_gamma                 89.417805
_cell_volume                      2844.42991032

loop_
_atom_site_label
_atom_site_type_symbol
_atom_site_description
_atom_site_fract_x
_atom_site_fract_y
_atom_site_fract_z
_atom_type_partial_charge
O1    O     O_R   0.317570 0.620260 0.500030 -0.612027
O2    O     O_R   0.317570 0.379740 0.500030 -0.554893
C1    C     C_R   0.260157 0.500644 0.500463 0.801782
O3    O     O_R   0.499900 0.620250 0.430280 -0.529439
O4    O     O_R   0.499900 0.379750 0.430280 -0.492290
C2    C     C_R   0.502354 0.499578 0.407831 0.857358
Cu1   Cu    Cu3+1 0.499860 0.642410 0.500020 0.948705
Cu2   Cu    Cu3+1 0.499860 0.357590 0.500020 0.970647
O5    O     O_R   0.682190 0.620260 0.500010 -0.561033
O6    O     O_R   0.682190 0.379740 0.500010 -0.607236
O7    O     O_R   0.499860 0.620280 0.569750 -0.597662
O8    O     O_R   0.499860 0.379720 0.569750 -0.600312
C3    C     C_R   0.739697 0.498923 0.502828 0.744743
C4    C     C_R   0.498394 0.500774 0.592408 0.769242
C5    C     C_R   0.405218 0.450910 0.178445 0.554019
O9    O     O_2   0.300308 0.430450 0.203551 -0.524976
N1    N     N_R   0.514848 0.477483 0.202275 -0.462746
C6    C     C_R   0.623461 0.490102 0.177352 0.579915
C7    C     C_R   0.597733 0.405002 0.281673 -0.060957
C8    C     C_R   0.596135 0.412588 0.331853 -0.143864
C9    C     C_R   0.427658 0.582712 0.328104 -0.152284
C10   C     C_R   0.432772 0.579813 0.277890 -0.056751
C11   C     C_R   0.516016 0.488570 0.254184 0.296418
C12   C     C_R   0.511870 0.455132 0.101791 -0.048944
C13   C     C_R   0.401275 0.443105 0.127898 -0.004978
C14   C     C_R   0.289249 0.422656 0.103174 -0.122082
C15   C     C_R   0.624389 0.474169 0.126942 -0.080255
C16   C     C_R   0.508912 0.498628 0.355240 -0.039309
H1    H     H_    0.359393 0.649186 0.345785 0.172186
H2    H     H_    0.370161 0.646515 0.257385 0.173240
H3    H     H_    0.202825 0.412804 0.122440 0.187199
C17   C     C_R   0.494395 0.503160 0.645423 -0.060579
C18   C     C_R   0.392523 0.430532 0.974432 0.039313
C19   C     C_R   0.616450 0.482311 0.974482 0.055655
C20   C     C_R   0.502740 0.461420 0.949225 0.073025
C21   C     C_R   0.282746 0.405261 0.947271 -0.174315
C22   C     C_R   0.280307 0.417561 0.897353 -0.131112
C23   C     C_R   0.387240 0.454026 0.872501 -0.024441
C24   C     C_R   0.498871 0.474960 0.898273 -0.047738
C25   C     C_R   0.606687 0.510459 0.873056 -0.021264
C26   C     C_R   0.602746 0.515609 0.822573 0.517913
N2    N     N_R   0.492249 0.500506 0.798313 -0.469391
C27   C     C_R   0.385365 0.470192 0.822223 0.531714
C28   C     C_R   0.471783 0.381377 0.720698 -0.131249
C29   C     C_R   0.475524 0.378982 0.670707 -0.237613
C30   C     C_R   0.507307 0.630373 0.670982 -0.244433
C31   C     C_R   0.506852 0.634180 0.721807 0.126687
C32   C     C_R   0.489900 0.506432 0.746548 0.328280
O10   O     O_2   0.277813 0.455154 0.797366 -0.539923
C33   C     C_R   0.394968 0.431140 0.025688 0.061675
C34   C     C_R   0.509954 0.448858 0.050645 0.035623
C35   C     C_R   0.623040 0.460165 0.025027 -0.076580
C36   C     C_R   0.285872 0.417111 0.053139 -0.172396
H4    H     H_    0.462678 0.279916 0.651931 0.149763
H5    H     H_    0.454974 0.285233 0.739782 0.148256
H6    H     H_    0.193649 0.398580 0.878294 0.199210
H7    H     H_    0.196606 0.375015 0.963353 0.188765
H8    H     H_    0.195335 0.404412 0.037154 0.197339
O11   O     O_2   0.730274 0.519171 0.201135 -0.526712
C37   C     C_R   0.735950 0.468810 0.101726 -0.182894
H9    H     H_    0.660896 0.348721 0.352503 0.174851
H10   H     H_    0.661716 0.332872 0.264216 0.174641
H11   H     H_    0.823422 0.469247 0.121378 0.203378
C38   C     C_R   0.717138 0.536645 0.948786 -0.099015
C39   C     C_R   0.714553 0.544485 0.898801 -0.138694
O12   O     O_2   0.708581 0.534522 0.797879 -0.549292
C40   C     C_R   0.737019 0.449819 0.051745 0.376094
H12   H     H_    0.797944 0.577225 0.967033 0.205814
H13   H     H_    0.518749 0.725677 0.650830 0.146825
H14   H     H_    0.796294 0.581397 0.880542 0.193285
C41   C     C_3   0.075308 0.589938 0.545575 -0.406785
C42   C     C_3   0.076549 0.348630 0.507744 -0.347934
H15   H     H_    0.115092 0.697110 0.544518 0.154889
H16   H     H_    0.104621 0.283059 0.476188 0.208685
H17   H     H_    0.109261 0.541128 0.579614 0.160849
H18   H     H_    0.124381 0.304265 0.539950 0.173649
C43   C     C_3   0.931027 0.601904 0.544507 -0.045394
C44   C     C_3   0.934473 0.343177 0.512486 -0.007402
H19   H     H_    0.906771 0.709413 0.531623 0.163701
H20   H     H_    0.898478 0.278361 0.481821 0.160660
H21   H     H_    0.093450 0.672499 0.451198 0.185284
H22   H     H_    0.103938 0.502337 0.423144 0.188225
H23   H     H_    0.883491 0.653602 0.447240 0.215195
H24   H     H_    0.893271 0.475713 0.426342 0.176273
C45   C     C_3   0.066858 0.560540 0.454932 -0.390648
C46   C     C_3   0.122332 0.500866 0.502042 0.083056
C47   C     C_3   0.878479 0.496360 0.505499 0.053522
C48   C     C_3   0.924194 0.548820 0.455554 -0.441594
C49   C     C_3   0.626975 0.082125 0.504618 -0.253143
C50   C     C_3   0.625970 0.916983 0.511579 -0.184325
H25   H     H_    0.673459 0.129346 0.536442 0.149645
H26   H     H_    0.655213 0.891762 0.549210 0.120450
H27   H     H_    0.683535 0.113763 0.473756 0.208373
H28   H     H_    0.699819 0.869575 0.489366 0.219569
H29   H     H_    0.492550 0.110854 0.578491 0.165450
H30   H     H_    0.444811 0.871466 0.575709 0.186608
C51   C     C_3   0.438228 0.086465 0.545099 -0.299569
C52   C     C_3   0.421003 0.919272 0.540429 -0.342149
C53   C     C_3   0.423021 0.071621 0.460093 0.393627
C54   C     C_3   0.461290 0.914366 0.453188 0.335255
N3    N     N_3   0.500250 0.143650 0.501060 -0.177447
N4    N     N_3   0.500250 0.856350 0.501060 -0.193349
H31   H     H_    0.325456 0.065220 0.473247 0.031806
H32   H     H_    0.377881 0.855344 0.440997 0.089575
H33   H     H_    0.346300 0.138367 0.550411 0.161318
H34   H     H_    0.321715 0.894485 0.533342 0.147331
C55   C     C_3   0.521140 0.770923 0.750304 -0.379723
C56   C     C_3   0.553444 0.900968 0.720667 -0.405161
C57   C     C_3   0.586625 0.024744 0.753483 -0.808678
H35   H     H_    0.505655 0.055852 0.775809 0.256173
H36   H     H_    0.666068 0.996958 0.777546 0.267197
H37   H     H_    0.614634 0.114720 0.731088 0.241362
H38   H     H_    0.634996 0.878139 0.697607 0.226102
H39   H     H_    0.473153 0.931190 0.697327 0.216593
H40   H     H_    0.433687 0.792045 0.770177 0.203940
H41   H     H_    0.596485 0.757286 0.777352 0.236944
S1    S     S_3+6 0.877491 0.378750 0.028058 -0.016981
O13   O     O_2   0.854247 0.298061 0.982052 -0.244424
O14   O     O_2   0.967229 0.495106 0.018806 -0.358343
O15   O     O_3   0.941670 0.268085 0.068423 -0.492534
H42   H     H_    0.996548 0.326681 0.089017 0.343649
C58   C     C_3   0.874843 0.591142 0.595765 -0.420223
C59   C     C_3   0.895131 0.725614 0.625665 -0.400179
C60   C     C_3   0.859749 0.704875 0.678253 -0.763707
H43   H     H_    0.763060 0.667074 0.680683 0.263045
H44   H     H_    0.923088 0.626902 0.695427 0.270906
H45   H     H_    0.867519 0.805996 0.698249 0.242541
H46   H     H_    0.994343 0.756103 0.624741 0.231244
H47   H     H_    0.837701 0.812096 0.610301 0.207314
H48   H     H_    0.773442 0.572050 0.593442 0.191606
H49   H     H_    0.917591 0.503561 0.615912 0.211759
C61   C     C_3   0.900888 0.265554 0.559775 -0.390945
C62   C     C_3   0.913638 0.103728 0.555586 -0.362902
C63   C     C_3   0.046077 0.047463 0.562679 -0.846384
H50   H     H_    0.103465 0.067952 0.530537 0.245585
H51   H     H_    0.090101 0.093814 0.595504 0.249227
H52   H     H_    0.043309 0.932070 0.566972 0.223083
H53   H     H_    0.855212 0.056920 0.583934 0.194631
H54   H     H_    0.878849 0.065221 0.520115 0.209102
H55   H     H_    0.960735 0.299813 0.590276 0.201762
H56   H     H_    0.804431 0.292266 0.570265 0.173963
S2    S     S_3+6 0.367652 0.147050 0.403364 0.052120
O16   O     O_2   0.469505 0.178974 0.368928 -0.215262
O17   O     O_2   0.286116 0.038978 0.379481 -0.296466
O18   O     O_3   0.277777 0.290135 0.411587 -0.572860
H57   H     H_    0.251314 0.318549 0.378754 0.359252
S3    S     S_3+6 0.577254 0.895029 0.403963 0.040464
O19   O     O_2   0.507328 0.866770 0.357808 -0.246991
O20   O     O_2   0.651001 0.026021 0.397230 -0.291132
O21   O     O_3   0.682462 0.765325 0.411729 -0.559706
H58   H     H_    0.719471 0.749385 0.379554 0.365900

loop_
_geom_bond_atom_site_label_1
_geom_bond_atom_site_label_2
_geom_bond_distance
_ccdc_geom_bond_type
C44   C47   1.586337 S    
C53   H31   1.118095 S    
C47   C48   1.563041 S    
C17   C29   1.398908 A    
C53   S2    1.827758 S    
C20   C24   1.420174 A    
C7    C8    1.392928 A    
C12   C15   1.404138 A    
C42   H18   1.111307 S    
C63   H52   1.107771 S    
O18   H57   0.990618 S    
C59   C60   1.526246 S    
C45   C46   1.542126 S    
C28   C29   1.387194 A    
Cu1   O7    1.947134 S    
N1    C11   1.442173 S    
C37   H11   1.083273 S    
C38   H12   1.075355 S    
C21   C22   1.390295 A    
S3    O20   1.500303 D    
C15   C37   1.396436 A    
S1    O14   1.503693 D    
C23   C24   1.406958 A    
O7    C4    1.306214 A    
C44   H20   1.114599 S    
C5    C13   1.403132 A    
C7    H10   1.082596 S    
C5    O9    1.349914 S    
C51   C52   1.609406 S    
C54   H32   1.112364 S    
C18   C21   1.416392 A    
C56   C57   1.525481 S    
C5    N1    1.371429 A    
C19   C20   1.419045 A    
C26   N2    1.368875 A    
C56   H39   1.111854 S    
C8    H9    1.083703 S    
O5    C3    1.308540 A    
C50   N4    1.501904 S    
C30   H13   1.079678 S    
C42   C44   1.538273 S    
C43   C58   1.555266 S    
C22   H6    1.083516 S    
C2    C16   1.460697 S    
S3    O19   1.501591 D    
C37   C40   1.396118 A    
C61   C62   1.549879 S    
Cu1   N4    2.038343 S    
H30   C52   1.109726 S    
C55   C56   1.538325 S    
C49   H25   1.104208 S    
Cu2   N3    2.038827 S    
C51   H33   1.112510 S    
C12   C34   1.418893 A    
H23   C48   1.111529 S    
C14   H3    1.083192 S    
C9    C10   1.394080 A    
C59   H47   1.110844 S    
C1    C46   1.485130 S    
S2    O18   1.678889 S    
O3    Cu1   1.943301 S    
C19   C38   1.409213 A    
C50   H28   1.101440 S    
C43   H19   1.115770 S    
C33   C36   1.414589 A    
C34   C35   1.421658 A    
C31   C32   1.417414 A    
Cu1   Cu2   2.713706 S    
S3    O21   1.681855 S    
C12   C13   1.406294 A    
C42   H16   1.112748 S    
C21   H7    1.076460 S    
C57   H37   1.109580 S    
C24   C25   1.407341 A    
C41   H15   1.112107 S    
C27   O10   1.349676 S    
C63   H51   1.111578 S    
C8    C16   1.400421 A    
C33   C34   1.422866 A    
C18   C33   1.421250 A    
C52   N4    1.508436 S    
C9    H1    1.083378 S    
O1    C1    1.302277 A    
C56   H38   1.110109 S    
C7    C11   1.404658 A    
C22   C23   1.396684 A    
C41   C46   1.554861 S    
C50   H26   1.114618 S    
C53   C54   1.560374 S    
Cu2   O8    1.942993 S    
C3    C47   1.495388 S    
C54   N4    1.497322 S    
N1    C6    1.371551 A    
N2    C32   1.437048 S    
C40   S1    1.780100 S    
C55   H40   1.111600 S    
C63   H50   1.109813 S    
C35   C40   1.430013 A    
C60   H45   1.110329 S    
O3    C2    1.302189 A    
C25   C26   1.401423 A    
C53   N3    1.558707 S    
C9    C16   1.399119 A    
O8    C4    1.307982 A    
C29   H4    1.082855 S    
C62   H54   1.109240 S    
C31   C55   1.525381 S    
C25   C39   1.396292 A    
C62   C63   1.529852 S    
S2    O17   1.504160 D    
S1    O15   1.683622 S    
N2    C27   1.368927 A    
C49   C50   1.587285 S    
C14   C36   1.388055 A    
C58   H49   1.102887 S    
C41   C43   1.556590 S    
O15   H42   0.990130 S    
C44   C61   1.559399 S    
C60   H44   1.110779 S    
C45   C48   1.541624 S    
C61   H56   1.107954 S    
Cu1   O5    1.972449 S    
C30   C31   1.409556 A    
C10   H2    1.082680 S    
C49   N3    1.482369 S    
O1    Cu1   1.976286 S    
C17   C30   1.405403 A    
C10   C11   1.405863 A    
O2    Cu2   1.972022 S    
C6    C15   1.404723 A    
H24   C48   1.113654 S    
C4    C17   1.471109 S    
O6    C3    1.300213 A    
O4    Cu2   1.947448 S    
C42   C46   1.546793 S    
C36   H8    1.074178 S    
H29   C51   1.113903 S    
C26   O12   1.350134 S    
C61   H55   1.106648 S    
H22   C45   1.112241 S    
C19   C35   1.420416 A    
C52   H34   1.112318 S    
C38   C39   1.388797 A    
C57   H36   1.110906 S    
O2    C1    1.301815 A    
C13   C14   1.395712 A    
C23   C27   1.404109 A    
C57   H35   1.110684 S    
C41   H17   1.113083 S    
C28   H5    1.080215 S    
C59   H46   1.110538 S    
O4    C2    1.306405 A    
C18   C20   1.418457 A    
C49   H27   1.101740 S    
C51   N3    1.507214 S    
C55   H41   1.106682 S    
C28   C32   1.398759 A    
C6    O11   1.349652 S    
C62   H53   1.111544 S    
C43   C47   1.574400 S    
Cu2   O6    1.976714 S    
S2    O16   1.497140 D    
O21   H58   0.990643 S    
C54   S3    1.866031 S    
C58   C59   1.535463 S    
S1    O13   1.503026 D    
C58   H48   1.109829 S    
H21   C45   1.113380 S    
C39   H14   1.083413 S    
C60   H43   1.108037 S    
