data_mof_unit_35963.cif
_audit_creation_date              2012-12-10T18:58:42-0500
_audit_creation_method            fapswitch 2.2
_symmetry_space_group_name_H-M    P1
_symmetry_Int_Tables_number       1
_space_group_crystal_system       triclinic
_cell_length_a                    10.706102
_cell_length_b                    9.808481
_cell_length_c                    17.424177
_cell_angle_alpha                 89.829278
_cell_angle_beta                  90.063213
_cell_angle_gamma                 89.941838
_cell_volume                      1829.7130624

loop_
_atom_site_label
_atom_site_type_symbol
_atom_type_description
_atom_site_fract_x
_atom_site_fract_y
_atom_site_fract_z
_atom_type_partial_charge
C1    C     C_R   0.259783 0.500045 0.499957 0.859763
C2    C     C_R   0.503040 0.499875 0.646761 1.041107
C3    C     C_R   0.872571 0.499907 0.500196 -0.008344
C4    C     C_R   0.127403 0.500067 0.499976 -0.003895
C5    C     C_R   0.628361 0.598982 0.839326 0.344760
C6    C     C_R   0.579191 0.376686 0.153963 0.321224
C7    C     C_R   0.550141 0.623641 0.149590 0.363670
C8    C     C_R   0.499187 0.395537 0.853692 0.333844
C9    C     C_R   0.603290 0.599540 0.760829 0.454450
C10   C     C_R   0.543110 0.376146 0.230899 0.451375
C11   C     C_R   0.527402 0.624125 0.228521 0.449160
C12   C     C_R   0.740211 0.499953 0.500100 0.867196
C13   C     C_R   0.474134 0.396843 0.775261 0.460917
C14   C     C_R   0.524654 0.499972 0.728971 -0.448469
C15   C     C_R   0.521382 0.500105 0.269425 -0.446293
C16   C     C_R   0.577756 0.071730 0.547727 -0.049148
C17   C     C_R   0.422316 0.928274 0.452229 -0.023363
C18   C     C_R   0.422321 0.072401 0.452225 -0.014682
C19   C     C_R   0.577799 0.927609 0.547699 -0.057348
C20   C     C_R   0.579094 0.494419 0.884797 -0.284204
C21   C     C_R   0.580999 0.500410 0.113895 -0.268476
C22   C     C_3   0.641066 0.819938 0.879390 0.138424
C23   C     C_1   0.596490 0.496878 0.965208 0.126510
C24   C     C_3   0.734226 0.937736 0.880754 -0.352875
C25   C     C_3   0.667290 0.075068 0.883257 -0.873388
C26   C     C_3   0.715678 0.198732 0.141301 0.148989
C27   C     C_3   0.758194 0.089904 0.084486 -0.341531
C28   C     C_3   0.872544 0.012758 0.113932 -0.928806
C29   C     C_3   0.428789 0.797632 0.100080 0.151412
C30   C     C_3   0.351392 0.718552 0.040739 -0.458375
C31   C     C_3   0.223893 0.784626 0.028139 -0.925442
C32   C     C_3   0.331308 0.334487 0.925853 0.129657
C33   C     C_3   0.290667 0.238263 0.990204 -0.324791
C34   C     C_1   0.596850 0.498577 0.033346 0.155433
C35   C     C_3   0.162741 0.277406 0.021784 -0.968650
C36   C     C_R   0.064022 0.379584 0.482669 -0.180270
C37   C     C_R   0.935941 0.620365 0.517565 -0.159405
C38   C     C_R   0.936115 0.379501 0.482791 -0.195740
C39   C     C_R   0.063855 0.620462 0.517412 -0.192470
C40   C     C_R   0.502463 0.500137 0.352746 0.995842
F1    F     F_    0.659014 0.695007 0.715737 -0.653493
F2    F     F_    0.529518 0.254407 0.267324 -0.638769
F3    F     F_    0.512147 0.745690 0.264549 -0.636044
F4    F     F_    0.399409 0.298998 0.744824 -0.636503
H1    H     H_    0.639808 0.126306 0.585822 0.140441
H2    H     H_    0.572912 0.839625 0.832040 0.158626
H3    H     H_    0.795860 0.927452 0.931805 0.225763
H4    H     H_    0.793346 0.933857 0.828393 0.256166
H5    H     H_    0.609636 0.089488 0.830799 0.298851
H6    H     H_    0.737002 0.158650 0.886007 0.258218
H7    H     H_    0.606133 0.080785 0.934600 0.287609
H8    H     H_    0.702475 0.149896 0.198368 0.215150
H9    H     H_    0.790836 0.277268 0.145464 0.109486
H10   H     H_    0.681143 0.016107 0.074486 0.261058
H11   H     H_    0.781981 0.139881 0.029151 0.224827
H12   H     H_    0.360327 0.873694 0.414098 0.149658
H13   H     H_    0.950653 0.084488 0.124933 0.254943
H14   H     H_    0.902974 0.937410 0.070323 0.270265
H15   H     H_    0.849621 0.957411 0.167811 0.283535
H16   H     H_    0.437718 0.904861 0.080063 0.170321
H17   H     H_    0.378164 0.801795 0.155754 0.185115
H18   H     H_    0.401996 0.715409 0.985197 0.220463
H19   H     H_    0.336832 0.612212 0.060940 0.216076
H20   H     H_    0.170560 0.787224 0.082771 0.268623
H21   H     H_    0.170073 0.724583 0.985501 0.271911
H22   H     H_    0.235026 0.890163 0.005991 0.263994
H23   H     H_    0.360321 0.127519 0.414098 0.144515
H24   H     H_    0.262423 0.328845 0.878048 0.182358
H25   H     H_    0.332667 0.440455 0.948996 0.108246
H26   H     H_    0.286904 0.132255 0.968005 0.225572
H27   H     H_    0.360368 0.241923 0.037502 0.256862
H28   H     H_    0.164917 0.382678 0.045122 0.267794
H29   H     H_    0.136931 0.206170 0.068752 0.268574
H30   H     H_    0.090784 0.271118 0.975951 0.272635
H31   H     H_    0.639976 0.872528 0.585715 0.181139
H32   H     H_    0.112908 0.286169 0.468555 0.156301
H33   H     H_    0.887039 0.713760 0.531705 0.166684
H34   H     H_    0.887358 0.286051 0.468754 0.163672
H35   H     H_    0.112615 0.713918 0.531425 0.161948
H36   H     H_    0.589454 0.817835 0.934701 0.140413
N1    N     N_R   0.500000 0.857200 0.500000 -0.091130
N2    N     N_R   0.500000 0.142800 0.500000 -0.085603
O1    O     O_R   0.316770 0.614620 0.500000 -0.642880
O2    O     O_3   0.601761 0.255767 0.115351 -0.613548
O3    O     O_3   0.551351 0.743985 0.107399 -0.616057
O4    O     O_3   0.450287 0.293604 0.899635 -0.602920
O5    O     O_R   0.683230 0.385380 0.500000 -0.640013
O6    O     O_R   0.683230 0.614620 0.500000 -0.620741
O7    O     O_R   0.316770 0.385380 0.500000 -0.628235
O8    O     O_R   0.500010 0.614710 0.389120 -0.560630
O9    O     O_R   0.499990 0.385290 0.610880 -0.576874
O10   O     O_R   0.499990 0.614710 0.610880 -0.582165
O11   O     O_R   0.500010 0.385290 0.389120 -0.563936
O12   O     O_3   0.707092 0.695928 0.870617 -0.590511
Zn1   Zn    Zn3+2 0.500000 0.653120 0.500000 1.001972
Zn2   Zn    Zn3+2 0.500000 0.346880 0.500000 1.002500

loop_
_geom_bond_atom_site_label_1
_geom_bond_atom_site_label_2
_ccdc_geom_bond_type
C31   H22   S    
C4    C36   A    
C35   H30   S    
C8    C13   A    
C10   F2    S    
C40   O11   A    
C5    O12   S    
C27   H10   S    
O8    Zn1   S    
C5    C20   A    
C28   H13   S    
C7    C11   A    
C26   C27   S    
C8    C20   A    
C10   C15   A    
C30   C31   S    
N1    Zn1   S    
C27   H11   S    
C25   H6    S    
C3    C12   S    
C36   H32   S    
C33   C35   S    
O9    Zn2   S    
C11   C15   A    
C3    C38   A    
C26   O2    S    
C29   H16   S    
C11   F3    S    
C17   N1    A    
C29   O3    S    
C32   H24   S    
O6    Zn1   S    
C32   O4    S    
C13   C14   A    
C22   O12   S    
C30   H19   S    
C29   H17   S    
C20   C23   S    
C6    O2    S    
C12   O6    A    
C24   H4    S    
N2    Zn2   S    
C24   C25   S    
C21   C34   S    
C38   H34   S    
C18   H23   S    
C7    C21   A    
C6    C21   A    
C37   H33   S    
O10   Zn1   S    
C39   H35   S    
C9    C14   A    
C25   H7    S    
C5    C9    A    
C29   C30   S    
C26   H8    S    
C4    C39   A    
C23   C34   T    
O1    Zn1   S    
O5    Zn2   S    
C16   N2    A    
C17   C18   A    
C2    O10   A    
C17   H12   S    
C33   H26   S    
C22   H2    S    
C35   H28   S    
O11   Zn2   S    
C30   H18   S    
C22   C24   S    
C26   H9    S    
C28   H15   S    
C31   H21   S    
C35   H29   S    
C1    O7    A    
C12   O5    A    
C24   H3    S    
C31   H20   S    
C16   H1    S    
C6    C10   A    
C32   H25   S    
C28   H14   S    
C1    O1    A    
C9    F1    S    
C1    C4    S    
C32   C33   S    
O7    Zn2   S    
C19   H31   S    
C22   H36   S    
C37   C39   A    
C7    O3    S    
C16   C19   A    
C36   C38   A    
C18   N2    A    
C8    O4    S    
C2    O9    A    
C2    C14   S    
C25   H5    S    
C15   C40   S    
C33   H27   S    
C3    C37   A    
C27   C28   S    
C40   O8    A    
C19   N1    A    
C13   F4    S    
