data_mof_unit_67243.cif
_audit_creation_date              2013-03-05T16:01:27-0500
_audit_creation_method            fapswitch 2.2
_symmetry_space_group_name_H-M    P1
_symmetry_Int_Tables_number       1
_space_group_crystal_system       triclinic
_cell_length_a                    20.332526
_cell_length_b                    20.589618
_cell_length_c                    8.586339
_cell_angle_alpha                 90.255784
_cell_angle_beta                  91.607259
_cell_angle_gamma                 89.954279
_cell_volume                      3593.1250511

loop_
_atom_site_label
_atom_site_type_symbol
_atom_site_description
_atom_site_fract_x
_atom_site_fract_y
_atom_site_fract_z
_atom_type_partial_charge
P1    P     P_3+3 0.136530 0.426510 0.931350 0.431850
P2    P     P_3+3 0.136530 0.573490 0.431350 0.432627
P3    P     P_3+3 0.636530 0.926510 0.931350 0.431815
P4    P     P_3+3 0.636530 0.073490 0.431350 0.432613
O1    O     O_2   0.130070 0.404060 0.104920 -0.371496
O2    O     O_2   0.130070 0.595940 0.604920 -0.365496
O3    O     O_2   0.630070 0.904060 0.104920 -0.371674
O4    O     O_2   0.630070 0.095940 0.604920 -0.365479
O5    O     O_3   0.075780 0.466370 0.861070 -0.424381
O6    O     O_3   0.075780 0.533630 0.361070 -0.446114
O7    O     O_3   0.575780 0.966370 0.861070 -0.424359
O8    O     O_3   0.575780 0.033630 0.361070 -0.446134
O9    O     O_3   0.022320 0.344950 0.359800 -0.386598
O10   O     O_3   0.022320 0.655050 0.859800 -0.387821
O11   O     O_3   0.522320 0.844950 0.359800 -0.387098
O12   O     O_3   0.522320 0.155050 0.859800 -0.387873
O13   O     O_2   0.130119 0.290681 0.246821 -0.394599
O14   O     O_2   0.132804 0.705197 0.754323 -0.387634
O15   O     O_2   0.630015 0.790461 0.246790 -0.395037
O16   O     O_2   0.632806 0.205195 0.754334 -0.387591
O17   O     O_3   0.205107 0.477310 0.940122 -0.587749
O18   O     O_3   0.207170 0.525548 0.435073 -0.592631
O19   O     O_3   0.705100 0.977308 0.940109 -0.587812
O20   O     O_3   0.707150 0.025520 0.435099 -0.592588
O21   O     O_3   0.045896 0.210882 0.363253 -0.525838
O22   O     O_3   0.047910 0.788916 0.853021 -0.517346
O23   O     O_3   0.545760 0.710837 0.363957 -0.525990
O24   O     O_3   0.547908 0.288919 0.852991 -0.517327
H1    H     H_    0.959452 0.251790 0.444050 0.076109
H2    H     H_    0.970095 0.754029 0.982156 0.054739
H3    H     H_    0.459062 0.751824 0.442902 0.077100
H4    H     H_    0.470033 0.254012 0.981896 0.054843
C1    C     C_3   0.948509 0.149751 0.428417 -0.407731
C2    C     C_3   0.949037 0.850376 0.906046 -0.388134
C3    C     C_3   0.448584 0.649643 0.430668 -0.408933
C4    C     C_3   0.449021 0.350380 0.905889 -0.388192
H5    H     H_    0.935894 0.147711 0.302042 0.223129
H6    H     H_    0.940564 0.845614 0.778252 0.244100
H7    H     H_    0.435621 0.647107 0.304513 0.222329
H8    H     H_    0.440558 0.345624 0.778088 0.244096
P5    P     P_3+3 0.863410 0.426100 0.379280 0.424737
P6    P     P_3+3 0.863410 0.573900 0.879280 0.418083
P7    P     P_3+3 0.363410 0.926100 0.379280 0.424694
P8    P     P_3+3 0.363410 0.073900 0.879280 0.418061
P9    P     P_3+3 0.915652 0.285005 0.929177 0.404966
P10   P     P_3+3 0.917819 0.717315 0.427249 0.414983
P11   P     P_3+3 0.415609 0.785039 0.929189 0.404544
P12   P     P_3+3 0.417825 0.217320 0.427237 0.415028
O25   O     O_2   0.869860 0.403670 0.205810 -0.371188
O26   O     O_2   0.869860 0.596330 0.705810 -0.385414
O27   O     O_2   0.369860 0.903670 0.205810 -0.371154
O28   O     O_2   0.369860 0.096330 0.705810 -0.385517
O29   O     O_3   0.977590 0.344880 0.951200 -0.426793
O30   O     O_3   0.977590 0.655120 0.451200 -0.411107
O31   O     O_3   0.477590 0.844880 0.951200 -0.427057
O32   O     O_3   0.477590 0.155120 0.451200 -0.411091
O33   O     O_2   0.874720 0.286863 0.078504 -0.386997
O34   O     O_2   0.869696 0.710059 0.562669 -0.380092
O35   O     O_2   0.374699 0.786878 0.078550 -0.387286
O36   O     O_2   0.369700 0.210070 0.562655 -0.380032
O37   O     O_3   0.787312 0.468068 0.353233 -0.571236
O38   O     O_3   0.787975 0.531865 0.873955 -0.602094
O39   O     O_3   0.287318 0.968072 0.353199 -0.571200
O40   O     O_3   0.287974 0.031871 0.874073 -0.602143
O41   O     O_3   0.954712 0.209014 0.935183 -0.556902
O42   O     O_3   0.958616 0.790592 0.465046 -0.542662
O43   O     O_3   0.454591 0.709009 0.935003 -0.557385
O44   O     O_3   0.458632 0.290592 0.465037 -0.542690
C5    C     C_3   0.023167 0.218154 0.948137 0.543050
C6    C     C_3   0.025490 0.782423 0.432850 0.562467
C7    C     C_3   0.523012 0.718072 0.949744 0.543127
C8    C     C_3   0.525502 0.282421 0.432802 0.562516
H9    H     H_    0.036308 0.245071 0.056835 0.182296
H10   H     H_    0.049694 0.751070 0.522549 0.166529
H11   H     H_    0.535684 0.745087 0.058574 0.182783
H12   H     H_    0.549715 0.251072 0.522497 0.166503
H13   H     H_    0.041326 0.244971 0.845728 0.026646
H14   H     H_    0.032132 0.760960 0.315368 -0.005638
H15   H     H_    0.541679 0.744750 0.847666 0.027339
H16   H     H_    0.532132 0.260952 0.315323 -0.005613
C9    C     C_3   0.057434 0.152528 0.955392 -1.068249
C10   C     C_3   0.059178 0.847992 0.437724 -1.099878
C11   C     C_3   0.557160 0.652408 0.958353 -1.066842
C12   C     C_3   0.559191 0.347991 0.437631 -1.100073
H17   H     H_    0.040150 0.124524 0.056469 0.282549
H18   H     H_    0.053692 0.870630 0.554095 0.291921
H19   H     H_    0.539256 0.624498 0.058937 0.282645
H20   H     H_    0.553724 0.370635 0.554001 0.291892
H21   H     H_    0.046704 0.124588 0.846997 0.244622
H22   H     H_    0.036966 0.880312 0.347391 0.259220
H23   H     H_    0.546998 0.624399 0.849798 0.244039
H24   H     H_    0.536967 0.380307 0.347304 0.259344
C13   C     C_3   0.795723 0.464631 0.880570 0.246988
C14   C     C_3   0.788519 0.534067 0.391096 0.344328
C15   C     C_3   0.295728 0.964635 0.880516 0.246737
C16   C     C_3   0.288519 0.034063 0.391138 0.344457
H25   H     H_    0.802360 0.447310 0.760950 0.037955
H26   H     H_    0.803895 0.560433 0.286995 0.004153
H27   H     H_    0.302348 0.947367 0.760842 0.038129
H28   H     H_    0.303887 0.060452 0.287064 0.004266
H29   H     H_    0.836244 0.451678 0.962384 0.139257
H30   H     H_    0.819552 0.543257 0.495628 0.124733
H31   H     H_    0.336255 0.951659 0.962292 0.139303
H32   H     H_    0.319555 0.043238 0.495671 0.124685
C17   C     C_3   0.733850 0.429922 0.935748 -0.451488
C18   C     C_3   0.719022 0.561525 0.413774 -0.446641
C19   C     C_3   0.233873 0.929892 0.935675 -0.451573
C20   C     C_3   0.219017 0.061496 0.413857 -0.447333
H33   H     H_    0.706701 0.406741 0.836540 0.171377
H34   H     H_    0.685835 0.550160 0.313280 0.204770
H35   H     H_    0.206726 0.906725 0.836446 0.171393
H36   H     H_    0.185836 0.050128 0.313351 0.204878
H37   H     H_    0.750433 0.389301 0.010496 0.181164
H38   H     H_    0.723520 0.615209 0.416551 0.133507
H39   H     H_    0.250472 0.889259 0.010372 0.181213
H40   H     H_    0.223499 0.115181 0.416668 0.133566
Ba1   Ba    Ba6+2 0.999980 0.452130 0.155200 1.462046
Ba2   Ba    Ba6+2 0.999980 0.547870 0.655200 1.464220
Ba3   Ba    Ba6+2 0.499980 0.952130 0.155200 1.461817
Ba4   Ba    Ba6+2 0.499980 0.047870 0.655200 1.464175
C21   C     C_3   0.188506 0.538633 0.997140 0.319773
C22   C     C_3   0.192940 0.463334 0.486866 0.310253
C23   C     C_3   0.688497 0.038636 0.997095 0.319788
C24   C     C_3   0.692869 0.963307 0.486832 0.310267
H41   H     H_    0.176878 0.535001 0.122011 0.102524
H42   H     H_    0.184233 0.465427 0.613728 0.099376
H43   H     H_    0.676909 0.035019 0.121993 0.102464
H44   H     H_    0.684118 0.965401 0.613673 0.099401
H45   H     H_    0.146238 0.559964 0.930193 0.118542
H46   H     H_    0.150071 0.442278 0.421297 0.117496
H47   H     H_    0.646207 0.059952 0.930199 0.118593
H48   H     H_    0.650014 0.942273 0.421173 0.117585
C25   C     C_3   0.247534 0.583308 0.977353 -0.466766
C26   C     C_3   0.251861 0.419835 0.456297 -0.464755
C27   C     C_3   0.747508 0.083312 0.977166 -0.466769
C28   C     C_3   0.751777 0.919784 0.456363 -0.464758
H49   H     H_    0.236195 0.632566 0.021609 0.179911
H50   H     H_    0.242246 0.370325 0.500871 0.180287
H51   H     H_    0.736192 0.132568 0.021468 0.179835
H52   H     H_    0.742077 0.870238 0.500590 0.180268
H53   H     H_    0.257041 0.587340 0.850752 0.204094
H54   H     H_    0.258191 0.416202 0.328252 0.200779
H55   H     H_    0.756953 0.087347 0.850534 0.204200
H56   H     H_    0.758238 0.916270 0.328344 0.200833
O45   O     O_3   0.924190 0.533610 0.949240 -0.444374
O46   O     O_3   0.924190 0.466390 0.449240 -0.467451
O47   O     O_3   0.424190 0.033610 0.949240 -0.444360
O48   O     O_3   0.424190 0.966390 0.449240 -0.467445
P13   P     P_3+3 0.084848 0.713219 0.889702 0.425989
P14   P     P_3+3 0.084950 0.286363 0.388493 0.412201
P15   P     P_3+3 0.584845 0.213222 0.889702 0.425979
P16   P     P_3+3 0.584901 0.786313 0.388602 0.411681
C29   C     C_3   0.992033 0.209034 0.463129 0.373392
C30   C     C_3   0.998853 0.798965 0.963479 0.357165
C31   C     C_3   0.491801 0.709303 0.463584 0.372655
C32   C     C_3   0.498808 0.298948 0.963351 0.357274
H57   H     H_    0.009413 0.208357 0.586970 0.017532
H58   H     H_    0.021919 0.813874 0.076664 0.031900
H59   H     H_    0.509041 0.709372 0.587563 0.017138
H60   H     H_    0.521832 0.313828 0.076605 0.031782
H61   H     H_    0.901570 0.156966 0.489666 0.127811
H62   H     H_    0.901227 0.840136 0.960749 0.126516
H63   H     H_    0.401780 0.656803 0.492501 0.128015
H64   H     H_    0.401201 0.340161 0.960567 0.126470
H65   H     H_    0.111470 0.159589 0.968380 0.243457
H66   H     H_    0.112302 0.841522 0.415597 0.246562
H67   H     H_    0.611149 0.659412 0.973008 0.243623
H68   H     H_    0.612312 0.341520 0.415465 0.246583
C33   C     C_R   0.240248 0.302851 0.008522 -0.141382
C34   C     C_R   0.240418 0.696889 0.509016 -0.140928
C35   C     C_R   0.740234 0.802842 0.008562 -0.141521
C36   C     C_R   0.740448 0.196863 0.508971 -0.141083
C37   C     C_R   0.156677 0.349654 0.819409 0.255366
C38   C     C_R   0.153092 0.651264 0.323958 0.275878
C39   C     C_R   0.656673 0.849651 0.819426 0.255586
C40   C     C_R   0.653103 0.151258 0.323942 0.275799
C41   C     C_R   0.129409 0.345354 0.668666 -0.555279
C42   C     C_R   0.119350 0.657832 0.180501 -0.549971
C43   C     C_R   0.629400 0.845345 0.668690 -0.555426
C44   C     C_R   0.619355 0.157830 0.180493 -0.549953
C45   C     C_R   0.134084 0.290358 0.575898 0.264853
C46   C     C_R   0.130260 0.709807 0.081185 0.230305
C47   C     C_R   0.634085 0.790353 0.575921 0.265560
C48   C     C_R   0.630255 0.209813 0.081191 0.230353
C49   C     C_R   0.174830 0.239444 0.627402 -0.304763
C50   C     C_R   0.176559 0.757373 0.125509 -0.310388
C51   C     C_R   0.674830 0.739441 0.627428 -0.304926
C52   C     C_R   0.676547 0.257385 0.125530 -0.310371
C53   C     C_R   0.211315 0.244392 0.769847 0.079681
C54   C     C_R   0.212404 0.753335 0.268727 0.077680
C55   C     C_R   0.711309 0.744388 0.769876 0.079856
C56   C     C_R   0.712405 0.253334 0.268729 0.077667
C57   C     C_R   0.202146 0.299481 0.868628 -0.004418
C58   C     C_R   0.201768 0.699663 0.369200 -0.017314
C59   C     C_R   0.702138 0.799477 0.868657 -0.004407
C60   C     C_R   0.701783 0.199652 0.369180 -0.017269
C61   C     C_R   0.798381 0.700502 0.947656 -0.039962
C62   C     C_R   0.796607 0.300523 0.451572 -0.038484
C63   C     C_R   0.298389 0.200506 0.947631 -0.039845
C64   C     C_R   0.296586 0.800541 0.451593 -0.038622
C65   C     C_R   0.787209 0.754332 0.049339 0.075860
C66   C     C_R   0.785683 0.247022 0.552710 0.076808
C67   C     C_R   0.287221 0.254339 0.049306 0.075842
C68   C     C_R   0.285642 0.747056 0.552761 0.076699
C69   C     C_R   0.850540 0.654911 0.985359 0.266823
C70   C     C_R   0.843564 0.350518 0.497656 0.247743
C71   C     C_R   0.350547 0.154914 0.985346 0.266960
C72   C     C_R   0.343546 0.850535 0.497675 0.247513
C73   C     C_R   0.890256 0.668069 0.119314 -0.199786
C74   C     C_R   0.870605 0.348393 0.651215 -0.269851
C75   C     C_R   0.390262 0.168072 0.119302 -0.199889
C76   C     C_R   0.370574 0.848427 0.651247 -0.270144
C77   C     C_R   0.873172 0.715282 0.230571 0.210364
C78   C     C_R   0.862691 0.293885 0.747299 0.240911
C79   C     C_R   0.373181 0.215288 0.230552 0.210355
C80   C     C_R   0.362630 0.793939 0.747365 0.241546
C81   C     C_R   0.822719 0.759153 0.192729 -0.356890
C82   C     C_R   0.820164 0.243850 0.697631 -0.347597
C83   C     C_R   0.322731 0.259161 0.192698 -0.356895
C84   C     C_R   0.320097 0.743906 0.697717 -0.347677
C85   C     C_R   0.757884 0.695572 0.811380 -0.143184
C86   C     C_R   0.759164 0.302235 0.310587 -0.146033
C87   C     C_R   0.257888 0.195573 0.811357 -0.143332
C88   C     C_R   0.259163 0.802237 0.310580 -0.145978
H69   H     H_    0.179273 0.196960 0.554485 0.142162
H70   H     H_    0.185164 0.796983 0.046546 0.154926
H71   H     H_    0.679272 0.696953 0.554518 0.142293
H72   H     H_    0.685136 0.297008 0.046594 0.154905
H73   H     H_    0.811411 0.797323 0.274935 0.164759
H74   H     H_    0.814101 0.202188 0.772475 0.163419
H75   H     H_    0.311422 0.297333 0.274900 0.164767
H76   H     H_    0.314023 0.702253 0.772585 0.163462
H77   H     H_    0.235258 0.344182 0.085246 0.159547
H78   H     H_    0.235303 0.656094 0.586438 0.163283
H79   H     H_    0.735238 0.844169 0.085299 0.159529
H80   H     H_    0.735339 0.156060 0.586374 0.163250
H81   H     H_    0.763813 0.655096 0.732823 0.162425
H82   H     H_    0.765466 0.342354 0.233405 0.171578
H83   H     H_    0.263807 0.155090 0.732814 0.162485
H84   H     H_    0.265478 0.842345 0.233368 0.171654
C89   C     C_3   0.686931 0.474099 0.023280 -0.095244
C90   C     C_3   0.641511 0.434897 0.125119 -1.021291
H85   H     H_    0.616548 0.395822 0.057180 0.285552
H86   H     H_    0.670475 0.412076 0.221309 0.287676
H87   H     H_    0.603822 0.467355 0.174589 0.262577
H88   H     H_    0.715995 0.507969 0.097488 0.217591
H89   H     H_    0.657251 0.503302 0.938533 0.190235
C91   C     C_3   0.685887 0.540571 0.562602 -0.276544
C92   C     C_3   0.668115 0.468856 0.561420 -0.812331
H90   H     H_    0.640228 0.456549 0.453457 0.267914
H91   H     H_    0.712675 0.437947 0.570164 0.264446
H92   H     H_    0.636462 0.458588 0.660822 0.228073
H93   H     H_    0.717571 0.552379 0.664068 0.234599
H94   H     H_    0.640027 0.569287 0.574851 0.192929
C93   C     C_3   0.186945 0.974035 0.023275 -0.095040
C94   C     C_3   0.141527 0.934793 0.125024 -1.021567
H95   H     H_    0.116614 0.895702 0.057035 0.285594
H96   H     H_    0.170473 0.912001 0.221285 0.287714
H97   H     H_    0.103797 0.967219 0.174402 0.262426
H98   H     H_    0.215997 0.007886 0.097561 0.217723
H99   H     H_    0.157265 0.003259 0.938570 0.190328
C95   C     C_3   0.185907 0.040511 0.562695 -0.276685
C96   C     C_3   0.168062 0.968813 0.561356 -0.812124
H100  H     H_    0.140120 0.956584 0.453417 0.267854
H101  H     H_    0.212593 0.937857 0.569932 0.264410
H102  H     H_    0.136435 0.958530 0.660799 0.228140
H103  H     H_    0.217641 0.052242 0.664113 0.234789
H104  H     H_    0.140084 0.069265 0.575164 0.192738
C97   C     C_3   0.309074 0.557372 0.063745 -0.285023
C98   C     C_3   0.368562 0.598641 0.027537 -0.834519
H105  H     H_    0.375905 0.600170 0.899841 0.267455
H106  H     H_    0.361309 0.648644 0.072746 0.297743
H107  H     H_    0.413216 0.577296 0.083421 0.238618
H108  H     H_    0.301418 0.558067 0.191484 0.211550
H109  H     H_    0.319384 0.506587 0.027511 0.222366
C99   C     C_3   0.314917 0.446789 0.533960 -0.285212
C100  C     C_3   0.372330 0.402159 0.501977 -0.831800
H110  H     H_    0.378570 0.396237 0.374524 0.259097
H111  H     H_    0.418207 0.422975 0.553013 0.248661
H112  H     H_    0.363029 0.354212 0.555534 0.296983
H113  H     H_    0.308903 0.450894 0.662014 0.207581
H114  H     H_    0.326111 0.495687 0.487228 0.222610
C101  C     C_3   0.809082 0.057362 0.063390 -0.284719
C102  C     C_3   0.868572 0.098554 0.026807 -0.834913
H115  H     H_    0.875871 0.099956 0.899085 0.267148
H116  H     H_    0.861344 0.148603 0.071735 0.297817
H117  H     H_    0.913227 0.077233 0.082739 0.239024
H118  H     H_    0.801517 0.058134 0.191165 0.211414
H119  H     H_    0.819331 0.006550 0.027276 0.222423
C103  C     C_3   0.814768 0.946613 0.534563 -0.285456
C104  C     C_3   0.872198 0.902015 0.502526 -0.832206
H120  H     H_    0.878539 0.896243 0.375070 0.259201
H121  H     H_    0.918039 0.922771 0.553901 0.248610
H122  H     H_    0.862852 0.854005 0.555720 0.297120
H123  H     H_    0.808635 0.950544 0.662608 0.207768
H124  H     H_    0.826004 0.995574 0.488278 0.222227
H125  H     H_    0.105788 0.386919 0.619274 0.126960
H126  H     H_    0.086807 0.619495 0.140913 0.151586
H127  H     H_    0.605769 0.886901 0.619291 0.126913
H128  H     H_    0.586812 0.119494 0.140904 0.151582
C105  C     C_3   0.949048 0.628366 0.155790 -0.347706
C106  C     C_3   0.928251 0.572903 0.258888 -0.495085
H129  H     H_    0.898700 0.589620 0.355861 0.195396
H130  H     H_    0.898833 0.535444 0.198730 0.225751
H131  H     H_    0.971335 0.551769 0.312669 0.299700
H132  H     H_    0.976352 0.610876 0.059760 0.243750
H133  H     H_    0.988347 0.660481 0.200220 0.148547
C107  C     C_3   0.915882 0.401161 0.708436 -0.212006
C108  C     C_3   0.984751 0.384397 0.657046 -0.537074
H134  H     H_    0.989537 0.332615 0.624251 0.151447
H135  H     H_    0.005225 0.416799 0.570085 0.257808
H136  H     H_    0.018531 0.389945 0.751984 0.242203
H137  H     H_    0.899960 0.450891 0.684642 0.187032
H138  H     H_    0.911947 0.409288 0.832632 0.183288
C109  C     C_3   0.449050 0.128364 0.155788 -0.347686
C110  C     C_3   0.428247 0.072904 0.258888 -0.495018
H139  H     H_    0.398699 0.089623 0.355863 0.195389
H140  H     H_    0.398821 0.035449 0.198729 0.225762
H141  H     H_    0.471331 0.051765 0.312666 0.299690
H142  H     H_    0.476356 0.110872 0.059764 0.243744
H143  H     H_    0.488351 0.160477 0.200221 0.148541
C111  C     C_3   0.415877 0.901183 0.708443 -0.212043
C112  C     C_3   0.484737 0.884402 0.657029 -0.536943
H144  H     H_    0.489493 0.832626 0.624169 0.151619
H145  H     H_    0.505222 0.916810 0.570094 0.257780
H146  H     H_    0.518525 0.889930 0.751968 0.242224
H147  H     H_    0.399965 0.950918 0.684655 0.187043
H148  H     H_    0.411969 0.909313 0.832640 0.183364
C113  C     C_3   0.978502 0.085254 0.484974 -0.229538
C114  C     C_3   0.023334 0.054455 0.366071 -0.889695
H149  H     H_    0.040802 0.007060 0.411409 0.243888
H150  H     H_    0.996136 0.045203 0.254582 0.244074
H151  H     H_    0.066299 0.086011 0.344867 0.291424
H152  H     H_    0.005992 0.091961 0.597369 0.185338
H153  H     H_    0.937853 0.050597 0.505960 0.181870
C115  C     C_3   0.968291 0.920404 0.950423 -0.281969
C116  C     C_3   0.018539 0.949248 0.841847 -0.869617
H154  H     H_    0.060827 0.915975 0.829319 0.286602
H155  H     H_    0.996012 0.958312 0.725146 0.244958
H156  H     H_    0.036346 0.996390 0.889845 0.245656
H157  H     H_    0.923490 0.951322 0.943758 0.194128
H158  H     H_    0.987486 0.922576 0.072804 0.190572
C117  C     C_3   0.479166 0.585527 0.488129 -0.225257
C118  C     C_3   0.522796 0.553941 0.367820 -0.893227
H159  H     H_    0.540659 0.506800 0.413874 0.244628
H160  H     H_    0.494528 0.544035 0.258130 0.244400
H161  H     H_    0.565534 0.585316 0.343191 0.291382
H162  H     H_    0.507783 0.592983 0.598679 0.185129
H163  H     H_    0.438810 0.551018 0.512839 0.181114
C119  C     C_3   0.468304 0.420398 0.950272 -0.281731
C120  C     C_3   0.518566 0.449214 0.841696 -0.869668
H164  H     H_    0.560862 0.415943 0.829266 0.286602
H165  H     H_    0.496055 0.458232 0.724963 0.244923
H166  H     H_    0.536358 0.496373 0.889620 0.245641
H167  H     H_    0.423517 0.451337 0.943597 0.194013
H168  H     H_    0.487499 0.422564 0.072655 0.190522

loop_
_geom_bond_atom_site_label_1
_geom_bond_atom_site_label_2
_geom_bond_distance
_ccdc_geom_bond_type
C25   H49   1.107804 S    
C62   C70   1.450698 A    
C104  H120  1.111371 S    
P5    O37   1.780707 S    
C28   H52   1.109848 S    
C116  H154  1.106249 S    
P7    O39   1.780660 S    
P15   C48   1.864540 S    
O31   Ba3   2.841488 S    
C105  C106  1.515688 S    
P8    O40   1.761069 S    
C27   H51   1.107814 S    
P9    O33   1.548364 D    
C102  H115  1.111290 S    
C30   H58   1.109357 S    
C15   H27   1.097646 S    
C94   H97   1.108575 S    
C6    H10   1.111207 S    
C90   H86   1.107008 S    
C113  H152  1.109729 S    
C20   C95   1.525384 S    
P4    O8    1.587073 S    
C34   C68   1.425556 A    
C100  H111  1.105381 S    
C16   C20   1.538599 S    
C64   C72   1.450709 A    
C89   H89   1.110814 S    
C79   C83   1.398683 A    
C39   C59   1.442552 A    
O18   C22   1.391125 S    
P14   C45   1.871584 S    
C36   H80   1.080406 S    
C90   H87   1.108680 S    
C114  H149  1.106814 S    
C112  H144  1.106395 S    
C4    C119  1.537834 S    
C35   C59   1.412439 A    
C13   H29   1.101043 S    
C84   H76   1.083309 S    
O37   C14   1.395910 S    
C33   C57   1.412434 A    
Ba3   O48   3.007666 S    
O39   C16   1.395883 S    
C3    H63   1.112049 S    
C85   H81   1.078614 S    
Ba1   O46   3.007666 S    
C50   C54   1.414505 A    
C1    H61   1.112091 S    
C12   H68   1.109785 S    
C54   C88   1.423360 A    
H3    C31   1.111305 S    
Ba2   O46   2.853300 S    
O44   C8    1.404942 S    
P11   C80   1.881264 S    
C8    C12   1.514249 S    
C38   C58   1.449147 A    
C16   H32   1.098375 S    
P13   C46   1.864513 S    
C98   H106  1.109863 S    
C36   C60   1.417627 A    
C116  H156  1.109815 S    
C96   H101  1.107804 S    
C45   C49   1.401084 A    
C2    C115  1.537854 S    
P7    C72   1.911898 S    
C101  H118  1.112159 S    
O22   P13   1.755478 S    
C12   H20   1.109101 S    
C115  C116  1.524785 S    
C11   H23   1.108441 S    
O16   P15   1.546248 D    
C43   H127  1.064897 S    
C87   H83   1.078633 S    
P2    O18   1.741785 S    
O42   C6    1.404933 S    
C99   H114  1.111548 S    
O10   P13   1.760127 S    
O12   P15   1.760135 S    
C119  C120  1.524758 S    
C6    C10   1.514232 S    
P3    O7    1.588842 S    
C107  H137  1.092070 S    
P11   O35   1.548351 D    
H2    C30   1.109542 S    
C14   H30   1.098378 S    
O38   C13   1.394368 S    
P8    Ba4   3.462360 S    
C37   C41   1.396177 A    
P6    O45   1.592922 S    
C44   C48   1.393121 A    
C91   H94   1.110926 S    
C35   C65   1.419622 A    
O23   P16   1.755763 S    
C5    H13   1.112334 S    
C120  H164  1.106255 S    
P7    O27   1.566438 D    
C7    H15   1.112339 S    
C120  H166  1.109798 S    
C35   H79   1.080327 S    
P1    C37   1.898207 S    
C109  H142  1.067929 S    
C33   H77   1.080324 S    
C97   H108  1.112143 S    
C110  H141  1.071690 S    
C103  H124  1.111483 S    
C17   H37   1.103324 S    
C104  H121  1.105360 S    
C3    C31   1.531536 S    
C61   C85   1.415093 A    
O12   Ba4   2.843364 S    
C1    C29   1.531527 S    
C105  H133  1.096697 S    
C24   H48   1.111552 S    
P6    C69   1.918174 S    
C89   C90   1.523727 S    
C22   C26   1.523184 S    
C115  H158  1.111359 S    
H4    C32   1.109535 S    
O25   Ba1   2.873416 S    
P5    O46   1.591155 S    
C93   H99   1.110821 S    
C94   H96   1.107015 S    
C62   C66   1.427117 A    
O27   Ba3   2.873416 S    
C69   C73   1.412046 A    
P6    O38   1.761105 S    
P8    O28   1.570415 D    
C27   H55   1.112899 S    
P12   C79   1.895052 S    
P9    O29   1.768764 S    
C100  H110  1.111371 S    
P10   O34   1.548338 D    
C71   C75   1.412050 A    
O5    Ba2   2.861007 S    
C63   C67   1.429808 A    
O7    Ba4   2.861007 S    
C15   H31   1.101042 S    
C7    C11   1.520508 S    
C108  H135  1.094636 S    
C106  H130  1.095122 S    
C31   H59   1.111367 S    
C32   H60   1.109359 S    
C78   C82   1.402725 A    
C95   H103  1.095369 S    
C91   H93   1.095459 S    
O19   C23   1.396744 S    
C11   H67   1.110853 S    
P8    C71   1.918146 S    
C40   C60   1.449128 A    
C23   C27   1.526341 S    
C112  H145  1.094641 S    
C73   C105  1.474797 S    
C21   H41   1.107268 S    
O8    Ba3   2.853184 S    
C51   H71   1.078661 S    
C70   C74   1.415089 A    
C23   H43   1.107273 S    
C64   C68   1.427097 A    
P10   C77   1.895020 S    
C49   H69   1.078644 S    
C19   C93   1.528069 S    
P1    Ba1   3.459617 S    
P16   C47   1.871515 S    
C36   C66   1.425554 A    
C88   H84   1.071354 S    
P3    Ba3   3.459617 S    
P6    O26   1.570415 D    
P9    O41   1.754392 S    
C13   H25   1.097612 S    
C17   H33   1.108400 S    
C93   H98   1.103236 S    
C92   H92   1.104549 S    
C90   H85   1.106826 S    
O26   Ba2   2.870604 S    
C19   H35   1.108397 S    
Ba2   O45   3.010106 S    
C80   C84   1.402725 A    
C83   H75   1.082867 S    
C52   H72   1.080392 S    
C49   C53   1.415884 A    
C95   C96   1.520358 S    
C52   C56   1.414521 A    
C66   C82   1.412767 A    
C102  H116  1.109824 S    
C56   C86   1.423354 A    
C8    H16   1.111140 S    
O6    Ba1   2.853184 S    
C28   C103  1.531641 S    
Ba1   Ba2   4.716096 S    
C119  H167  1.111212 S    
C41   C45   1.386272 A    
C16   H28   1.100766 S    
O11   Ba3   2.854951 S    
C55   C59   1.428500 A    
C53   C57   1.428510 A    
C40   C44   1.400054 A    
C118  H159  1.106877 S    
O24   P15   1.755489 S    
C100  H112  1.109518 S    
C101  C102  1.518687 S    
C12   H24   1.110354 S    
P5    Ba1   3.465703 S    
C9    H17   1.109538 S    
P7    Ba3   3.465703 S    
C11   H19   1.109525 S    
C61   C69   1.446551 A    
O13   P14   1.547539 D    
P2    Ba2   3.462905 S    
C96   H100  1.101705 S    
C114  H150  1.107857 S    
C68   C84   1.412744 A    
P1    O1    1.571377 D    
C56   C60   1.425322 A    
C1    C113  1.535927 S    
O9    P14   1.766368 S    
P10   O42   1.747070 S    
P3    O3    1.571377 D    
P4    O20   1.741777 S    
C14   H26   1.100760 S    
Ba3   O47   2.861125 S    
P8    O47   1.592922 S    
Ba1   O45   2.861125 S    
C103  C104  1.515403 S    
C46   C50   1.402951 A    
C17   C89   1.528091 S    
P5    C70   1.912019 S    
C82   H74   1.083306 S    
P7    O48   1.591155 S    
C76   C111  1.496993 S    
C114  H151  1.108753 S    
C5    H9    1.109616 S    
C38   C42   1.400049 A    
C8    H12   1.111206 S    
C24   H44   1.109100 S    
C9    H21   1.108499 S    
C111  C112  1.518914 S    
C109  C110  1.515696 S    
C97   C98   1.518803 S    
C41   H125  1.064935 S    
C98   H107  1.106587 S    
O11   P16   1.766477 S    
C116  H155  1.106555 S    
C2    C30   1.537703 S    
O23   C31   1.410441 S    
C24   C28   1.523117 S    
O21   C29   1.410433 S    
C89   H88   1.103229 S    
P1    O5    1.588842 S    
C34   C58   1.417624 A    
P6    Ba2   3.462360 S    
C2    H62   1.112145 S    
C10   H18   1.109107 S    
C1    H5    1.108597 S    
C20   H36   1.104747 S    
C3    H7    1.108623 S    
O3    Ba3   2.866770 S    
C26   H54   1.112702 S    
C118  H161  1.108864 S    
P10   O30   1.773398 S    
P9    C78   1.881416 S    
C92   H90   1.101687 S    
C27   C101  1.533443 S    
P12   O44   1.747072 S    
C15   C19   1.534807 S    
P3    C39   1.898167 S    
C37   C57   1.442547 A    
C63   C87   1.415136 A    
C91   C92   1.520366 S    
C4    C32   1.537703 S    
C10   H66   1.109789 S    
C23   H47   1.111696 S    
C3    C117  1.536259 S    
C21   H45   1.111697 S    
O9    Ba1   2.854951 S    
Ba3   Ba4   4.716096 S    
C120  H165  1.106523 S    
C25   H53   1.112896 S    
C10   H22   1.110352 S    
C20   H40   1.109271 S    
H1    C29   1.111282 S    
C28   H56   1.112711 S    
C75   C109  1.474798 S    
C105  H132  1.067923 S    
O41   C5    1.405931 S    
C117  H163  1.111394 S    
O43   C7    1.405892 S    
C29   H57   1.111211 S    
C73   C77   1.409965 A    
C5    C9    1.520492 S    
Ba4   O47   3.010106 S    
P4    C40   1.886643 S    
C4    H64   1.112145 S    
C98   H105  1.111286 S    
C110  H139  1.094510 S    
C18   C91   1.525347 S    
C109  H143  1.096694 S    
C96   H102  1.104548 S    
C75   C79   1.409963 A    
C117  C118  1.523668 S    
P1    O17   1.743443 S    
C6    H14   1.111144 S    
C26   C99   1.531767 S    
C113  C114  1.523449 S    
P3    O19   1.743319 S    
P4    O4    1.567396 D    
C108  H134  1.106417 S    
C101  H119  1.111074 S    
C34   H78   1.080402 S    
C106  H131  1.071675 S    
C18   H38   1.109285 S    
C62   C86   1.412396 A    
C47   C51   1.401063 A    
C95   H104  1.110927 S    
O29   Ba1   2.841488 S    
C99   H113  1.112540 S    
O20   C24   1.391149 S    
C81   H73   1.082871 S    
P5    O25   1.566438 D    
C76   C80   1.407799 A    
O10   Ba2   2.843364 S    
C61   C65   1.429814 A    
O14   P13   1.546241 D    
C51   C55   1.415849 A    
C72   C76   1.415089 A    
C13   C17   1.534831 S    
C117  H162  1.109504 S    
O32   Ba4   2.853053 S    
P2    O2    1.567396 D    
P11   O43   1.754375 S    
P12   O36   1.548340 D    
C43   C47   1.386222 A    
C113  H153  1.111399 S    
C111  H148  1.083823 S    
C92   H91   1.107783 S    
C97   H109  1.111082 S    
C103  H123  1.112538 S    
C64   C88   1.412398 A    
C4    H8    1.109880 S    
C104  H122  1.109537 S    
C74   C107  1.496918 S    
C102  H117  1.106585 S    
C77   C81   1.398675 A    
C39   C43   1.396169 A    
C74   C78   1.407864 A    
C86   H82   1.071339 S    
C48   C52   1.402962 A    
O1    Ba1   2.866770 S    
O21   P14   1.755600 S    
C22   H42   1.109111 S    
C115  H157  1.111200 S    
C33   C67   1.419620 A    
C25   C97   1.533456 S    
C111  H147  1.092070 S    
C50   H70   1.080383 S    
C119  H168  1.111359 S    
C94   H95   1.106821 S    
C44   H128  1.078065 S    
C63   C71   1.446569 A    
O15   P16   1.547602 D    
C42   H126  1.078067 S    
C42   C46   1.393112 A    
C99   C100  1.515421 S    
C19   H39   1.103352 S    
C107  H138  1.083867 S    
O28   Ba4   2.870604 S    
C118  H160  1.107754 S    
O30   Ba2   2.853053 S    
C110  H140  1.095131 S    
O22   C30   1.410048 S    
C93   C94   1.523688 S    
P2    O6    1.587073 S    
C107  C108  1.518930 S    
O4    Ba4   2.869557 S    
P11   O31   1.768901 S    
C18   H34   1.104729 S    
C108  H136  1.056973 S    
P12   O32   1.773403 S    
C55   C85   1.420130 A    
C106  H129  1.094507 S    
C14   C18   1.538641 S    
C2    H6    1.109860 S    
O40   C15   1.394349 S    
C26   H50   1.109888 S    
C53   C87   1.420158 A    
Ba4   O48   2.853300 S    
C67   C83   1.412855 A    
C112  H146  1.057033 S    
C65   C81   1.412840 A    
P2    C38   1.886650 S    
C7    H11   1.109524 S    
C22   H46   1.111553 S    
O17   C21   1.396757 S    
C54   C58   1.425325 A    
O24   C32   1.410042 S    
C9    H65   1.110829 S    
P4    Ba4   3.462905 S    
C21   C25   1.526430 S    
O2    Ba2   2.869557 S    
