data_mof_unit_58252.cif
_audit_creation_date              2013-03-05T16:46:59-0500
_audit_creation_method            fapswitch 2.2
_symmetry_space_group_name_H-M    P1
_symmetry_Int_Tables_number       1
_space_group_crystal_system       triclinic
_cell_length_a                    14.982593
_cell_length_b                    8.914093
_cell_length_c                    8.116181
_cell_angle_alpha                 89.914569
_cell_angle_beta                  90.233079
_cell_angle_gamma                 90.003293
_cell_volume                      1083.95633969

loop_
_atom_site_label
_atom_site_type_symbol
_atom_site_description
_atom_site_fract_x
_atom_site_fract_y
_atom_site_fract_z
_atom_type_partial_charge
O1    O     O_R   0.500000 0.285350 0.636850 -0.621596
O2    O     O_R   0.500000 0.714650 0.363150 -0.620369
O3    O     O_R   0.500000 0.714650 0.636850 -0.603334
O4    O     O_R   0.500000 0.285350 0.363150 -0.610175
C1    C     C_R   0.499957 0.218071 0.500075 0.899267
C2    C     C_R   0.500077 0.781931 0.499923 0.938153
O5    O     O_R   0.367850 0.500000 0.636890 -0.607405
O6    O     O_R   0.632150 0.500000 0.363110 -0.612394
O7    O     O_R   0.632150 0.500000 0.636890 -0.587863
O8    O     O_R   0.367850 0.500000 0.363110 -0.605380
C3    C     C_R   0.326804 0.500489 0.499478 0.872184
C4    C     C_R   0.673346 0.499268 0.500243 0.961740
Zn1   Zn    Zn3+2 0.500000 0.500000 0.682780 1.031898
Zn2   Zn    Zn3+2 0.500000 0.500000 0.317220 1.027123
N1    N     N_1   0.500000 0.500000 0.073640 -0.016530
N2    N     N_1   0.500000 0.500000 0.926360 -0.016923
C5    C     C_R   0.813748 0.614105 0.575257 0.358099
C6    C     C_R   0.186519 0.382129 0.425414 0.346700
C7    C     C_R   0.813293 0.383299 0.412431 0.342152
C8    C     C_R   0.187269 0.633716 0.549428 0.339929
C9    C     C_R   0.768784 0.496589 0.499153 -0.258454
C10   C     C_R   0.231525 0.504032 0.495937 -0.255074
C11   C     C_R   0.906442 0.391183 0.396944 0.037902
C12   C     C_R   0.093558 0.638313 0.542463 0.034066
C13   C     C_R   0.906069 0.629192 0.552188 -0.019112
C14   C     C_R   0.094114 0.391339 0.401101 0.032911
C15   C     C_R   0.953222 0.512051 0.472427 -0.104163
C16   C     C_R   0.047061 0.514497 0.470921 -0.100784
C17   C     C_R   0.953890 0.281321 0.307773 0.121940
C18   C     C_R   0.044439 0.764863 0.598860 0.068162
C19   C     C_R   0.951445 0.760422 0.600840 0.084070
C20   C     C_R   0.046871 0.280165 0.310812 0.039000
C21   C     C_1   0.499950 0.065246 0.500104 -0.158393
C22   C     C_1   0.499991 0.934762 0.499887 -0.152058
N3    N     N_3   0.907939 0.169550 0.212113 -0.350824
H1    H     H_    0.927466 0.179619 0.089025 0.196910
H2    H     H_    0.926410 0.063271 0.255060 0.196057
N4    N     N_3   0.085729 0.901368 0.654245 -0.463946
H3    H     H_    0.125590 0.946017 0.560875 0.241321
H4    H     H_    0.122103 0.881342 0.762181 0.254683
N5    N     N_3   0.902941 0.893760 0.644250 -0.405260
H5    H     H_    0.921141 0.925411 0.763792 0.194700
H6    H     H_    0.920850 0.979954 0.563315 0.209678
N6    N     N_3   0.090623 0.167379 0.213836 -0.466174
H7    H     H_    0.119744 0.087051 0.290895 0.243588
H8    H     H_    0.137651 0.217390 0.136377 0.247459
O9    O     O_3   0.765317 0.711681 0.671946 -0.726158
H9    H     H_    0.798355 0.722657 0.777387 0.347048
O10   O     O_3   0.231778 0.252362 0.383245 -0.787967
H10   H     H_    0.285101 0.239425 0.454313 0.332332
O11   O     O_3   0.767295 0.261921 0.347625 -0.721244
H11   H     H_    0.711838 0.244161 0.410627 0.326294
O12   O     O_3   0.234613 0.753784 0.613267 -0.785257
H12   H     H_    0.293816 0.761305 0.560332 0.331469

loop_
_geom_bond_atom_site_label_1
_geom_bond_atom_site_label_2
_geom_bond_distance
_ccdc_geom_bond_type
O3    Zn1   1.948838 S    
C13   C19   1.409133 A    
N4    H4    1.044964 S    
C14   C20   1.420560 A    
C11   C15   1.423303 A    
C13   C15   1.419279 A    
C12   C16   1.427990 A    
N5    H5    1.045918 S    
C17   N3    1.437817 S    
C3    C10   1.428043 S    
C14   C16   1.424283 A    
O9    H9    0.991836 S    
C6    C14   1.400057 A    
O6    C4    1.270501 A    
O3    C2    1.262049 A    
C5    C13   1.402992 A    
C6    C10   1.400634 A    
C21   C22   1.163150 T    
C20   N6    1.437574 S    
C19   N5    1.438208 S    
O12   H12   0.989389 S    
O5    C3    1.271387 A    
N5    H6    1.045825 S    
O2    C2    1.262516 A    
C2    C22   1.362346 S    
O1    C1    1.262520 A    
N1    N2    1.195350 T    
C11   C17   1.412298 A    
N3    H2    1.045889 S    
C8    C10   1.403012 A    
C17   C20   1.393259 A    
O4    Zn2   1.948839 S    
C18   C19   1.394005 A    
O2    Zn2   1.949929 S    
O7    C4    1.271456 A    
C12   C18   1.424090 A    
O1    Zn1   1.949930 S    
O8    C3    1.268365 A    
O11   H11   0.990008 S    
C7    O11   1.385977 S    
O5    Zn1   2.013187 S    
N4    H3    1.045036 S    
N6    H7    1.044376 S    
C18   N4    1.436910 S    
O10   H10   0.990123 S    
O8    Zn2   2.016165 S    
Zn1   N2    1.976939 S    
C15   C16   1.406223 A    
C8    C12   1.405535 A    
C7    C11   1.403524 A    
O4    C1    1.262021 A    
O7    Zn1   2.016163 S    
O6    Zn2   2.013185 S    
C7    C9    1.402138 A    
Zn2   N1    1.976939 S    
C4    C9    1.430161 S    
C5    C9    1.389672 A    
C5    O9    1.380451 S    
C6    O10   1.384983 S    
N6    H8    1.045554 S    
C8    O12   1.384106 S    
N3    H1    1.045834 S    
C1    C21   1.362299 S    
