data_mof_unit_36257.cif
_audit_creation_date              2013-03-05T15:43:42-0500
_audit_creation_method            fapswitch 2.2
_symmetry_space_group_name_H-M    P1
_symmetry_Int_Tables_number       1
_space_group_crystal_system       triclinic
_cell_length_a                    14.001785
_cell_length_b                    13.952556
_cell_length_c                    27.362256
_cell_angle_alpha                 90.126211
_cell_angle_beta                  89.789265
_cell_angle_gamma                 120.395889
_cell_volume                      4610.737273

loop_
_atom_site_label
_atom_site_type_symbol
_atom_site_description
_atom_site_fract_x
_atom_site_fract_y
_atom_site_fract_z
_atom_type_partial_charge
O1    O     O_R   0.137150 0.468200 0.553200 -0.505894
O2    O     O_R   0.531800 0.668950 0.553200 -0.505941
O3    O     O_R   0.331050 0.862850 0.553200 -0.505735
O4    O     O_R   0.173970 0.688730 0.549930 -0.500255
O5    O     O_R   0.311270 0.485240 0.549930 -0.498030
O6    O     O_R   0.514760 0.826030 0.549930 -0.498680
C1    C     C_R   0.234163 0.787592 0.568806 0.540304
C2    C     C_R   0.212674 0.447504 0.569083 0.538866
C3    C     C_R   0.552887 0.765968 0.568907 0.540134
O7    O     O_R   0.140110 0.470540 0.446010 -0.502733
O8    O     O_R   0.529460 0.669570 0.446010 -0.512562
O9    O     O_R   0.330430 0.859890 0.446010 -0.511856
O10   O     O_R   0.176710 0.690910 0.450560 -0.495662
O11   O     O_R   0.309090 0.485800 0.450560 -0.500260
O12   O     O_R   0.514200 0.823290 0.450560 -0.499823
C4    C     C_R   0.232987 0.788553 0.431739 0.546638
C5    C     C_R   0.211480 0.444150 0.431826 0.546032
C6    C     C_R   0.555371 0.767232 0.431632 0.545641
Cr1   Cr    Cr6+3 0.164410 0.584450 0.499910 1.053053
Cr2   Cr    Cr6+3 0.415550 0.579960 0.499910 1.046029
Cr3   Cr    Cr6+3 0.420040 0.835590 0.499910 1.049932
O13   O     O_3   0.333333 0.666667 0.499990 -0.277521
C7    C     C_3   0.573459 0.757974 0.741220 -0.219977
C8    C     C_3   0.254262 0.837168 0.739893 -0.220542
C9    C     C_3   0.193180 0.452236 0.740314 -0.219325
C10   C     C_3   0.706614 0.960373 0.724614 -0.160479
C11   C     C_3   0.049019 0.744002 0.725896 -0.161579
C12   C     C_3   0.270841 0.325953 0.728495 -0.161217
C13   C     C_3   0.741523 0.979096 0.779449 0.196606
C14   C     C_3   0.030637 0.760994 0.780604 0.197542
C15   C     C_3   0.263609 0.304099 0.784640 0.200213
H1    H     H_    0.550799 0.795037 0.816878 0.161658
H2    H     H_    0.226366 0.780712 0.816085 0.161811
H3    H     H_    0.262869 0.496177 0.814074 0.157656
H4    H     H_    0.501456 0.770063 0.735868 0.115426
H5    H     H_    0.252359 0.756960 0.735047 0.114848
H6    H     H_    0.274836 0.526358 0.731309 0.114890
H7    H     H_    0.776943 0.021388 0.701617 0.073675
H8    H     H_    0.982038 0.742377 0.703443 0.074519
H9    H     H_    0.262529 0.252391 0.708627 0.073228
H10   H     H_    0.636801 0.975576 0.718488 0.151852
H11   H     H_    0.043735 0.662269 0.720673 0.149913
H12   H     H_    0.353434 0.397808 0.718698 0.149722
H13   H     H_    0.831187 0.043837 0.780462 0.081175
H14   H     H_    0.960582 0.776809 0.782059 0.082125
H15   H     H_    0.242906 0.216365 0.789897 0.080224
C16   C     C_1   0.796357 0.896121 0.894432 -0.029630
C17   C     C_1   0.104667 0.903459 0.894224 -0.030937
C18   C     C_1   0.138293 0.264524 0.902281 -0.033054
C19   C     C_3   0.671884 0.840491 0.708526 0.033185
C20   C     C_3   0.163219 0.838387 0.708035 0.033060
C21   C     C_3   0.178720 0.349197 0.711879 0.034596
C22   C     C_3   0.606951 0.775313 0.795920 -0.191443
C23   C     C_3   0.236926 0.853183 0.794683 -0.192882
C24   C     C_3   0.185545 0.431561 0.796216 -0.196116
C25   C     C_3   0.728871 0.870265 0.801457 0.088012
C26   C     C_3   0.134221 0.866574 0.800979 0.088305
C27   C     C_3   0.166633 0.314236 0.807014 0.089959
C28   C     C_3   0.802363 0.837655 0.771695 -0.271266
C29   C     C_3   0.154436 0.968779 0.770367 -0.269671
C30   C     C_3   0.057734 0.227890 0.781437 -0.269602
C31   C     C_3   0.770405 0.821900 0.717032 -0.235024
C32   C     C_3   0.168303 0.950852 0.715528 -0.234385
C33   C     C_3   0.065046 0.247808 0.725518 -0.236842
C34   C     C_1   0.763900 0.885138 0.852940 -0.059377
C35   C     C_1   0.117751 0.884949 0.852504 -0.056171
C36   C     C_1   0.155491 0.291527 0.859916 -0.055303
C37   C     C_1   0.638956 0.821746 0.656865 -0.072905
C38   C     C_1   0.180714 0.822410 0.656438 -0.072908
C39   C     C_1   0.185986 0.371381 0.659007 -0.072569
C40   C     C_1   0.605173 0.800136 0.615585 -0.010036
C41   C     C_1   0.200822 0.807722 0.615263 -0.010141
C42   C     C_1   0.195262 0.399212 0.616785 -0.009916
H16   H     H_    0.748199 0.736622 0.705332 0.124990
H17   H     H_    0.248901 0.020191 0.702047 0.125202
H18   H     H_    0.997166 0.262053 0.713830 0.122858
H19   H     H_    0.842907 0.881614 0.694710 0.115646
H20   H     H_    0.101643 0.952428 0.694129 0.115841
H21   H     H_    0.053253 0.172341 0.706142 0.113998
H22   H     H_    0.791640 0.758559 0.786404 0.113646
H23   H     H_    0.230716 0.043867 0.783513 0.111850
H24   H     H_    0.987332 0.234166 0.796567 0.117363
H25   H     H_    0.546478 0.670885 0.730514 0.125161
H26   H     H_    0.337547 0.904571 0.727980 0.123245
H27   H     H_    0.128180 0.471268 0.729117 0.122703
H28   H     H_    0.596554 0.696695 0.811217 0.118262
H29   H     H_    0.312031 0.928021 0.808980 0.111354
H30   H     H_    0.116109 0.439453 0.811591 0.115662
H31   H     H_    0.890850 0.902988 0.775527 0.088569
H32   H     H_    0.084822 0.984696 0.775104 0.089303
H33   H     H_    0.040459 0.142135 0.788860 0.089508
O14   O     O_R   0.176750 0.985260 0.074180 -0.513018
O15   O     O_R   0.014740 0.191490 0.074180 -0.516494
O16   O     O_R   0.808510 0.823250 0.074180 -0.514253
O17   O     O_R   0.146100 0.172630 0.068980 -0.490323
O18   O     O_R   0.827370 0.973470 0.068980 -0.484745
O19   O     O_R   0.026530 0.853900 0.068980 -0.486050
C43   C     C_R   0.106286 0.221871 0.088622 0.555196
C44   C     C_R   0.777079 0.883767 0.088132 0.568262
C45   C     C_R   0.115659 0.893060 0.088202 0.569441
Cr4   Cr    Cr6+3 0.155170 0.075460 0.019960 1.010228
Cr5   Cr    Cr6+3 0.924540 0.079710 0.019960 1.014876
Cr6   Cr    Cr6+3 0.920290 0.844830 0.019960 1.016691
C46   C     C_R   0.107117 0.219902 0.950627 0.536110
C47   C     C_R   0.838126 0.908789 0.943188 0.530160
C48   C     C_R   0.091445 0.930408 0.943319 0.533637
O20   O     O_3   0.000000 1.000000 0.020040 -0.253804
O21   O     O_R   0.148270 0.170520 0.969620 -0.521355
O22   O     O_R   0.829480 0.977750 0.969620 -0.485949
O23   O     O_R   0.022250 0.851730 0.969620 -0.503408
C49   C     C_R   0.634902 0.903252 0.363050 -0.101257
C50   C     C_R   0.098248 0.731410 0.363212 -0.106858
C51   C     C_R   0.267127 0.362540 0.363877 -0.101620
C52   C     C_R   0.666611 0.923237 0.313621 0.000423
C53   C     C_R   0.081496 0.738720 0.313028 -0.002680
C54   C     C_R   0.253880 0.327853 0.314850 0.000170
C55   C     C_R   0.701526 0.941955 0.211706 -0.026463
C56   C     C_R   0.059616 0.757519 0.211555 -0.027301
C57   C     C_R   0.237050 0.292832 0.212956 -0.026666
C58   C     C_R   0.699958 0.027465 0.237918 -0.120988
C59   C     C_R   0.976171 0.667710 0.237588 -0.116863
C60   C     C_R   0.325814 0.297863 0.238631 -0.118864
C61   C     C_R   0.682658 0.019513 0.288731 0.199530
C62   C     C_R   0.987289 0.655252 0.287827 0.205763
C63   C     C_R   0.335235 0.314841 0.289461 0.201999
C64   C     C_R   0.722350 0.951514 0.161338 -0.130763
C65   C     C_R   0.048672 0.769639 0.161416 -0.131529
C66   C     C_R   0.227058 0.274867 0.162350 -0.130638
H34   H     H_    0.741783 0.027508 0.142412 0.115640
H35   H     H_    0.972804 0.712117 0.142646 0.115837
H36   H     H_    0.286213 0.260649 0.142743 0.115318
H37   H     H_    0.614668 0.957940 0.382743 0.188697
H38   H     H_    0.039313 0.661151 0.384595 0.192354
H39   H     H_    0.343886 0.386920 0.382708 0.186684
H40   H     H_    0.713433 0.101331 0.218852 0.138196
H41   H     H_    0.903635 0.604916 0.218431 0.142419
H42   H     H_    0.387578 0.287583 0.219127 0.141257
C67   C     C_R   0.725560 0.865519 0.136130 -0.000648
C68   C     C_R   0.133755 0.860171 0.136185 -0.000530
C69   C     C_R   0.136668 0.268997 0.137589 0.000904
C70   C     C_R   0.642294 0.733075 0.361154 -0.118818
C71   C     C_R   0.270062 0.908834 0.360558 -0.109320
C72   C     C_R   0.085986 0.346241 0.363534 -0.100859
C73   C     C_R   0.663441 0.745487 0.311561 0.003335
C74   C     C_R   0.257140 0.917284 0.311041 0.008434
C75   C     C_R   0.074828 0.320595 0.314268 0.011082
C76   C     C_R   0.673659 0.839474 0.287318 0.024916
C77   C     C_R   0.163852 0.831614 0.286828 0.023782
C78   C     C_R   0.160407 0.315061 0.289318 0.020992
C79   C     C_R   0.666514 0.660771 0.285471 -0.096780
C80   C     C_R   0.340261 0.007293 0.285001 -0.089270
C81   C     C_R   0.983004 0.309145 0.288938 -0.074242
C82   C     C_R   0.676479 0.666907 0.235028 -0.117097
C83   C     C_R   0.333091 0.011624 0.234660 -0.121779
C84   C     C_R   0.978722 0.299390 0.238489 -0.123782
C85   C     C_R   0.686480 0.759363 0.210486 0.013622
C86   C     C_R   0.240970 0.927803 0.210212 0.014343
C87   C     C_R   0.064361 0.296882 0.213180 0.013870
C88   C     C_R   0.687279 0.847158 0.236528 0.053191
C89   C     C_R   0.154709 0.838662 0.236209 0.053169
C90   C     C_R   0.153915 0.301145 0.238522 0.052457
C91   C     C_R   0.700506 0.767189 0.160355 -0.126179
C92   C     C_R   0.231964 0.934723 0.160249 -0.124914
C93   C     C_R   0.059371 0.286146 0.162905 -0.123497
C94   C     C_R   0.618298 0.806031 0.386053 -0.017144
C95   C     C_R   0.195743 0.812499 0.385913 -0.020552
C96   C     C_R   0.185926 0.377498 0.387207 -0.021643
H43   H     H_    0.701898 0.700146 0.140794 0.123933
H44   H     H_    0.298263 0.004478 0.140751 0.125039
H45   H     H_    0.989349 0.281815 0.143939 0.125042
H46   H     H_    0.677246 0.599870 0.215268 0.135234
H47   H     H_    0.398811 0.081197 0.214931 0.130520
H48   H     H_    0.908459 0.293699 0.219282 0.126829
H49   H     H_    0.657369 0.588050 0.303982 0.200849
H50   H     H_    0.412174 0.072841 0.303440 0.203915
H51   H     H_    0.916612 0.312138 0.307897 0.225442
H52   H     H_    0.632239 0.659112 0.378958 0.158653
H53   H     H_    0.344170 0.973339 0.378216 0.168294
H54   H     H_    0.021376 0.354040 0.381821 0.183829
O24   O     O_R   0.179100 0.982980 0.967000 -0.497220
O25   O     O_R   0.017020 0.196120 0.967000 -0.519081
O26   O     O_R   0.803880 0.820900 0.967000 -0.507850
N1    N     N_R   0.684127 0.110593 0.314196 0.059919
O27   O     O_R   0.648386 0.169507 0.292663 -0.306719
O28   O     O_R   0.737743 0.146511 0.355150 -0.343834
N2    N     N_R   0.903609 0.556540 0.311887 0.073142
O29   O     O_R   0.800380 0.513440 0.299304 -0.303372
O30   O     O_R   0.931703 0.497401 0.338312 -0.356370
N3    N     N_R   0.425860 0.315778 0.314507 0.062367
O31   O     O_R   0.520814 0.353356 0.292548 -0.304783
O32   O     O_R   0.408516 0.261745 0.355363 -0.339669
O33   O     O_3   0.672755 0.009676 0.805486 -0.569399
C97   C     C_3   0.734756 0.113490 0.829251 -0.011281
H55   H     H_    0.811879 0.124784 0.846382 0.119513
H56   H     H_    0.683492 0.116308 0.859650 0.159231
C98   C     C_3   0.760226 0.208732 0.794321 -0.409668
H57   H     H_    0.681885 0.200014 0.780282 0.155441
H58   H     H_    0.807048 0.289199 0.813914 0.102681
H59   H     H_    0.810716 0.208780 0.762958 0.132171
O34   O     O_3   0.011003 0.665758 0.807749 -0.570901
C99   C     C_3   0.905327 0.612130 0.830266 -0.013610
H60   H     H_    0.885070 0.671821 0.847867 0.120538
H61   H     H_    0.906653 0.558990 0.860091 0.157717
C100  C     C_3   0.815395 0.537137 0.794073 -0.411415
H62   H     H_    0.836331 0.477514 0.777286 0.157030
H63   H     H_    0.734856 0.489886 0.813466 0.102428
H64   H     H_    0.807000 0.587232 0.764765 0.128774
O35   O     O_3   0.365318 0.383058 0.806799 -0.572854
C101  C     C_3   0.420955 0.332234 0.827795 -0.017872
H65   H     H_    0.364491 0.257223 0.849708 0.122182
H66   H     H_    0.483431 0.392499 0.853716 0.154768
C102  C     C_3   0.482064 0.304718 0.788938 -0.409432
H67   H     H_    0.537405 0.380194 0.767302 0.157260
H68   H     H_    0.532870 0.274367 0.806829 0.102189
H69   H     H_    0.422384 0.238914 0.763997 0.128628

loop_
_geom_bond_atom_site_label_1
_geom_bond_atom_site_label_2
_geom_bond_distance
_ccdc_geom_bond_type
Cr4   O20   1.874595 S    
C72   C75   1.382908 A    
C14   O34   1.423420 S    
O18   C44   1.202190 A    
O8    C6    1.282265 A    
O18   Cr5   1.949854 S    
N1    O28   1.301322 A    
C55   C88   1.409426 A    
Cr6   O26   2.081499 S    
C99   H60   1.114569 S    
C31   H19   1.113341 S    
C93   H45   1.085285 S    
C71   C74   1.380757 A    
C26   C35   1.470502 S    
C76   C88   1.399017 A    
C57   C90   1.409982 A    
C18   C46   1.432626 S    
O17   C43   1.206408 A    
O5    Cr2   1.947383 S    
C8    H5    1.113503 S    
C7    H25   1.113439 S    
Cr6   O23   1.947227 S    
C70   H52   1.084803 S    
C15   C27   1.557689 S    
C52   C76   1.416358 A    
O3    C1    1.296721 A    
C30   H24   1.111290 S    
C10   C19   1.550242 S    
C77   C89   1.399661 A    
C23   H29   1.113224 S    
C22   C25   1.550708 S    
C12   H9    1.113401 S    
O7    C5    1.285958 A    
C8    C23   1.551499 S    
C25   C34   1.472686 S    
O1    C2    1.305159 A    
C14   C26   1.557141 S    
C101  C102  1.527695 S    
C28   H31   1.111147 S    
C80   C83   1.385129 A    
C24   H30   1.113320 S    
N3    O32   1.301344 A    
C59   C62   1.405044 A    
C61   N1    1.438971 S    
C14   H14   1.109573 S    
C87   C90   1.409759 A    
C9    H6    1.113539 S    
O4    Cr1   1.950277 S    
C56   C89   1.409787 A    
C17   C48   1.430611 S    
O9    C4    1.277754 A    
C4    C95   1.462474 S    
O35   C101  1.415584 S    
C97   H56   1.110256 S    
C15   H15   1.115600 S    
C73   C79   1.398622 A    
C81   C84   1.385340 A    
C44   C67   1.455566 S    
C22   H28   1.113370 S    
C49   C94   1.404926 A    
C72   H54   1.084737 S    
C47   O26   1.250753 A    
C55   C64   1.400249 A    
C50   H38   1.079186 S    
C58   C61   1.405386 A    
C87   C93   1.381637 A    
C51   C54   1.405832 A    
C57   C66   1.401500 A    
C84   H48   1.083961 S    
C27   C30   1.552870 S    
C46   O25   1.214564 A    
C85   C91   1.381685 A    
H3    C24   1.112633 S    
Cr3   O13   2.033070 S    
C11   C14   1.555828 S    
C99   H61   1.110293 S    
O11   C5    1.291700 A    
C65   C68   1.402280 A    
O6    C3    1.309040 A    
C73   C76   1.411884 A    
C48   O24   1.247786 A    
C54   C78   1.415148 A    
C6    C94   1.461826 S    
C11   C20   1.547928 S    
C7    C22   1.551579 S    
C85   C88   1.410943 A    
O12   C6    1.290196 A    
O8    Cr2   2.062774 S    
O1    Cr1   2.069424 S    
C8    C20   1.554137 S    
C80   H50   1.083818 S    
O10   Cr1   1.951328 S    
O2    Cr2   2.069195 S    
O11   Cr2   1.948491 S    
Cr1   O13   2.040740 S    
C20   C32   1.547602 S    
C83   C86   1.398346 A    
C98   H58   1.110311 S    
C5    C96   1.464554 S    
C55   C58   1.400332 A    
C11   H8    1.113642 S    
C1    C41   1.428098 S    
O34   C99   1.415557 S    
C26   C29   1.552513 S    
C64   H34   1.084391 S    
O4    C1    1.305143 A    
O6    Cr3   1.960390 S    
O9    Cr3   2.076207 S    
C79   C82   1.385205 A    
C43   C69   1.457978 S    
C56   C59   1.399626 A    
C28   H22   1.111869 S    
C38   C41   1.202348 T    
N1    O27   1.301472 A    
C45   C68   1.456470 S    
C71   C95   1.397930 A    
C75   C78   1.412538 A    
C29   H23   1.112011 S    
C49   H37   1.081042 S    
C21   C39   1.472439 S    
C100  H64   1.109838 S    
O7    Cr1   2.064706 S    
C97   C98   1.526447 S    
C50   C95   1.403432 A    
C82   H46   1.084071 S    
C39   C42   1.205064 T    
C9    H27   1.113412 S    
C101  H65   1.114398 S    
C33   H18   1.113013 S    
C13   O33   1.423409 S    
C83   H47   1.084071 S    
Cr5   O20   1.882124 S    
C67   C91   1.399988 A    
O19   Cr6   1.962480 S    
C102  H67   1.110629 S    
C82   C85   1.398197 A    
C72   C96   1.398500 A    
C74   C80   1.399347 A    
C53   C62   1.421377 A    
O14   Cr4   2.067009 S    
C75   C81   1.398974 A    
C52   C61   1.419947 A    
C79   H49   1.082942 S    
C100  H63   1.110263 S    
O16   Cr6   2.061378 S    
C86   C89   1.410371 A    
C7    H4    1.113382 S    
C51   H39   1.081507 S    
C29   C32   1.548289 S    
C13   H13   1.115988 S    
C21   C33   1.547009 S    
C19   C31   1.545682 S    
C33   H21   1.113242 S    
C91   H43   1.085374 S    
C70   C73   1.380323 A    
C78   C90   1.399873 A    
C56   C65   1.401080 A    
Cr2   O13   2.048918 S    
N2    O30   1.300600 A    
C66   H36   1.084325 S    
H1    C22   1.112503 S    
C46   O21   1.217524 A    
C74   C77   1.413072 A    
O14   C45   1.191645 A    
C48   O23   1.258472 A    
C57   C60   1.400395 A    
H2    C23   1.112622 S    
C47   O22   1.256056 A    
C64   C67   1.402885 A    
C28   C31   1.545859 S    
O19   C45   1.202559 A    
C18   C36   1.204891 T    
C98   H59   1.109638 S    
C102  H69   1.109968 S    
C12   C15   1.559807 S    
C10   H7    1.113488 S    
C86   C92   1.381442 A    
C3    C40   1.430203 S    
C60   H42   1.084004 S    
C102  H68   1.110569 S    
C98   H57   1.110616 S    
C7    C19   1.553978 S    
O15   Cr5   2.058840 S    
C51   C96   1.406392 A    
O5    C2    1.310747 A    
C63   N3    1.438592 S    
C13   C25   1.559099 S    
C29   H32   1.110956 S    
C69   C93   1.401526 A    
C12   H12   1.113549 S    
C70   C94   1.398063 A    
C25   C28   1.547591 S    
C54   C63   1.419866 A    
C58   H40   1.083889 S    
C17   C35   1.203507 T    
O33   C97   1.414941 S    
C60   C63   1.405754 A    
C68   C92   1.400935 A    
C8    H26   1.113256 S    
C9    C21   1.553987 S    
C15   O35   1.423083 S    
Cr4   O24   2.074327 S    
Cr5   O25   2.069538 S    
C23   C26   1.550007 S    
C30   C33   1.549433 S    
C62   N2    1.438204 S    
C12   C21   1.550451 S    
C11   H11   1.113700 S    
C71   H53   1.084844 S    
C32   H17   1.113218 S    
O16   C44   1.194050 A    
Cr4   O21   1.950503 S    
C37   C40   1.203584 T    
C53   C77   1.417428 A    
C2    C42   1.432611 S    
C99   C100  1.527263 S    
C9    C24   1.550429 S    
C49   C52   1.405713 A    
C59   H41   1.084112 S    
C66   C69   1.403103 A    
N3    O31   1.301399 A    
C92   H44   1.085353 S    
C65   H35   1.084338 S    
O3    Cr3   2.070544 S    
C81   H51   1.081975 S    
C30   H33   1.113206 S    
C27   C36   1.473211 S    
O12   Cr3   1.950868 S    
C100  H62   1.110434 S    
C10   C13   1.559766 S    
C24   C27   1.549212 S    
C97   H55   1.114387 S    
O10   C4    1.286832 A    
C101  H66   1.110359 S    
C31   H16   1.113357 S    
Cr5   O22   1.944584 S    
Cr6   O20   1.867552 S    
C20   C38   1.467728 S    
C16   C47   1.432880 S    
N2    O29   1.300955 A    
O2    C3    1.303139 A    
C19   C37   1.469786 S    
O15   C43   1.196668 A    
C16   C34   1.204792 T    
C50   C53   1.406476 A    
O17   Cr4   1.954043 S    
C10   H10   1.113470 S    
C84   C87   1.398163 A    
C32   H20   1.113250 S    
