data_mof_unit_63645.cif
_audit_creation_date              2012-12-10T19:36:59-0500
_audit_creation_method            fapswitch 2.2
_symmetry_space_group_name_H-M    P1
_symmetry_Int_Tables_number       1
_space_group_crystal_system       triclinic
_cell_length_a                    30.575651
_cell_length_b                    30.593814
_cell_length_c                    24.781166
_cell_angle_alpha                 89.973171
_cell_angle_beta                  128.573173
_cell_angle_gamma                 90.006309
_cell_volume                      18123.1473536

loop_
_atom_site_label
_atom_site_type_symbol
_atom_type_description
_atom_site_fract_x
_atom_site_fract_y
_atom_site_fract_z
_atom_type_partial_charge
C1    C     C_R   0.810738 0.810056 0.501481 0.865196
C2    C     C_R   0.534934 0.750902 0.069764 0.284719
C3    C     C_R   0.907763 0.093222 0.499557 -0.093941
C4    C     C_R   0.648466 0.587224 0.533505 0.053699
C5    C     C_R   0.391369 0.590229 0.540005 0.069356
C6    C     C_R   0.148755 0.087660 0.534833 0.055483
C7    C     C_R   0.851189 0.087745 0.464951 0.055613
C8    C     C_3   0.695937 0.555520 0.572960 -0.120784
C9    C     C_3   0.393530 0.562252 0.591002 -0.104370
C10   C     C_3   0.196647 0.056435 0.575955 -0.118058
C11   C     C_3   0.803256 0.056587 0.423684 -0.118236
C12   C     C_3   0.731180 0.591042 0.571705 -0.447095
C13   C     C_R   0.965268 0.251175 0.930233 0.284191
C14   C     C_3   0.356854 0.597549 0.589919 -0.475195
C15   C     C_3   0.231865 0.091938 0.574622 -0.449928
C16   C     C_3   0.768049 0.092080 0.425043 -0.449356
C17   C     C_R   0.439858 0.560083 0.499712 0.879615
C18   C     C_R   0.560318 0.559762 0.500204 0.880049
C19   C     C_R   0.939674 0.059785 0.499770 0.889392
C20   C     C_R   0.060315 0.059781 0.500208 0.889486
C21   C     C_R   0.940234 0.939331 0.499530 0.862134
C22   C     C_R   0.059774 0.939328 0.500493 0.862022
C23   C     C_R   0.439710 0.439832 0.499802 0.861082
C24   C     C_R   0.035448 0.251272 0.069824 0.284270
C25   C     C_R   0.559480 0.439165 0.500467 0.863221
C26   C     C_R   0.817030 0.749566 0.634639 0.899621
C27   C     C_R   0.182988 0.749577 0.365382 0.899234
C28   C     C_R   0.317018 0.249554 0.634638 0.899176
C29   C     C_R   0.682969 0.249585 0.365370 0.900953
C30   C     C_R   0.610249 0.786580 0.253520 -0.189681
C31   C     C_R   0.388940 0.786846 0.746362 -0.187789
C32   C     C_R   0.111129 0.287046 0.253622 -0.194716
C33   C     C_R   0.889560 0.286718 0.746310 -0.188403
C34   C     C_R   0.574756 0.786949 0.181687 -0.157592
C35   C     C_R   0.853274 0.841308 0.453774 -0.127270
C36   C     C_R   0.424406 0.787210 0.818186 -0.157227
C37   C     C_R   0.075790 0.287510 0.181790 -0.156960
C38   C     C_R   0.925096 0.287164 0.818134 -0.157948
C39   C     C_R   0.572815 0.750850 0.145352 0.085551
C40   C     C_R   0.427172 0.750761 0.854586 0.085595
C41   C     C_R   0.073368 0.251223 0.145409 0.085745
C42   C     C_R   0.927293 0.251041 0.854647 0.085678
C43   C     C_R   0.607241 0.714591 0.181759 -0.157076
C44   C     C_R   0.393621 0.714129 0.818244 -0.156937
C45   C     C_R   0.107241 0.214716 0.181764 -0.158080
C46   C     C_R   0.146678 0.841247 0.546201 -0.127223
C47   C     C_R   0.893069 0.214674 0.818421 -0.158193
C48   C     C_R   0.643414 0.714543 0.253557 -0.191480
C49   C     C_R   0.357452 0.714077 0.746439 -0.195852
C50   C     C_R   0.143269 0.214570 0.253554 -0.186325
C51   C     C_R   0.856837 0.214550 0.746613 -0.192822
C52   C     C_3   0.950656 0.790347 0.554664 -0.264487
C53   C     C_3   0.049275 0.790426 0.445129 -0.264490
C54   C     C_3   0.432040 0.281792 0.498297 -0.276308
C55   C     C_3   0.541503 0.296637 0.417476 -0.319475
C56   C     C_3   0.773399 0.813734 0.722212 -0.280708
C57   C     C_R   0.339851 0.348819 0.442635 -0.133866
C58   C     C_3   0.228755 0.811133 0.277882 -0.289214
C59   C     C_3   0.273272 0.313530 0.722270 -0.279041
C60   C     C_3   0.727341 0.312693 0.277655 -0.281387
C61   C     C_3   0.913183 0.878272 0.348228 -0.223674
C62   C     C_3   0.086696 0.878131 0.651614 -0.224033
C63   C     C_3   0.380844 0.352613 0.308186 -0.270790
C64   C     C_3   0.558863 0.365303 0.623120 -0.249459
C65   C     C_R   0.638519 0.337627 0.538063 -0.111630
C66   C     C_R   0.842678 0.843472 0.500591 -0.071479
C67   C     C_R   0.157343 0.843479 0.499449 -0.071490
C68   C     C_R   0.342112 0.343295 0.499970 -0.047869
C69   C     C_R   0.189266 0.810059 0.498532 0.864594
C70   C     C_R   0.657489 0.343559 0.500157 -0.080473
C71   C     C_R   0.858275 0.880919 0.541436 -0.203524
C72   C     C_R   0.141824 0.880989 0.458695 -0.203387
C73   C     C_R   0.370280 0.373869 0.553680 -0.205307
C74   C     C_R   0.649434 0.384084 0.468590 -0.200691
C75   C     C_R   0.890722 0.912705 0.541149 -0.201344
C76   C     C_R   0.109385 0.912774 0.458990 -0.201307
C77   C     C_R   0.402458 0.406085 0.553802 -0.215038
C78   C     C_R   0.616681 0.415735 0.468472 -0.201662
C79   C     C_R   0.904774 0.907926 0.497280 -0.115723
C80   C     C_R   0.310035 0.309982 0.500215 0.885418
C81   C     C_R   0.095259 0.907930 0.502781 -0.115542
C82   C     C_R   0.404532 0.408480 0.498837 -0.143555
C83   C     C_R   0.594541 0.407480 0.502818 -0.103058
C84   C     C_R   0.880808 0.874308 0.448389 -0.013491
C85   C     C_R   0.119151 0.874239 0.551602 -0.013817
C86   C     C_R   0.370434 0.381306 0.441744 0.043402
C87   C     C_R   0.610533 0.370123 0.543635 -0.016508
C88   C     C_3   0.905475 0.843557 0.425945 0.281434
C89   C     C_3   0.094399 0.843451 0.573916 0.281273
C90   C     C_3   0.384010 0.354491 0.403268 0.283080
C91   C     C_R   0.689290 0.310110 0.498688 0.868548
C92   C     C_3   0.576716 0.338235 0.550793 0.269449
C93   C     C_3   0.876307 0.806436 0.434826 0.563840
C94   C     C_3   0.123563 0.806346 0.565023 0.563909
C95   C     C_3   0.348832 0.317873 0.403091 0.509611
C96   C     C_3   0.606371 0.301848 0.541494 0.570393
C97   C     C_R   0.682645 0.750141 0.365343 0.852086
C98   C     C_R   0.317367 0.750103 0.634645 0.852027
C99   C     C_R   0.182699 0.250185 0.365353 0.846319
C100  C     C_R   0.817359 0.250130 0.634659 0.855748
C101  C     C_R   0.834420 0.759550 0.746762 0.526250
C102  C     C_R   0.644916 0.750431 0.289857 -0.035664
C103  C     C_R   0.166037 0.758526 0.253426 0.526932
C104  C     C_R   0.334322 0.259394 0.746737 0.525377
C105  C     C_R   0.665708 0.259114 0.253268 0.525801
C106  C     C_R   0.870627 0.756215 0.818806 -0.263027
C107  C     C_R   0.129801 0.755217 0.181370 -0.261607
C108  C     C_R   0.370495 0.255986 0.818777 -0.263178
C109  C     C_R   0.629479 0.255724 0.181230 -0.263078
C110  C     C_R   0.926720 0.744193 0.854609 0.016767
C111  C     C_R   0.073378 0.744250 0.145496 0.016584
C112  C     C_R   0.426597 0.243989 0.854591 0.016978
C113  C     C_R   0.355106 0.750346 0.710102 -0.034804
C114  C     C_R   0.573258 0.244131 0.145456 0.017749
C115  C     C_R   0.946242 0.734210 0.817754 -0.156672
C116  C     C_R   0.053526 0.735303 0.182283 -0.156186
C117  C     C_R   0.446158 0.234089 0.817759 -0.157121
C118  C     C_R   0.553611 0.234657 0.182326 -0.158107
C119  C     C_R   0.910101 0.735861 0.746093 -0.278434
C120  C     C_R   0.089646 0.736930 0.253935 -0.276765
C121  C     C_R   0.410053 0.235804 0.746105 -0.276852
C122  C     C_R   0.589757 0.236354 0.253977 -0.279997
C123  C     C_R   0.854184 0.748429 0.710140 -0.146620
C124  C     C_R   0.145157 0.250608 0.289890 -0.038139
C125  C     C_R   0.145882 0.748454 0.289927 -0.142535
C126  C     C_R   0.354132 0.248365 0.710136 -0.145772
C127  C     C_R   0.645809 0.248471 0.289891 -0.146096
C128  C     C_R   0.035251 0.742674 0.069873 0.314617
C129  C     C_R   0.964840 0.742628 0.930235 0.314366
C130  C     C_R   0.535127 0.242484 0.069843 0.314102
C131  C     C_R   0.464710 0.242400 0.930210 0.314512
C132  C     C_R   0.678997 0.617760 0.531667 0.088425
C133  C     C_R   0.359137 0.620609 0.538699 0.082082
C134  C     C_R   0.179300 0.118164 0.532957 0.088063
C135  C     C_R   0.855089 0.250468 0.710144 -0.033708
C136  C     C_R   0.820649 0.118238 0.466849 0.087992
C137  C     C_R   0.656249 0.657474 0.498961 -0.089004
C138  C     C_R   0.342071 0.657577 0.498128 -0.088877
C139  C     C_R   0.156275 0.157492 0.498966 -0.087183
C140  C     C_R   0.843710 0.157496 0.500999 -0.087584
C141  C     C_R   0.599174 0.665251 0.465707 -0.201351
C142  C     C_R   0.358152 0.662670 0.456172 -0.195540
C143  C     C_R   0.098930 0.164911 0.464427 -0.202313
C144  C     C_R   0.901081 0.164859 0.535661 -0.202648
C145  C     C_R   0.689801 0.690001 0.499739 0.894068
C146  C     C_R   0.465008 0.750854 0.930172 0.284631
C147  C     C_R   0.309827 0.690051 0.499628 0.895365
C148  C     C_R   0.189815 0.190008 0.499753 0.892304
C149  C     C_R   0.810182 0.190007 0.500239 0.894150
C150  C     C_R   0.566887 0.632735 0.465587 -0.203707
C151  C     C_R   0.390188 0.630123 0.455765 -0.205522
C152  C     C_R   0.066645 0.132391 0.464300 -0.206429
C153  C     C_R   0.933360 0.132344 0.535773 -0.206189
C154  C     C_R   0.592204 0.593166 0.500359 -0.088026
C155  C     C_R   0.407347 0.593399 0.498899 -0.096035
C156  C     C_R   0.092213 0.093204 0.500374 -0.093829
H1    H     H_    0.610986 0.814708 0.280604 0.156815
H2    H     H_    0.010203 0.726560 0.155786 0.163135
H3    H     H_    0.425591 0.361538 0.337047 0.148504
H4    H     H_    0.357507 0.364496 0.254431 0.190589
H5    H     H_    0.513645 0.361394 0.579183 0.121979
H6    H     H_    0.572052 0.399712 0.628351 0.210843
H7    H     H_    0.564596 0.356782 0.670680 0.183239
H8    H     H_    0.812578 0.761885 0.380506 0.197762
H9    H     H_    0.800768 0.807027 0.334959 0.186295
H10   H     H_    0.187234 0.761720 0.619323 0.197965
H11   H     H_    0.199052 0.806797 0.664936 0.186241
H12   H     H_    0.272656 0.287364 0.339946 0.191713
H13   H     H_    0.489234 0.224543 0.844226 0.163001
H14   H     H_    0.272326 0.337345 0.312126 0.191890
H15   H     H_    0.662780 0.251751 0.592978 0.200578
H16   H     H_    0.674777 0.293071 0.644959 0.186459
H17   H     H_    0.510440 0.225441 0.155892 0.161925
H18   H     H_    0.926048 0.727675 0.718706 0.176697
H19   H     H_    0.073458 0.729554 0.281296 0.175686
H20   H     H_    0.426030 0.227673 0.718738 0.177500
H21   H     H_    0.573724 0.228553 0.281393 0.176659
H22   H     H_    0.579574 0.695818 0.439216 0.163378
H23   H     H_    0.345439 0.691154 0.423464 0.176755
H24   H     H_    0.079145 0.195190 0.436945 0.163644
H25   H     H_    0.387532 0.815256 0.719212 0.156645
H26   H     H_    0.920893 0.195085 0.563258 0.163338
H27   H     H_    0.522837 0.638497 0.439195 0.148353
H28   H     H_    0.402076 0.633840 0.422967 0.155436
H29   H     H_    0.022391 0.137865 0.436897 0.154511
H30   H     H_    0.977637 0.137771 0.563290 0.154513
H31   H     H_    0.689308 0.525416 0.543516 0.162778
H32   H     H_    0.436195 0.558824 0.641211 0.175969
H33   H     H_    0.190906 0.025991 0.547634 0.165114
H34   H     H_    0.808921 0.026091 0.451901 0.165136
H35   H     H_    0.764536 0.605777 0.622804 0.208766
H36   H     H_    0.112240 0.315308 0.280766 0.157030
H37   H     H_    0.313763 0.586759 0.567157 0.214762
H38   H     H_    0.264542 0.107279 0.625471 0.208601
H39   H     H_    0.735430 0.107510 0.374224 0.208940
H40   H     H_    0.548364 0.815204 0.154613 0.149816
H41   H     H_    0.450127 0.815751 0.845203 0.149948
H42   H     H_    0.049844 0.315967 0.154750 0.149982
H43   H     H_    0.951334 0.315496 0.845063 0.149905
H44   H     H_    0.744246 0.581844 0.540246 0.190082
H45   H     H_    0.378973 0.615996 0.639140 0.181767
H46   H     H_    0.245800 0.082379 0.544221 0.190398
H47   H     H_    0.888638 0.314871 0.719094 0.156828
H48   H     H_    0.754044 0.082458 0.455355 0.190502
H49   H     H_    0.606654 0.686471 0.154777 0.148980
H50   H     H_    0.394876 0.685721 0.845279 0.149004
H51   H     H_    0.106293 0.186454 0.154746 0.148618
H52   H     H_    0.893868 0.186530 0.845553 0.148531
H53   H     H_    0.669741 0.686254 0.280634 0.156793
H54   H     H_    0.331802 0.685505 0.719377 0.155176
H55   H     H_    0.169144 0.186078 0.280598 0.157467
H56   H     H_    0.830670 0.186184 0.719661 0.155529
H57   H     H_    0.848110 0.884338 0.576013 0.148902
H58   H     H_    0.854732 0.763177 0.846576 0.163919
H59   H     H_    0.152039 0.884463 0.424171 0.149154
H60   H     H_    0.369591 0.371444 0.596776 0.144592
H61   H     H_    0.665715 0.390297 0.441040 0.155100
H62   H     H_    0.905664 0.940370 0.575812 0.154021
H63   H     H_    0.094500 0.940489 0.424384 0.153983
H64   H     H_    0.426730 0.428110 0.597399 0.167594
H65   H     H_    0.607766 0.446082 0.440735 0.145703
H66   H     H_    0.951847 0.841211 0.462279 0.046589
H67   H     H_    0.048025 0.841156 0.537530 0.046677
H68   H     H_    0.430012 0.349763 0.435108 0.027827
H69   H     H_    0.145926 0.761331 0.153648 0.163368
H70   H     H_    0.530797 0.339890 0.508292 0.037698
H71   H     H_    0.931258 0.786686 0.580118 0.178898
H72   H     H_    0.964466 0.824580 0.559496 0.116445
H73   H     H_    0.988866 0.769783 0.583670 0.204563
H74   H     H_    0.068722 0.786800 0.419732 0.178733
H75   H     H_    0.035498 0.824666 0.440341 0.116387
H76   H     H_    0.011040 0.769902 0.416037 0.204525
H77   H     H_    0.443203 0.251924 0.529858 0.204875
H78   H     H_    0.438761 0.309886 0.530951 0.141112
H79   H     H_    0.460645 0.283384 0.485086 0.176257
H80   H     H_    0.354579 0.262885 0.846540 0.163495
H81   H     H_    0.567321 0.295310 0.400204 0.185084
H82   H     H_    0.529575 0.330908 0.417166 0.128328
H83   H     H_    0.502198 0.278694 0.378628 0.187360
H84   H     H_    0.728357 0.822459 0.687839 0.192284
H85   H     H_    0.794442 0.835494 0.708587 0.152556
H86   H     H_    0.789946 0.819811 0.776178 0.151178
H87   H     H_    0.274037 0.819047 0.312540 0.191179
H88   H     H_    0.208098 0.833853 0.290933 0.155376
H89   H     H_    0.212736 0.816669 0.224008 0.153069
H90   H     H_    0.228230 0.322253 0.687869 0.192224
H91   H     H_    0.645450 0.262298 0.153439 0.163621
H92   H     H_    0.294353 0.335350 0.708766 0.154783
H93   H     H_    0.289765 0.319523 0.776233 0.150877
H94   H     H_    0.772476 0.321099 0.312044 0.192176
H95   H     H_    0.706499 0.334828 0.291127 0.153168
H96   H     H_    0.710913 0.318564 0.223684 0.151408
H97   H     H_    0.685838 0.525212 0.637981 0.213396
H98   H     H_    0.713499 0.575615 0.664537 0.211212
H99   H     H_    0.388421 0.501610 0.553528 0.188617
H100  H     H_    0.325804 0.525563 0.512991 0.208085
H101  H     H_    0.185864 0.026778 0.640777 0.212719
H102  H     H_    0.989310 0.724648 0.844207 0.163108
H103  H     H_    0.212411 0.077575 0.666088 0.210253
H104  H     H_    0.814090 0.027054 0.358864 0.212744
H105  H     H_    0.787631 0.077895 0.333674 0.210405
H106  H     H_    0.958900 0.877465 0.391680 0.127591
H107  H     H_    0.896669 0.911867 0.340336 0.200996
H108  H     H_    0.907634 0.869238 0.300954 0.171892
H109  H     H_    0.040986 0.877434 0.608119 0.127686
H110  H     H_    0.103331 0.911686 0.659582 0.200988
H111  H     H_    0.092167 0.869077 0.698843 0.171928
H112  H     H_    0.376057 0.316433 0.306208 0.171013
N1    N     N_R   0.517685 0.712689 0.034324 -0.176363
N2    N     N_R   0.979074 0.742951 0.034253 -0.179779
N3    N     N_R   0.520886 0.242012 0.965820 -0.179560
N4    N     N_R   0.478950 0.242447 0.034234 -0.180663
N5    N     N_R   0.055587 0.742049 0.034422 -0.177257
N6    N     N_R   0.944506 0.743017 0.965689 -0.177377
N7    N     N_R   0.555461 0.242143 0.034388 -0.177444
N8    N     N_R   0.444375 0.242498 0.965665 -0.178089
N9    N     N_3   0.714455 0.546809 0.642495 -0.423911
N10   N     N_3   0.364491 0.520519 0.561563 -0.435144
N11   N     N_3   0.214342 0.048544 0.645294 -0.424806
N12   N     N_R   0.483172 0.712664 0.965741 -0.176563
N13   N     N_3   0.785624 0.048825 0.354358 -0.424626
N14   N     N_3   0.831856 0.784608 0.369873 -0.383154
N15   N     N_3   0.167952 0.784426 0.629954 -0.382998
N16   N     N_3   0.296176 0.308794 0.334206 -0.406518
N17   N     N_3   0.642957 0.274299 0.602998 -0.387163
N18   N     N_R   0.017528 0.213046 0.034409 -0.176705
N19   N     N_R   0.982894 0.212998 0.965829 -0.176793
N20   N     N_R   0.482407 0.789083 0.965601 -0.173508
N21   N     N_R   0.516606 0.789105 0.034205 -0.173541
N22   N     N_R   0.983345 0.289419 0.965635 -0.173622
N23   N     N_R   0.017667 0.289468 0.034243 -0.173729
N24   N     N_R   0.021013 0.741939 0.965852 -0.179673
O1    O     O_R   0.821670 0.769930 0.500000 -0.605880
O2    O     O_R   0.074580 0.954200 0.557500 -0.630316
O3    O     O_R   0.425420 0.454200 0.442500 -0.577216
O4    O     O_R   0.574580 0.454200 0.557500 -0.632117
O5    O     O_R   0.982890 0.954220 0.557510 -0.641291
O6    O     O_R   0.017110 0.954220 0.442490 -0.641272
O7    O     O_R   0.482890 0.454220 0.557510 -0.655605
O8    O     O_R   0.517110 0.454220 0.442490 -0.623370
O9    O     O_R   0.769920 0.821660 0.500020 -0.626450
O10   O     O_R   0.230080 0.821660 0.499980 -0.626450
O11   O     O_R   0.269920 0.321660 0.500020 -0.632120
O12   O     O_R   0.178330 0.769930 0.500000 -0.606147
O13   O     O_R   0.730080 0.321660 0.499980 -0.629037
O14   O     O_R   0.724940 0.724130 0.398140 -0.627478
O15   O     O_R   0.275060 0.724130 0.601860 -0.628460
O16   O     O_R   0.224940 0.224130 0.398140 -0.618169
O17   O     O_R   0.775060 0.224130 0.601860 -0.629267
O18   O     O_R   0.673180 0.775850 0.398150 -0.623997
O19   O     O_R   0.326820 0.775850 0.601850 -0.620890
O20   O     O_R   0.173180 0.275850 0.398150 -0.625815
O21   O     O_R   0.826820 0.275850 0.601850 -0.624140
O22   O     O_R   0.730060 0.678320 0.499990 -0.624440
O23   O     O_R   0.321670 0.269930 0.500000 -0.582398
O24   O     O_R   0.269940 0.678320 0.500010 -0.621069
O25   O     O_R   0.230060 0.178320 0.499990 -0.626101
O26   O     O_R   0.769940 0.178320 0.500010 -0.624736
O27   O     O_R   0.678300 0.730040 0.500010 -0.614480
O28   O     O_R   0.321700 0.730040 0.499990 -0.615972
O29   O     O_R   0.178300 0.230040 0.500010 -0.614453
O30   O     O_R   0.821700 0.230040 0.499990 -0.614185
O31   O     O_R   0.826790 0.724120 0.601860 -0.630305
O32   O     O_R   0.173210 0.724120 0.398140 -0.627629
O33   O     O_R   0.326790 0.224120 0.601860 -0.633487
O34   O     O_R   0.678330 0.269930 0.500000 -0.607692
O35   O     O_R   0.673210 0.224120 0.398140 -0.627848
O36   O     O_R   0.775040 0.775850 0.601880 -0.583311
O37   O     O_R   0.224960 0.775850 0.398120 -0.587806
O38   O     O_R   0.275040 0.275850 0.601880 -0.582801
O39   O     O_R   0.724960 0.275850 0.398120 -0.583833
O40   O     O_R   0.425360 0.545810 0.442460 -0.618123
O41   O     O_R   0.574640 0.545810 0.557540 -0.626777
O42   O     O_R   0.925360 0.045810 0.442460 -0.629045
O43   O     O_R   0.074640 0.045810 0.557540 -0.629090
O44   O     O_3   0.913810 0.774708 0.485900 -0.589804
O45   O     O_R   0.482840 0.545830 0.557470 -0.625165
O46   O     O_3   0.086050 0.774689 0.513867 -0.589698
O47   O     O_3   0.376026 0.277715 0.437632 -0.586654
O48   O     O_3   0.569390 0.275136 0.481843 -0.595218
O49   O     O_3   0.778477 0.769295 0.711737 -0.594281
O50   O     O_3   0.222287 0.767097 0.288632 -0.601008
O51   O     O_3   0.278370 0.269120 0.711681 -0.595565
O52   O     O_3   0.721763 0.268405 0.288313 -0.595349
O53   O     O_3   0.881560 0.849053 0.355648 -0.602751
O54   O     O_3   0.118250 0.848838 0.644200 -0.602767
O55   O     O_3   0.358711 0.372888 0.337541 -0.580444
O56   O     O_R   0.517160 0.545830 0.442530 -0.623462
O57   O     O_3   0.593210 0.337700 0.618420 -0.600420
O58   O     O_R   0.982840 0.045830 0.557470 -0.617753
O59   O     O_R   0.017160 0.045830 0.442530 -0.617682
O60   O     O_R   0.925420 0.954200 0.442500 -0.630224
Zn1   Zn    Zn3+2 0.784540 0.715450 0.500000 0.970245
Zn2   Zn    Zn3+2 0.538410 0.500000 0.576790 0.926833
Zn3   Zn    Zn3+2 0.961590 0.000000 0.423210 0.923165
Zn4   Zn    Zn3+2 0.038410 0.000000 0.576790 0.922989
Zn5   Zn    Zn3+2 0.215460 0.715450 0.500000 0.974127
Zn6   Zn    Zn3+2 0.284540 0.215450 0.500000 0.978903
Zn7   Zn    Zn3+2 0.715460 0.215450 0.500000 0.966261
Zn8   Zn    Zn3+2 0.715430 0.784520 0.500010 0.968508
Zn9   Zn    Zn3+2 0.284570 0.784520 0.499990 0.968282
Zn10  Zn    Zn3+2 0.215430 0.284520 0.500010 0.971069
Zn11  Zn    Zn3+2 0.784570 0.284520 0.499990 0.967652
Zn12  Zn    Zn3+2 0.461590 0.500000 0.423210 0.985707

loop_
_geom_bond_atom_site_label_1
_geom_bond_atom_site_label_2
_ccdc_geom_bond_type
C49   C113  A    
C69   O12   A    
N2    N6    A    
C4    C154  A    
C136  C140  A    
O1    Zn1   S    
C100  O21   A    
C90   O55   S    
C90   C95   S    
O13   Zn11  S    
O16   Zn6   S    
C97   O14   A    
C63   H4    S    
C2    N21   A    
C62   H109  S    
C14   H45   S    
C89   C94   S    
O35   Zn7   S    
C93   O44   S    
C65   C96   S    
C152  C156  A    
C118  H17   S    
C70   C74   A    
C3    C19   S    
C59   H92   S    
C151  C155  A    
C149  O30   A    
C100  C135  S    
O40   Zn12  S    
C31   H25   S    
C24   C41   S    
C114  C130  S    
C129  N6    A    
C18   O41   A    
C13   C42   S    
C65   C87   A    
C17   O45   A    
C8    H31   S    
C141  H22   S    
O28   Zn9   S    
C36   H41   S    
C86   C90   S    
C148  O25   A    
C30   C34   A    
C120  C125  A    
C35   C66   A    
C132  C137  A    
C5    C155  A    
C33   H47   S    
N1    N12   A    
C142  C151  A    
O38   Zn10  S    
C33   C135  A    
C120  H19   S    
C21   C79   S    
C96   N17   S    
H8    N14   S    
C55   H81   S    
C58   H88   S    
C26   O31   A    
O21   Zn11  S    
C88   H66   S    
C9    N10   S    
C26   C123  S    
C17   C155  S    
O29   Zn10  S    
O26   Zn7   S    
C2    N1    A    
C56   H86   S    
C12   C132  S    
C98   O15   A    
C128  N2    A    
H9    N14   S    
C56   H84   S    
C58   H89   S    
C84   C88   S    
C35   C84   A    
C119  C123  A    
O15   Zn5   S    
C33   C38   A    
C11   H34   S    
C89   O54   S    
C16   H39   S    
C77   C82   A    
O17   Zn7   S    
C25   O8    A    
C61   O53   S    
C59   H90   S    
C112  C131  S    
C128  N5    A    
C24   N23   A    
O31   Zn1   S    
C72   H59   S    
C25   C83   S    
C41   C45   A    
C31   C36   A    
C103  C107  A    
C29   O35   A    
C16   H48   S    
C75   C79   A    
C80   O11   A    
H11   N15   S    
C151  H28   S    
C122  H21   S    
H16   N17   S    
C23   C82   S    
H103  N11   S    
C70   C91   S    
O7    Zn2   S    
C63   H3    S    
C8    N9    S    
C4    C132  A    
O33   Zn6   S    
C145  O27   A    
C5    C133  A    
O19   Zn9   S    
C21   O5    A    
C45   C50   A    
C119  H18   S    
O4    Zn2   S    
C79   C84   A    
H98   N9    S    
C52   H73   S    
C76   H63   S    
C65   C70   A    
O10   Zn9   S    
C92   C96   S    
C26   O36   A    
C110  C129  S    
C67   C72   A    
C118  C122  A    
C122  C127  A    
C20   O43   A    
C15   H38   S    
C139  C143  A    
C13   N19   A    
C49   H54   S    
C73   H60   S    
C96   O48   S    
C10   N11   S    
C18   C154  S    
C53   H74   S    
C97   O18   A    
C56   O49   S    
O22   Zn1   S    
H10   N15   S    
C146  N12   A    
C51   H56   S    
C93   N14   S    
C141  C150  A    
O8    Zn12  S    
C106  H58   S    
C24   N18   A    
C139  C148  S    
C10   H33   S    
C105  C127  A    
C34   C39   A    
C50   C124  A    
C61   H107  S    
O2    Zn4   S    
C134  C139  A    
C55   O48   S    
C37   H42   S    
C116  C120  A    
H14   N16   S    
C116  H2    S    
C28   O33   A    
C46   C94   S    
C145  O22   A    
C8    C12   S    
C12   H44   S    
O5    Zn4   S    
O41   Zn2   S    
C105  O52   S    
C32   C37   A    
O20   Zn10  S    
H97   N9    S    
C109  C114  A    
H105  N13   S    
C91   O13   A    
C64   O57   S    
H101  N11   S    
C115  C119  A    
C29   C127  S    
C54   H78   S    
C57   C68   A    
O24   Zn5   S    
C16   C136  S    
C148  O29   A    
C101  C106  A    
C105  C109  A    
O14   Zn1   S    
C73   C77   A    
C27   O32   A    
C107  C111  A    
O27   Zn8   S    
C89   H67   S    
C17   O40   A    
C14   C133  S    
C40   C146  S    
C147  O28   A    
O25   Zn6   S    
C7    C136  A    
O6    Zn3   S    
C62   H110  S    
O12   Zn5   S    
C107  H69   S    
C37   C41   A    
C103  C125  A    
C53   H76   S    
C117  H13   S    
C40   C44   A    
C48   H53   S    
C109  H91   S    
C111  C128  S    
C140  C149  S    
C31   C113  A    
C81   C85   A    
C104  O51   S    
C53   O46   S    
C30   H1    S    
C83   C87   A    
C108  H80   S    
O39   Zn11  S    
O30   Zn11  S    
C9    H32   S    
H104  N13   S    
C15   C134  S    
C5    C9    S    
C19   O58   A    
C47   H52   S    
C137  C145  S    
C20   O59   A    
C3    C7    A    
C112  C117  A    
O59   Zn3   S    
C153  H30   S    
C32   H36   S    
N22   N23   A    
C92   O57   S    
C78   C83   A    
C52   H72   S    
C129  N24   A    
C59   H93   S    
C60   H95   S    
C111  C116  A    
C29   O39   A    
C21   O60   A    
C63   H112  S    
C97   C102  S    
C72   C76   A    
C46   C85   A    
C92   H70   S    
C133  C138  A    
C87   C92   S    
C103  O50   S    
C22   O6    A    
C64   H7    S    
C23   O3    A    
C62   O54   S    
C28   C126  S    
C94   O46   S    
O3    Zn12  S    
C59   O51   S    
C22   C81   S    
O32   Zn5   S    
C138  C142  A    
C121  C126  A    
C85   C89   S    
O34   Zn7   S    
C64   H5    S    
C98   C113  S    
C47   C51   A    
C71   H57   S    
C108  C112  A    
C101  O49   S    
N3    N7    A    
C9    C14   S    
C90   H68   S    
C11   C16   S    
O37   Zn9   S    
C66   C71   A    
N4    N8    A    
C48   C102  A    
C44   H50   S    
C60   O52   S    
C99   O16   A    
C30   C102  A    
C143  C152  A    
C14   H37   S    
H99   N10   S    
C11   N13   S    
C22   O2    A    
C104  C108  A    
C23   O7    A    
O18   Zn8   S    
C12   H35   S    
C137  C141  A    
O23   Zn6   S    
C140  C144  A    
H15   N17   S    
C6    C10   S    
C1    O1    A    
C27   O37   A    
C82   C86   A    
C100  O17   A    
C27   C125  S    
C58   O50   S    
C54   O47   S    
C55   H82   S    
C58   H87   S    
C146  N20   A    
C131  N8    A    
C131  N3    A    
C95   N16   S    
C74   C78   A    
O42   Zn3   S    
C38   H43   S    
C110  C115  A    
C44   C49   A    
C68   C80   S    
C19   O42   A    
C56   H85   S    
O60   Zn3   S    
C147  O24   A    
C43   H49   S    
C32   C124  A    
C4    C8    S    
C7    C11   S    
C101  C123  A    
H100  N10   S    
C80   O23   A    
C61   H106  S    
C38   C42   A    
C10   C15   S    
N18   N19   A    
C121  H20   S    
O45   Zn2   S    
C3    C153  A    
C57   C86   A    
C144  C153  A    
C117  C121  A    
C52   H71   S    
C51   C135  A    
C2    C39   S    
O56   Zn12  S    
N5    N24   A    
C52   O44   S    
C43   C48   A    
C18   O56   A    
C95   O47   S    
C45   H51   S    
C60   H94   S    
C1    O9    A    
C54   H79   S    
C35   C93   S    
C144  H26   S    
C69   O10   A    
O43   Zn4   S    
C36   C40   A    
C88   O53   S    
C64   H6    S    
C63   O55   S    
H12   N16   S    
C39   C43   A    
O36   Zn8   S    
C75   H62   S    
C68   C73   A    
C67   C69   S    
O9    Zn8   S    
C62   H111  S    
C130  N4    A    
C142  H23   S    
O58   Zn4   S    
C138  C147  S    
O11   Zn10  S    
C28   O38   A    
C1    C66   S    
C143  H24   S    
C114  C118  A    
C53   H75   S    
C50   H55   S    
C25   O4    A    
C57   C95   S    
C98   O19   A    
C15   H46   S    
C106  C110  A    
C34   H40   S    
C88   C93   S    
C20   C156  S    
C61   H108  S    
C152  H29   S    
C115  H102  S    
C76   C81   A    
C77   H64   S    
C150  H27   S    
N20   N21   A    
C46   C67   A    
C6    C134  A    
C71   C75   A    
C149  O26   A    
C74   H61   S    
C99   O20   A    
C42   C47   A    
C6    C156  A    
C78   H65   S    
C13   N22   A    
C104  C126  A    
C150  C154  A    
C60   H96   S    
C94   N15   S    
C99   C124  S    
C54   H77   S    
C55   H83   S    
C130  N7    A    
C91   O34   A    
