data_mof_unit_40345.cif
_audit_creation_date              2012-10-26T18:50:24-0400
_audit_creation_method            fapswitch 2.2
_symmetry_space_group_name_H-M    P1
_symmetry_Int_Tables_number       1
_space_group_crystal_system       triclinic
_cell_length_a                    9.634658
_cell_length_b                    10.846865
_cell_length_c                    15.492461
_cell_angle_alpha                 85.86787
_cell_angle_beta                  73.589917
_cell_angle_gamma                 89.902731
_cell_volume                      1548.7674429

loop_
_atom_site_label
_atom_site_type_symbol
_atom_type_description
_atom_site_fract_x
_atom_site_fract_y
_atom_site_fract_z
_atom_type_partial_charge
C1    C     C_R   0.003573 0.263085 0.493681 0.570261
C2    C     C_R   0.218499 0.496171 0.037715 0.022097
C3    C     C_R   0.318401 0.526358 0.084813 0.040976
C4    C     C_R   0.917548 0.503091 0.671872 0.528401
C5    C     C_R   0.072799 0.468552 0.084714 0.265160
C6    C     C_R   0.025106 0.476754 0.179490 0.196266
C7    C     C_R   0.276765 0.503840 0.179286 0.218258
C8    C     C_R   0.276230 0.110998 0.455341 0.286624
C9    C     C_R   0.387993 0.055431 0.486501 0.206427
C10   C     C_R   0.358346 0.945445 0.541475 -0.022031
C11   C     C_R   0.224131 0.885288 0.560645 0.220128
C12   C     C_R   0.665492 0.551677 0.900069 -0.066586
C13   C     C_R   0.115940 0.936860 0.523296 -0.072879
C14   C     C_R   0.133923 0.060861 0.488307 -0.003016
C15   C     C_R   0.008249 0.128642 0.487820 -0.013556
C16   C     C_R   0.996413 0.736732 0.507695 0.577157
C17   C     C_R   0.877817 0.065556 0.497998 -0.146616
C18   C     C_R   0.870135 0.937001 0.508304 0.214056
C19   C     C_R   0.991705 0.870880 0.518009 0.025102
C20   C     C_R   0.702113 0.672931 0.387642 -0.068514
C21   C     C_R   0.660670 0.775379 0.344873 -0.180487
C22   C     C_R   0.517786 0.788796 0.347057 0.219115
C23   C     C_R   0.759058 0.609580 0.942284 0.104357
C24   C     C_R   0.417772 0.691020 0.385981 0.360075
C25   C     C_R   0.452272 0.591078 0.444557 0.162059
C26   C     C_R   0.601831 0.587135 0.444694 0.119765
C27   C     C_R   0.549705 0.417070 0.552643 -0.003334
C28   C     C_R   0.082579 0.495984 0.327556 0.596101
C29   C     C_R   0.402428 0.416621 0.552270 -0.004191
C30   C     C_R   0.870293 0.526153 0.768018 -0.032848
C31   C     C_R   0.128370 0.490746 0.227659 -0.009253
C32   C     C_R   0.908779 0.625862 0.895400 0.316288
C33   C     C_R   0.962348 0.583409 0.808726 -0.154671
C34   C     C_R   0.515061 0.537991 0.944254 -0.031508
C35   C     C_R   0.725185 0.506397 0.815067 -0.122442
C36   C     C_R   0.462643 0.563597 0.035746 0.072643
C37   C     C_R   0.550716 0.634845 0.073358 0.255037
C38   C     C_R   0.700480 0.651826 0.029226 0.251312
C39   C     C_R   0.413727 0.504664 0.898895 -0.142711
C40   C     C_R   0.267796 0.488238 0.944337 -0.093514
Cu1   Cu    Cu3+1 0.140660 0.499990 0.500010 1.049180
Cu2   Cu    Cu3+1 0.859340 0.500010 0.499990 0.994283
H1    H     H_    0.748184 0.698443 0.136855 0.326051
H2    H     H_    0.815432 0.668193 0.375330 0.210470
H3    H     H_    0.741797 0.843736 0.308082 0.135992
H4    H     H_    0.358875 0.402923 0.258541 0.346710
H5    H     H_    0.556072 0.953250 0.283783 0.339183
H6    H     H_    0.297777 0.751560 0.307946 0.378963
H7    H     H_    0.328237 0.347838 0.595086 0.118382
H8    H     H_    0.821716 0.495148 0.185501 0.345063
H9    H     H_    0.194513 0.465154 0.905969 0.174636
H10   H     H_    0.098963 0.693209 0.890688 0.315839
H11   H     H_    0.075163 0.599209 0.771793 0.133585
H12   H     H_    0.902925 0.377702 0.077514 0.337392
H13   H     H_    0.660418 0.454114 0.783576 0.134649
H14   H     H_    0.539196 0.776512 0.145068 0.343322
H15   H     H_    0.442653 0.496878 0.827016 0.117291
H16   H     H_    0.780944 0.116094 0.497865 0.181831
H17   H     H_    0.407062 0.200747 0.350618 0.332185
H18   H     H_    0.518782 0.198213 0.452256 0.336531
H19   H     H_    0.439377 0.906611 0.571007 0.171871
H20   H     H_    0.092377 0.775297 0.650795 0.319581
H21   H     H_    0.678558 0.933011 0.491069 0.355666
H22   H     H_    0.584823 0.348681 0.595933 0.121931
N1    N     N_R   0.648320 0.501210 0.499140 -0.234645
N2    N     N_R   0.352470 0.501290 0.499110 -0.216859
O1    O     O_R   0.118810 0.319640 0.500010 -0.467329
O2    O     O_3   0.980624 0.431659 0.036949 -0.690786
O3    O     O_3   0.304658 0.204513 0.386874 -0.690855
O4    O     O_3   0.523830 0.108820 0.468803 -0.763144
O5    O     O_3   0.198342 0.785119 0.623567 -0.687733
O6    O     O_3   0.743112 0.875258 0.512522 -0.685878
O7    O     O_3   0.383803 0.482412 0.221464 -0.625972
O8    O     O_3   0.473615 0.893606 0.306405 -0.708669
O9    O     O_3   0.293642 0.691438 0.359885 -0.610335
O10   O     O_3   0.879925 0.466562 0.226220 -0.684586
O11   O     O_3   0.000411 0.686582 0.933430 -0.598463
O12   O     O_R   0.881240 0.319660 0.500000 -0.519509
O13   O     O_3   0.484745 0.698213 0.147967 -0.654783
O14   O     O_R   0.055570 0.499980 0.629840 -0.506240
O15   O     O_R   0.818000 0.500010 0.629830 -0.508981
O16   O     O_R   0.118760 0.680340 0.500000 -0.430892
O17   O     O_R   0.881190 0.680360 0.499990 -0.472469
O18   O     O_R   0.182000 0.499990 0.370170 -0.417280
O19   O     O_R   0.944430 0.500020 0.370160 -0.476984
O20   O     O_3   0.790586 0.708447 0.070527 -0.627704

loop_
_geom_bond_atom_site_label_1
_geom_bond_atom_site_label_2
_ccdc_geom_bond_type
C28   O18   A    
Cu1   Cu2   S    
Cu1   O14   S    
C7    O7    S    
C29   H7    S    
C37   O13   S    
C12   C23   A    
C8    O3    S    
H14   O13   S    
C30   C35   A    
C38   O20   S    
C36   C37   A    
C4    O14   A    
C3    C7    A    
C5    C6    A    
C11   O5    S    
C27   C29   A    
C39   H15   S    
C18   C19   A    
C32   O11   S    
C25   N2    A    
C4    O15   A    
C8    C9    A    
Cu2   N1    S    
C1    C15   S    
C9    C10   A    
C17   H16   S    
C6    C31   A    
C13   C14   A    
C18   O6    S    
C1    O12   A    
H1    O20   S    
H6    O9    S    
Cu2   O15   S    
C5    O2    S    
C20   H2    S    
C21   H3    S    
C33   H11   S    
C7    C31   A    
C13   C19   A    
C35   H13   S    
C34   C39   A    
C24   C25   A    
Cu1   O1    S    
C10   C11   A    
C39   C40   A    
C25   C26   A    
Cu1   O18   S    
C16   O17   A    
C37   C38   A    
C27   N1    A    
H8    O10   S    
H18   O4    S    
C16   O16   A    
C17   C18   A    
Cu2   O19   S    
C9    O4    S    
C12   C35   A    
H17   O3    S    
Cu2   O12   S    
C22   C24   A    
C2    C5    A    
C22   O8    S    
C12   C34   A    
H10   O11   S    
C23   C38   A    
C15   C17   A    
C8    C14   A    
C30   C33   A    
C26   N1    A    
C28   C31   S    
Cu2   O17   S    
H5    O8    S    
C24   O9    S    
C6    O10   S    
Cu1   N2    S    
C40   H9    S    
C23   C32   A    
C2    C3    A    
C32   C33   A    
C11   C13   A    
C20   C26   A    
C3    C36   A    
C16   C19   S    
Cu1   O16   S    
H21   O6    S    
C1    O1    A    
H20   O5    S    
C34   C36   A    
C27   H22   S    
C29   N2    A    
C10   H19   S    
C2    C40   A    
H12   O2    S    
C20   C21   A    
C28   O19   A    
C14   C15   A    
C21   C22   A    
H4    O7    S    
C4    C30   S    
