data_mof_unit_59166.cif
_audit_creation_date              2012-10-26T19:35:34-0400
_audit_creation_method            fapswitch 2.2
_symmetry_space_group_name_H-M    P1
_symmetry_Int_Tables_number       1
_space_group_crystal_system       triclinic
_cell_length_a                    15.857326
_cell_length_b                    10.83346
_cell_length_c                    9.57058
_cell_angle_alpha                 89.975137
_cell_angle_beta                  91.113488
_cell_angle_gamma                 91.764915
_cell_volume                      1643.03682794

loop_
_atom_site_label
_atom_site_type_symbol
_atom_type_description
_atom_site_fract_x
_atom_site_fract_y
_atom_site_fract_z
_atom_type_partial_charge
C1    C     C_R   0.498082 0.262555 0.499946 0.542110
C2    C     C_R   0.497578 0.129417 0.499462 -0.007590
C3    C     C_R   0.480239 0.063401 0.375390 -0.187867
C4    C     C_R   0.339925 0.497093 0.498437 0.541163
C5    C     C_R   0.476993 0.934845 0.377012 -0.176550
C6    C     C_R   0.494597 0.870565 0.500832 -0.003746
C7    C     C_R   0.514246 0.937274 0.622663 -0.019447
C8    C     C_3   0.474723 0.933282 0.764689 0.165537
C9    C     C_3   0.476601 0.074791 0.763443 -0.089136
C10   C     C_R   0.570681 0.535149 0.074996 0.138963
C11   C     C_R   0.434659 0.448514 0.073626 -0.016536
C12   C     C_3   0.083135 0.476989 0.484415 0.038539
C13   C     C_R   0.433084 0.449777 0.923749 0.355024
C14   C     C_R   0.571153 0.532957 0.928766 0.128896
C15   C     C_3   0.623221 0.649241 0.920390 0.148506
C16   C     C_R   0.497008 0.737296 0.500194 0.540516
C17   C     C_3   0.620617 0.654597 0.080814 0.157323
C18   C     C_R   0.660291 0.498951 0.501048 0.540176
C19   C     C_3   0.968619 0.362760 0.499644 -0.118897
C20   C     C_3   0.022880 0.412899 0.377338 -0.122193
C21   C     C_1   0.250323 0.488095 0.493343 -0.051045
C22   C     C_1   0.750190 0.492832 0.502249 -0.030288
C23   C     C_3   0.978956 0.544319 0.600349 0.066954
C24   C     C_3   0.030745 0.426182 0.606495 -0.100328
C25   C     C_3   0.533773 0.136116 0.878213 -0.281105
C26   C     C_3   0.628647 0.123147 0.858669 -0.442483
C27   C     C_3   0.287407 0.419612 0.894725 0.004032
C28   C     C_3   0.242472 0.305715 0.956743 -0.282601
C29   C     C_3   0.159473 0.338776 0.023318 -0.488510
C30   C     C_3   0.756373 0.730228 0.865918 -0.010325
C31   C     C_3   0.744713 0.800653 0.727998 -0.261088
C32   C     C_3   0.802034 0.916421 0.723482 -0.496085
C33   C     C_3   0.614813 0.865817 0.128558 -0.004513
C34   C     C_3   0.917554 0.481314 0.494582 0.038182
C35   C     C_3   0.679903 0.880096 0.249132 -0.261783
C36   C     C_3   0.712092 0.013756 0.263754 -0.479283
C37   C     C_3   0.071618 0.723190 0.456353 -0.274512
C38   C     C_3   0.006082 0.823336 0.450142 -0.451600
C39   C     C_3   0.951445 0.612126 0.730027 -0.277327
C40   C     C_3   0.025999 0.660386 0.819566 -0.455788
C41   C     C_3   0.330973 0.911445 0.676910 0.024103
C42   C     C_3   0.255327 0.955307 0.758083 -0.269624
C43   C     C_3   0.191802 0.018741 0.662515 -0.500414
C44   C     C_3   0.031538 0.594420 0.478406 0.068236
C45   C     C_3   0.969986 0.531153 0.371520 -0.102986
C46   C     C_1   0.174837 0.480732 0.487603 -0.083947
C47   C     C_1   0.825721 0.486971 0.499781 -0.069560
C48   C     C_R   0.515750 0.065088 0.621996 -0.012147
Cu1   Cu    Cu3+1 0.500000 0.499980 0.640670 1.023753
Cu2   Cu    Cu3+1 0.500000 0.500020 0.359330 0.962389
H1    H     H_    0.042416 0.358577 0.285844 0.104247
H2    H     H_    0.466065 0.110655 0.278360 0.130291
H3    H     H_    0.458649 0.885724 0.282300 0.173583
H4    H     H_    0.643923 0.025228 0.843262 0.127377
H5    H     H_    0.649915 0.177519 0.766731 0.174587
H6    H     H_    0.663491 0.158721 0.952756 0.134886
H7    H     H_    0.521014 0.236017 0.881533 0.187782
H8    H     H_    0.515887 0.097423 0.981326 0.122031
H9    H     H_    0.250155 0.449356 0.801886 0.161192
H10   H     H_    0.287367 0.499054 0.968981 0.113188
H11   H     H_    0.229428 0.236869 0.872479 0.162281
H12   H     H_    0.518461 0.895637 0.844355 0.128368
H13   H     H_    0.283558 0.262579 0.037094 0.155052
H14   H     H_    0.171334 0.404904 0.110739 0.152723
H15   H     H_    0.128044 0.253960 0.065231 0.141771
H16   H     H_    0.116692 0.380559 0.944616 0.136645
H17   H     H_    0.822218 0.700931 0.875665 0.146836
H18   H     H_    0.749576 0.790883 0.957520 0.102679
H19   H     H_    0.759393 0.739594 0.639079 0.169656
H20   H     H_    0.678321 0.828660 0.714970 0.148049
H21   H     H_    0.788533 0.979000 0.811504 0.144276
H22   H     H_    0.791085 0.966192 0.623632 0.145037
H23   H     H_    0.413570 0.116805 0.759140 0.154382
H24   H     H_    0.869357 0.891949 0.730886 0.137143
H25   H     H_    0.567782 0.938486 0.138410 0.151808
H26   H     H_    0.643304 0.885002 0.026304 0.094048
H27   H     H_    0.650989 0.850124 0.348768 0.185035
H28   H     H_    0.734778 0.821635 0.230118 0.126996
H29   H     H_    0.742371 0.045053 0.165662 0.140037
H30   H     H_    0.759474 0.020891 0.350564 0.139247
H31   H     H_    0.659346 0.075052 0.287387 0.164072
H32   H     H_    0.955622 0.799647 0.371743 0.145815
H33   H     H_    0.977706 0.835703 0.553804 0.147764
H34   H     H_    0.383201 0.406079 0.130287 0.118548
H35   H     H_    0.036993 0.912395 0.419660 0.131178
H36   H     H_    0.118434 0.743827 0.541376 0.136221
H37   H     H_    0.105876 0.723220 0.356193 0.138812
H38   H     H_    0.068546 0.584403 0.847611 0.144867
H39   H     H_    0.062131 0.733645 0.763689 0.151010
H40   H     H_    0.002227 0.700696 0.917347 0.127869
H41   H     H_    0.912623 0.689892 0.696005 0.139792
H42   H     H_    0.912202 0.547321 0.793262 0.154317
H43   H     H_    0.310171 0.831075 0.611377 0.144034
H44   H     H_    0.352097 0.984842 0.603507 0.127859
H45   H     H_    0.589831 0.722224 0.862605 0.124802
H46   H     H_    0.223791 0.874792 0.809575 0.161906
H47   H     H_    0.277399 0.021346 0.840737 0.166566
H48   H     H_    0.220506 0.104843 0.618619 0.152883
H49   H     H_    0.135673 0.043060 0.723149 0.142745
H50   H     H_    0.171244 0.956558 0.575476 0.145621
H51   H     H_    0.682048 0.643163 0.136589 0.110628
H52   H     H_    0.941426 0.267486 0.508498 0.103779
H53   H     H_    0.943825 0.573997 0.275262 0.097552
H54   H     H_    0.056960 0.382307 0.702003 0.095163
N1    N     N_R   0.500530 0.500930 0.147930 -0.244001
N2    N     N_R   0.500530 0.500890 0.852020 -0.242232
O1    O     O_R   0.500000 0.319640 0.618810 -0.484627
O2    O     O_3   0.703814 0.622517 0.869552 -0.582782
O3    O     O_3   0.570689 0.750280 0.131599 -0.560851
O4    O     O_3   0.393941 0.871730 0.772970 -0.554496
O5    O     O_R   0.500010 0.319680 0.381230 -0.519707
O6    O     O_R   0.379070 0.499970 0.618770 -0.443136
O7    O     O_R   0.379080 0.500010 0.381190 -0.516580
O8    O     O_R   0.499990 0.680320 0.618770 -0.493570
O9    O     O_R   0.500000 0.680360 0.381190 -0.454066
O10   O     O_R   0.620920 0.499990 0.618810 -0.465628
O11   O     O_R   0.620930 0.500030 0.381230 -0.507140
O12   O     O_3   0.368676 0.387985 0.849392 -0.551320

loop_
_geom_bond_atom_site_label_1
_geom_bond_atom_site_label_2
_ccdc_geom_bond_type
C38   H33   S    
C36   H29   S    
Cu2   O11   S    
C41   C42   S    
C35   C36   S    
C43   H48   S    
C26   H5    S    
C13   O12   S    
C9    C25   S    
C7    C8    S    
Cu1   O1    S    
C9    H23   S    
C42   H46   S    
C5    H3    S    
C28   C29   S    
C43   H49   S    
Cu2   O9    S    
C20   H1    S    
C27   H10   S    
C15   H45   S    
C30   C31   S    
C19   H52   S    
C10   C17   S    
C1    C2    S    
C17   H51   S    
C45   H53   S    
C33   H25   S    
C31   H20   S    
C41   H43   S    
C31   C32   S    
C8    C9    S    
C11   N1    A    
Cu2   N1    S    
C16   O8    A    
C23   C24   S    
C40   H39   S    
C20   C45   S    
C28   H11   S    
Cu1   O8    S    
C4    O6    A    
C29   H14   S    
C38   H32   S    
C25   H7    S    
C26   H4    S    
C39   H41   S    
C32   H21   S    
C38   H35   S    
C37   H36   S    
C43   H50   S    
C12   C46   S    
C10   C14   A    
C42   H47   S    
C18   O10   A    
C39   C40   S    
C2    C48   A    
C25   C26   S    
C35   H27   S    
C23   C44   S    
C17   O3    S    
C24   H54   S    
C15   O2    S    
C37   C38   S    
C8    O4    S    
C4    O7    A    
C33   H26   S    
C41   H44   S    
C31   H19   S    
C36   H31   S    
C23   C34   S    
C12   C20   S    
C34   C45   S    
C18   O11   A    
C6    C7    A    
C1    O1    A    
Cu1   O6    S    
C29   H15   S    
C41   O4    S    
C36   H30   S    
C33   O3    S    
C42   C43   S    
C16   O9    A    
C39   H42   S    
C44   C45   S    
C21   C46   T    
C27   O12   S    
C15   C17   S    
C30   O2    S    
C18   C22   S    
C37   H37   S    
C30   H17   S    
C13   N2    A    
C3    C5    A    
C19   C34   S    
C26   H6    S    
C3    H2    S    
Cu1   N2    S    
C11   H34   S    
C12   C24   S    
C35   H28   S    
Cu2   O7    S    
C7    C48   A    
C40   H38   S    
C19   C20   S    
C2    C3    A    
C12   C44   S    
C27   H9    S    
C1    O5    A    
C32   H24   S    
C4    C21   S    
C11   C13   A    
C5    C6    A    
C37   C44   S    
C23   C39   S    
Cu2   O5    S    
C33   C35   S    
C19   C24   S    
C22   C47   T    
C6    C16   S    
C29   H16   S    
C28   H13   S    
C14   N2    A    
Cu1   O10   S    
C9    C48   S    
Cu1   Cu2   S    
C25   H8    S    
C27   C28   S    
C14   C15   S    
C10   N1    A    
C34   C47   S    
C40   H40   S    
C30   H18   S    
C8    H12   S    
C32   H22   S    
