data_mof_unit_21071.cif
_audit_creation_date              2012-12-10T17:04:28-0500
_audit_creation_method            fapswitch 2.2
_symmetry_space_group_name_H-M    P1
_symmetry_Int_Tables_number       1
_space_group_crystal_system       triclinic
_cell_length_a                    14.906575
_cell_length_b                    10.74183
_cell_length_c                    10.046202
_cell_angle_alpha                 90.737024
_cell_angle_beta                  90.355258
_cell_angle_gamma                 90.2275
_cell_volume                      1608.45978494

loop_
_atom_site_label
_atom_site_type_symbol
_atom_type_description
_atom_site_fract_x
_atom_site_fract_y
_atom_site_fract_z
_atom_type_partial_charge
C1    C     C_R   0.498949 0.262430 0.498710 1.024011
C2    C     C_R   0.186780 0.386837 0.493914 0.233972
C3    C     C_R   0.231811 0.501087 0.502455 -0.228997
C4    C     C_R   0.327270 0.502248 0.500162 1.028105
C5    C     C_R   0.186884 0.613606 0.523538 0.362888
C6    C     C_2   0.473015 0.932015 0.390975 0.418603
C7    C     C_2   0.503934 0.869467 0.496774 -0.523765
C8    C     C_2   0.500488 0.063020 0.384284 0.379738
C9    C     C_2   0.483977 0.131318 0.494184 -0.438009
C10   C     C_2   0.567037 0.463163 0.924633 0.520602
C11   C     C_2   0.571066 0.495723 0.072161 -0.166899
C12   C     C_R   0.905759 0.613833 0.515216 -0.000131
C13   C     C_R   0.498489 0.737386 0.500099 1.008779
C14   C     C_R   0.672691 0.498640 0.500424 0.865653
C15   C     C_R   0.812580 0.611424 0.516222 -0.254149
C16   C     C_R   0.767684 0.498619 0.501847 -0.031971
C17   C     C_R   0.812693 0.386149 0.490407 -0.260929
C18   C     C_R   0.905608 0.385822 0.493199 0.155668
C19   C     C_R   0.952714 0.499931 0.504628 0.047431
C20   C     C_3   0.577787 0.031929 0.179618 0.079516
C21   C     C_3   0.664352 0.969905 0.227800 -0.362467
C22   C     C_3   0.698667 0.877992 0.122837 -0.946119
C23   C     C_R   0.951801 0.273396 0.485426 -0.249060
C24   C     C_3   0.682549 0.315976 0.940378 0.039230
C25   C     C_3   0.776593 0.364914 0.974709 -0.321749
C26   C     C_3   0.824703 0.278678 0.070792 -0.960619
C27   C     C_3   0.402541 0.345775 0.112798 0.238034
C28   C     C_3   0.319277 0.303553 0.034013 -0.489973
C29   C     C_3   0.329222 0.319864 0.884202 -0.708134
C30   C     C_3   0.244868 0.752835 0.675131 0.054787
C31   C     C_3   0.278640 0.886833 0.690447 -0.300551
C32   C     C_3   0.296851 0.921226 0.835988 -0.982022
C33   C     C_3   0.883151 0.881802 0.408512 0.060802
C34   C     C_R   0.044887 0.273012 0.486493 -0.136703
C35   C     C_3   0.962479 0.942228 0.337313 -0.386178
C36   C     C_3   0.931958 0.017727 0.218004 -0.953166
C37   C     C_3   0.357845 0.946540 0.230441 0.039952
C38   C     C_3   0.271414 0.946364 0.311165 -0.290206
C39   C     C_3   0.198970 0.023575 0.243944 -0.934248
C40   C     C_R   0.093119 0.385476 0.495570 0.072850
C41   C     C_R   0.046474 0.499855 0.506239 -0.069816
C42   C     C_R   0.093330 0.614006 0.520047 -0.058461
C43   C     C_R   0.046095 0.726352 0.529632 -0.274849
C44   C     C_R   0.952843 0.727338 0.524396 0.475763
Cl1   Cl    Cl    0.249467 0.246961 0.486683 -0.755777
H1    H     H_    0.774253 0.696564 0.526820 0.159665
H2    H     H_    0.594323 0.086014 0.089623 0.136526
H3    H     H_    0.527932 0.962509 0.144239 0.173198
H4    H     H_    0.716188 0.042537 0.247506 0.216061
H5    H     H_    0.652526 0.918991 0.321494 0.213286
H6    H     H_    0.647142 0.805416 0.100916 0.272824
H7    H     H_    0.759842 0.831148 0.159710 0.254914
H8    H     H_    0.715326 0.927520 0.029731 0.261794
H9    H     H_    0.689825 0.228520 0.881231 0.162190
H10   H     H_    0.645569 0.289020 0.031644 0.123929
H11   H     H_    0.816342 0.372269 0.881822 0.235810
H12   H     H_    0.540725 0.915197 0.577574 0.115528
H13   H     H_    0.772492 0.459247 0.020629 0.216242
H14   H     H_    0.787453 0.273574 0.166066 0.266877
H15   H     H_    0.893229 0.314976 0.092050 0.275235
H16   H     H_    0.830206 0.183813 0.026329 0.271950
H17   H     H_    0.387109 0.331211 0.218848 0.189488
H18   H     H_    0.460126 0.285604 0.083864 0.109146
H19   H     H_    0.307387 0.203310 0.053204 0.181301
H20   H     H_    0.259785 0.356388 0.069137 0.241542
H21   H     H_    0.329233 0.420226 0.859784 0.275148
H22   H     H_    0.271519 0.275120 0.831736 0.252953
H23   H     H_    0.453104 0.090827 0.581580 0.126561
H24   H     H_    0.392023 0.275720 0.848435 0.251944
H25   H     H_    0.294508 0.689315 0.721224 0.174111
H26   H     H_    0.180191 0.744771 0.729678 0.143603
H27   H     H_    0.341576 0.898168 0.633424 0.229191
H28   H     H_    0.227681 0.951405 0.649385 0.236968
H29   H     H_    0.234550 0.912294 0.895254 0.265271
H30   H     H_    0.320886 0.019074 0.843309 0.272360
H31   H     H_    0.349319 0.859621 0.877902 0.262082
H32   H     H_    0.829723 0.952383 0.423081 0.168005
H33   H     H_    0.853648 0.806272 0.344940 0.128555
H34   H     H_    0.458624 0.566111 0.893983 0.179020
H35   H     H_    0.998565 0.004201 0.408687 0.227231
H36   H     H_    0.009587 0.869105 0.302264 0.222426
H37   H     H_    0.898566 0.956404 0.142866 0.274846
H38   H     H_    0.990895 0.062595 0.171239 0.277471
H39   H     H_    0.884811 0.091551 0.250500 0.266733
H40   H     H_    0.342797 0.905394 0.130824 0.170299
H41   H     H_    0.380592 0.043280 0.211689 0.141873
H42   H     H_    0.246770 0.849242 0.320676 0.265176
H43   H     H_    0.285072 0.985224 0.412135 0.251357
H44   H     H_    0.222622 0.120362 0.229119 0.290649
H45   H     H_    0.636232 0.503524 0.119698 0.125895
H46   H     H_    0.139301 0.027151 0.308579 0.273209
H47   H     H_    0.179768 0.981376 0.146303 0.253390
H48   H     H_    0.775231 0.299602 0.480490 0.129570
H49   H     H_    0.915665 0.185867 0.479110 0.159524
H50   H     H_    0.078449 0.184223 0.480219 0.189458
H51   H     H_    0.081152 0.814581 0.539214 0.195159
N1    N     N_2   0.500970 0.501330 0.852150 -0.215359
N2    N     N_2   0.500990 0.501360 0.147810 0.065729
O1    O     O_R   0.499990 0.319060 0.613040 -0.612091
O2    O     O_3   0.637069 0.402722 0.859660 -0.606801
O3    O     O_3   0.421182 0.472792 0.089763 -0.566107
O4    O     O_3   0.234929 0.723829 0.538029 -0.670413
O5    O     O_3   0.908677 0.839973 0.536297 -0.650054
O6    O     O_3   0.423506 0.870459 0.290979 -0.611103
O7    O     O_R   0.500010 0.319100 0.386900 -0.596989
O8    O     O_R   0.367830 0.499950 0.613080 -0.650806
O9    O     O_R   0.367860 0.499990 0.386940 -0.595183
O10   O     O_R   0.499990 0.680900 0.613100 -0.647684
O11   O     O_R   0.500010 0.680940 0.386960 -0.549053
O12   O     O_R   0.632140 0.500010 0.613060 -0.559254
O13   O     O_R   0.632170 0.500050 0.386920 -0.647396
O14   O     O_3   0.543083 0.117141 0.274807 -0.652447
Zn1   Zn    Zn3+2 0.499980 0.499970 0.650990 0.966614
Zn2   Zn    Zn3+2 0.500020 0.500030 0.349010 1.019421

loop_
_geom_bond_atom_site_label_1
_geom_bond_atom_site_label_2
_ccdc_geom_bond_type
C5    C42   A    
C41   C42   A    
C35   C36   S    
C25   H11   S    
C1    O1    A    
C32   H30   S    
C21   H4    S    
C30   H26   S    
C35   H36   S    
C24   H10   S    
C11   N2    D    
C34   C40   A    
C37   H40   S    
C28   C29   S    
C26   H16   S    
C8    O14   S    
C32   H29   S    
C30   C31   S    
C33   H33   S    
N2    Zn2   S    
C24   O2    S    
C36   H38   S    
C24   H9    S    
C15   C16   A    
C35   H35   S    
C18   C19   A    
C13   O11   A    
C29   H22   S    
C36   H37   S    
C8    C9    D    
C6    O6    S    
C26   H14   S    
C20   O14   S    
C21   C22   S    
C13   O10   A    
C39   H46   S    
C21   H5    S    
C30   H25   S    
C44   O5    S    
C17   C18   A    
C22   H8    S    
C29   H24   S    
C2    Cl1   S    
C14   O13   A    
C4    O9    A    
O8    Zn1   S    
C18   C23   A    
O7    Zn2   S    
C1    C9    S    
C34   H50   S    
C16   C17   A    
C6    C8    S    
C25   C26   S    
C4    O8    A    
C27   O3    S    
C38   H43   S    
O10   Zn1   S    
C10   N1    D    
C43   C44   A    
O9    Zn2   S    
O1    Zn1   S    
C37   C38   S    
C27   H17   S    
C37   H41   S    
C31   C32   S    
C12   C15   A    
C23   C34   A    
C30   O4    S    
C43   H51   S    
C24   C25   S    
C10   O2    S    
O12   Zn1   S    
C20   H3    S    
C27   H18   S    
O11   Zn2   S    
C28   H19   S    
C40   C41   A    
C14   C16   S    
C17   H48   S    
C25   H13   S    
N1    Zn1   S    
C3    C4    S    
C39   H47   S    
C22   H7    S    
C14   O12   A    
C5    O4    S    
C31   H27   S    
C33   O5    S    
H34   N1    S    
C3    C5    A    
C32   H31   S    
C37   O6    S    
C6    C7    D    
N2    O3    S    
C23   H49   S    
C38   H42   S    
C2    C3    A    
C9    H23   S    
C12   C44   A    
C11   H45   S    
C33   H32   S    
C38   C39   S    
C36   H39   S    
C12   C19   A    
C33   C35   S    
C39   H44   S    
C28   H20   S    
O13   Zn2   S    
C20   H2    S    
C31   H28   S    
C10   C11   S    
C29   H21   S    
C2    C40   A    
C7    C13   S    
C20   C21   S    
C42   C43   A    
C27   C28   S    
C15   H1    S    
C26   H15   S    
C7    H12   S    
C19   C41   A    
C1    O7    A    
C22   H6    S    
