data_mof_unit_44733.cif
_audit_creation_date              2012-10-26T20:32:03-0400
_audit_creation_method            fapswitch 2.2
_symmetry_space_group_name_H-M    P1
_symmetry_Int_Tables_number       1
_space_group_crystal_system       triclinic
_cell_length_a                    10.640662
_cell_length_b                    10.845307
_cell_length_c                    9.555899
_cell_angle_alpha                 90.76852
_cell_angle_beta                  90.542412
_cell_angle_gamma                 90.598612
_cell_volume                      1102.55237532

loop_
_atom_site_label
_atom_site_type_symbol
_atom_type_description
_atom_site_fract_x
_atom_site_fract_y
_atom_site_fract_z
_atom_type_partial_charge
C1    C     C_R   0.496437 0.262486 0.499051 0.542372
C2    C     C_R   0.468154 0.939157 0.623043 0.021072
C3    C     C_3   0.540589 0.939292 0.757700 -0.279586
C4    C     C_R   0.259288 0.499589 0.499341 0.562837
C5    C     C_3   0.537656 0.078803 0.756044 -0.263574
C6    C     C_R   0.602395 0.541184 0.075279 0.106575
C7    C     C_R   0.408247 0.438809 0.073023 0.387426
C8    C     C_R   0.406336 0.443679 0.923016 -0.006346
C9    C     C_R   0.603750 0.538567 0.928291 0.134319
C10   C     C_3   0.666008 0.661807 0.924298 -0.276108
C11   C     C_3   0.661429 0.665918 0.083098 -0.276762
C12   C     C_3   0.958056 0.601038 0.432384 -0.130249
C13   C     C_R   0.497582 0.737891 0.500478 0.537775
C14   C     C_R   0.740624 0.500416 0.500613 0.545723
C15   C     C_3   0.041251 0.399956 0.567467 -0.160195
C16   C     C_3   0.955355 0.396425 0.435578 -0.115697
C17   C     C_3   0.877359 0.500534 0.501389 0.002976
C18   C     C_3   0.960786 0.503331 0.633495 -0.131034
C19   C     C_3   0.044011 0.602976 0.564356 -0.162854
C20   C     C_3   0.291378 0.259159 0.091354 -0.115318
C21   C     C_3   0.990861 0.512031 0.133930 -0.113510
C22   C     C_3   0.037154 0.496823 0.369125 0.308895
C23   C     C_3   0.122330 0.499537 0.498448 0.062781
C24   C     C_R   0.466656 0.066160 0.621453 0.018211
C25   C     C_R   0.481806 0.129658 0.496865 0.007465
C26   C     C_R   0.479008 0.062717 0.370014 -0.167876
C27   C     C_R   0.479855 0.934104 0.371261 -0.164626
C28   C     C_R   0.484376 0.871254 0.499350 0.008015
Cu1   Cu    Cu3+1 0.499990 0.499980 0.640670 0.924249
Cu2   Cu    Cu3+1 0.500010 0.500020 0.359330 1.006302
H1    H     H_    0.916303 0.312918 0.381806 0.104645
H2    H     H_    0.078374 0.318572 0.623004 0.107801
H3    H     H_    0.926342 0.506068 0.742803 0.116846
H4    H     H_    0.083465 0.686613 0.617496 0.114414
H5    H     H_    0.920827 0.682639 0.377360 0.095646
H6    H     H_    0.483435 0.108967 0.270486 0.130636
H7    H     H_    0.483567 0.884887 0.272159 0.127643
H8    H     H_    0.484529 0.900477 0.844562 0.129978
H9    H     H_    0.244867 0.203956 0.173317 0.148219
H10   H     H_    0.379692 0.210903 0.063010 0.069351
H11   H     H_    0.225937 0.261889 0.000267 0.097132
H12   H     H_    0.637089 0.902599 0.745106 0.129426
H13   H     H_    0.969187 0.611895 0.132176 0.103734
H14   H     H_    0.904397 0.456288 0.153254 0.109297
H15   H     H_    0.025527 0.485760 0.028658 0.136842
H16   H     H_    0.479474 0.119373 0.840588 0.126630
H17   H     H_    0.632038 0.122093 0.743511 0.142496
H18   H     H_    0.328997 0.402863 0.864140 0.120007
H19   H     H_    0.763007 0.657022 0.882505 0.115674
H20   H     H_    0.604743 0.729955 0.874814 0.150225
H21   H     H_    0.755486 0.665064 0.133954 0.113984
H22   H     H_    0.596720 0.737102 0.124312 0.142204
N1    N     N_R   0.500800 0.500930 0.147930 -0.223508
N2    N     N_R   0.500800 0.500890 0.852020 -0.260574
O1    O     O_R   0.500000 0.319640 0.618810 -0.510347
O2    O     O_3   0.086497 0.489710 0.232815 -0.508969
O3    O     O_R   0.500010 0.319680 0.381230 -0.489226
O4    O     O_R   0.316850 0.499950 0.618770 -0.529849
O5    O     O_R   0.316860 0.499990 0.381190 -0.402266
O6    O     O_R   0.499990 0.680320 0.618770 -0.501565
O7    O     O_R   0.500000 0.680360 0.381190 -0.516068
O8    O     O_R   0.683140 0.500010 0.618810 -0.501530
O9    O     O_R   0.683150 0.500050 0.381230 -0.515695
O10   O     O_3   0.313927 0.379126 0.145639 -0.486491

loop_
_geom_bond_atom_site_label_1
_geom_bond_atom_site_label_2
_ccdc_geom_bond_type
C12   C17   S    
C20   O10   S    
C15   C18   S    
C19   C23   S    
C8    H18   S    
C13   C28   S    
Cu1   Cu2   S    
C11   H22   S    
C1    O3    A    
C21   O2    S    
C21   H14   S    
C2    C28   A    
C9    C10   S    
Cu1   O6    S    
Cu2   O5    S    
C6    C9    A    
C15   C23   S    
C2    C3    S    
C1    O1    A    
C15   H2    S    
C3    H12   S    
C13   O6    A    
C21   H13   S    
Cu2   O9    S    
C24   C25   A    
C16   H1    S    
C1    C25   S    
C5    H17   S    
C14   C17   S    
C26   C27   A    
C5    C24   S    
C27   H7    S    
C14   O9    A    
C4    O5    A    
C26   H6    S    
Cu2   N1    S    
C20   H11   S    
C21   H15   S    
C10   C11   S    
C6    C11   S    
C2    C24   A    
C20   H10   S    
C18   H3    S    
C7    O10   S    
C11   H21   S    
Cu1   N2    S    
C7    N1    A    
C6    N1    A    
C4    O4    A    
C15   C16   S    
C14   O8    A    
Cu2   O3    S    
C12   C22   S    
C7    C8    A    
C13   O7    A    
Cu1   O4    S    
C12   C19   S    
C17   C18   S    
C18   C19   S    
C5    H16   S    
Cu2   O7    S    
C8    N2    A    
C27   C28   A    
C20   H9    S    
C4    C23   S    
Cu1   O8    S    
C22   O2    S    
C9    N2    A    
Cu1   O1    S    
C3    C5    S    
C25   C26   A    
C22   C23   S    
C10   H19   S    
C3    H8    S    
C16   C22   S    
C16   C17   S    
C12   H5    S    
C19   H4    S    
C10   H20   S    
