data_mof_unit_24054.cif
_audit_creation_date              2012-12-10T18:12:35-0500
_audit_creation_method            fapswitch 2.2
_symmetry_space_group_name_H-M    P1
_symmetry_Int_Tables_number       1
_space_group_crystal_system       triclinic
_cell_length_a                    12.618045
_cell_length_b                    13.081539
_cell_length_c                    15.746541
_cell_angle_alpha                 91.312287
_cell_angle_beta                  102.816324
_cell_angle_gamma                 82.245881
_cell_volume                      2511.1822367

loop_
_atom_site_label
_atom_site_type_symbol
_atom_type_description
_atom_site_fract_x
_atom_site_fract_y
_atom_site_fract_z
_atom_type_partial_charge
C1    C     C_R   0.438626 0.691468 0.492551 0.895184
C2    C     C_3   0.502290 0.501048 0.917589 -0.024912
C3    C     C_3   0.504604 0.398147 0.025525 -0.233852
C4    C     C_3   0.498721 0.494119 0.083287 0.168434
C5    C     C_3   0.592387 0.442838 0.988340 -0.039565
C6    C     C_3   0.588028 0.537724 0.048349 -0.217655
C7    C     C_1   0.503685 0.502685 0.826733 0.156694
C8    C     C_1   0.497341 0.493643 0.173778 0.016063
C9    C     C_R   0.698222 0.067461 0.631299 -0.176085
C10   C     C_R   0.596448 0.199503 0.529224 -0.055176
C11   C     C_R   0.298740 0.835570 0.430066 -0.237758
C12   C     C_R   0.501313 0.500038 0.661954 0.927410
C13   C     C_R   0.266544 0.940810 0.413517 0.014356
C14   C     C_R   0.340784 0.009685 0.447795 -0.224069
C15   C     C_R   0.442381 0.974498 0.505016 0.079223
C16   C     C_R   0.459716 0.872868 0.537258 0.001517
C17   C     C_R   0.526110 0.037148 0.532913 0.100769
C18   C     C_R   0.616595 0.003684 0.601909 0.153130
C19   C     C_R   0.620315 0.910459 0.644412 -0.271617
C20   C     C_R   0.539048 0.846773 0.615650 -0.145539
C21   C     C_R   0.522557 0.132140 0.493506 -0.231953
C22   C     C_R   0.687094 0.166225 0.596078 -0.178691
C23   C     C_R   0.560971 0.308435 0.510269 0.848239
C24   C     C_R   0.397106 0.801190 0.489130 -0.150436
C25   C     C_R   0.081912 0.367441 0.359010 -0.113741
C26   C     C_R   0.800434 0.630691 0.602499 0.043282
C27   C     C_R   0.905042 0.659124 0.624112 -0.224135
C28   C     C_R   0.986034 0.609487 0.584810 -0.176248
C29   C     C_R   0.962334 0.530666 0.523267 0.028297
C30   C     C_R   0.854261 0.504568 0.503791 0.230917
C31   C     C_R   0.040580 0.478885 0.479016 -0.019182
C32   C     C_R   0.007077 0.409567 0.410003 0.092232
C33   C     C_R   0.901285 0.381852 0.395981 -0.207332
C34   C     C_R   0.499059 0.498872 0.338190 0.894229
C35   C     C_R   0.827216 0.427467 0.443025 -0.200838
C36   C     C_R   0.151476 0.493347 0.500739 -0.030951
C37   C     C_R   0.190903 0.384540 0.386015 -0.023983
C38   C     C_3   0.407048 0.552940 0.014020 -0.232199
C39   C     C_3   0.496414 0.595121 0.977217 -0.029773
C40   C     C_1   0.503463 0.501856 0.751361 0.006648
C41   C     C_1   0.497374 0.495594 0.249028 -0.155268
C42   C     C_3   0.414405 0.457830 0.954553 -0.031295
H1    H     H_    0.316363 0.090344 0.431359 0.182449
H2    H     H_    0.065019 0.636356 0.602185 0.150747
H3    H     H_    0.683683 0.889822 0.702455 0.177509
N1    N     N_R   0.222180 0.444680 0.455580 -0.117832
N2    N     N_R   0.776980 0.554790 0.543960 -0.136509
O1    O     O_R   0.366730 0.627160 0.478790 -0.610106
O2    O     O_R   0.544830 0.662520 0.507160 -0.614406
O3    O     O_R   0.410960 0.482330 0.609040 -0.605316
O4    O     O_R   0.589060 0.517690 0.637410 -0.594934
O5    O     O_R   0.455170 0.337480 0.492840 -0.607783
O6    O     O_R   0.633270 0.372840 0.521210 -0.643358
O7    O     O_R   0.410940 0.482310 0.362590 -0.613082
O8    O     O_R   0.589040 0.517670 0.390960 -0.623277
Zn1   Zn    Zn3+2 0.381080 0.476390 0.481050 0.972144
Zn2   Zn    Zn3+2 0.618920 0.523610 0.518950 0.965705
C43   C     C_2   0.491431 0.706388 0.954550 0.939547
O9    O     O_2   0.488335 0.771719 0.010991 -0.607318
O10   O     O_R   0.490007 0.735172 0.869565 -0.740110
H4    H     H_    0.486404 0.812519 0.862678 0.355502
H5    H     H_    0.458949 0.158389 0.437471 0.152106
H6    H     H_    0.247514 0.780273 0.396741 0.198973
C44   C     C_2   0.156982 0.978402 0.359114 0.938273
O11   O     O_2   0.101475 0.917894 0.315698 -0.613044
O12   O     O_R   0.115449 0.082949 0.359206 -0.796225
H7    H     H_    0.038570 0.098380 0.321771 0.354944
C45   C     C_2   0.528303 0.764215 0.675863 0.944555
O13   O     O_2   0.609576 0.722064 0.726157 -0.583039
O14   O     O_R   0.425851 0.737728 0.680473 -0.777375
H8    H     H_    0.361653 0.786881 0.647820 0.303213
H9    H     H_    0.251262 0.353733 0.349610 0.178743
H10   H     H_    0.875253 0.322148 0.350640 0.195093
C46   C     C_2   0.049952 0.313648 0.274558 0.923716
O15   O     O_2   0.957061 0.331709 0.229655 -0.587701
O16   O     O_R   0.128947 0.246915 0.243447 -0.781169
H11   H     H_    0.098271 0.216351 0.184828 0.368231
H12   H     H_    0.184618 0.541879 0.553359 0.143492
H13   H     H_    0.737145 0.669895 0.631756 0.177253
H14   H     H_    0.330669 0.597925 0.025997 0.173716
H15   H     H_    0.922986 0.720218 0.670496 0.164332
H16   H     H_    0.748588 0.401357 0.429860 0.209013
H17   H     H_    0.659553 0.570312 0.088427 0.179056
C47   C     C_2   0.696970 0.381009 0.976422 0.941998
O17   O     O_2   0.761399 0.339175 0.039489 -0.567630
O18   O     O_R   0.720472 0.371387 0.893768 -0.810496
H18   H     H_    0.793414 0.327750 0.894355 0.354300
H19   H     H_    0.507859 0.317260 0.046885 0.173634
C48   C     C_2   0.316121 0.413201 0.904102 0.930679
O19   O     O_2   0.253239 0.381406 0.942965 -0.597487
O20   O     O_R   0.296545 0.408274 0.813329 -0.811952
H20   H     H_    0.227534 0.376858 0.786976 0.350662
H21   H     H_    0.744763 0.218411 0.624712 0.167075
H22   H     H_    0.766986 0.043286 0.684700 0.149119

loop_
_geom_bond_atom_site_label_1
_geom_bond_atom_site_label_2
_ccdc_geom_bond_type
C3    C42   S    
C19   C20   A    
C4    C8    S    
C10   C22   A    
C26   C27   A    
C46   O16   S    
C30   C35   A    
C28   C29   A    
C47   O18   S    
C38   C42   S    
C11   H6    S    
C38   C39   S    
C9    C22   A    
C43   O10   S    
C15   C16   A    
C11   C24   A    
O2    Zn2   S    
C15   C17   A    
C25   C46   S    
C25   C37   A    
C47   O17   D    
C2    C7    S    
C45   O13   D    
C7    C40   T    
C36   N1    A    
O14   H8    S    
O4    Zn2   S    
C48   O20   S    
C25   C32   A    
O12   H7    S    
C34   O8    A    
C16   C24   A    
C13   C14   A    
C34   C41   S    
C2    C39   S    
C35   H16   S    
C23   O6    A    
C10   C21   A    
O7    Zn1   S    
C46   O15   D    
C30   N2    A    
C27   H15   S    
C8    C41   T    
C4    C6    S    
O20   H20   S    
C5    C47   S    
O6    Zn2   S    
O18   H18   S    
C18   C19   A    
C43   O9    D    
C39   C43   S    
C28   H2    S    
C17   C21   A    
O10   H4    S    
C44   O12   S    
C12   C40   S    
C29   C30   A    
N2    Zn2   S    
C31   C32   A    
C14   C15   A    
C16   C20   A    
C17   C18   A    
O16   H11   S    
C21   H5    S    
C26   N2    A    
C33   H10   S    
C4    C38   S    
C34   O7    A    
O8    Zn2   S    
C22   H21   S    
C2    C5    S    
C3    C4    S    
C12   O4    A    
O1    Zn1   S    
C6    H17   S    
C3    H19   S    
C31   C36   A    
C20   C45   S    
C3    C5    S    
C12   O3    A    
C19   H3    S    
C1    O1    A    
C10   C23   S    
C26   H13   S    
C42   C48   S    
C32   C33   A    
C37   N1    A    
C29   C31   A    
C36   H12   S    
C44   O11   D    
C11   C13   A    
C23   O5    A    
C5    C6    S    
C13   C44   S    
C38   H14   S    
C2    C42   S    
C33   C35   A    
O3    Zn1   S    
C9    C18   A    
C1    C24   S    
C45   O14   S    
C37   H9    S    
N1    Zn1   S    
C27   C28   A    
C6    C39   S    
C48   O19   D    
C1    O2    A    
C9    H22   S    
O5    Zn1   S    
C14   H1    S    
