data_mof_unit_30101.cif
_audit_creation_date              2012-12-10T17:44:37-0500
_audit_creation_method            fapswitch 2.2
_symmetry_space_group_name_H-M    P1
_symmetry_Int_Tables_number       1
_space_group_crystal_system       triclinic
_cell_length_a                    9.927214
_cell_length_b                    10.726783
_cell_length_c                    15.662337
_cell_angle_alpha                 93.495337
_cell_angle_beta                  68.23368
_cell_angle_gamma                 90.068261
_cell_volume                      1545.63221269

loop_
_atom_site_label
_atom_site_type_symbol
_atom_type_description
_atom_site_fract_x
_atom_site_fract_y
_atom_site_fract_z
_atom_type_partial_charge
C1    C     C_R   0.504855 0.738532 0.490690 0.883917
C2    C     C_R   0.730845 0.543476 0.036722 0.160102
C3    C     C_R   0.583733 0.524498 0.090113 0.028121
C4    C     C_R   0.410911 0.485514 0.673991 0.905756
C5    C     C_R   0.833333 0.548662 0.078879 -0.196230
C6    C     C_R   0.789559 0.529757 0.172668 -0.195551
C7    C     C_R   0.538461 0.543593 0.185659 -0.076827
C8    C     C_R   0.286326 0.879254 0.440972 -0.115150
C9    C     C_R   0.154848 0.939352 0.454905 -0.143263
C10   C     C_R   0.120934 0.054229 0.504620 -0.178744
C11   C     C_R   0.224539 0.114299 0.531794 -0.155807
C12   C     C_R   0.428192 0.470074 0.908128 -0.026019
C13   C     C_R   0.365868 0.060805 0.507145 0.101924
C14   C     C_R   0.387588 0.935405 0.474772 0.077600
C15   C     C_R   0.508674 0.870839 0.479499 -0.129177
C16   C     C_R   0.495200 0.260446 0.506326 0.854613
C17   C     C_R   0.623921 0.935789 0.490022 -0.135871
C18   C     C_R   0.615209 0.063221 0.503223 -0.186391
C19   C     C_R   0.487837 0.126853 0.511382 -0.118618
C20   C     C_R   0.791559 0.682114 0.605915 -0.183910
C21   C     C_R   0.828731 0.789338 0.644501 -0.097807
C22   C     C_R   0.969090 0.799397 0.639807 -0.395697
C23   C     C_R   0.284997 0.437553 0.962129 0.091552
C24   C     C_R   0.068274 0.695890 0.609810 0.540889
C25   C     C_R   0.040026 0.594336 0.553233 0.071299
C26   C     C_R   0.895587 0.591676 0.552216 0.105852
C27   C     C_R   0.957951 0.412261 0.450172 -0.142327
C28   C     C_R   0.589590 0.507426 0.325345 0.856241
C29   C     C_R   0.100389 0.411716 0.450705 -0.052108
C30   C     C_R   0.361839 0.459902 0.772623 -0.281557
C31   C     C_R   0.641005 0.526304 0.226760 -0.142401
C32   C     C_R   0.183906 0.411944 0.920898 -0.271412
C33   C     C_R   0.218001 0.428832 0.827439 -0.074427
C34   C     C_R   0.527968 0.503988 0.951062 0.067842
C35   C     C_R   0.468949 0.459053 0.812322 0.395072
C36   C     C_2   0.718883 0.887952 0.696162 0.919872
C37   C     C_2   0.408155 0.626492 0.233138 0.896782
C38   C     C_3   0.187583 0.788846 0.703858 0.097937
C39   C     C_3   0.301861 0.765687 0.744066 -0.738583
C40   C     C_2   0.105377 0.396385 0.789772 0.910976
C41   C     C_3   0.646710 0.308077 0.751852 0.134790
C42   C     C_3   0.786694 0.278679 0.669637 -0.820928
C43   C     C_R   0.484926 0.493454 0.046865 0.054905
C44   C     C_R   0.347468 0.445448 0.096615 -0.197365
C45   C     C_R   0.246910 0.423033 0.055761 -0.188549
C46   C     C_R   0.667685 0.551189 0.902706 -0.139681
C47   C     C_R   0.770346 0.562814 0.943655 -0.219847
H1    H     H_    0.140439 0.390656 0.097046 0.147872
H2    H     H_    0.679510 0.672298 0.620114 0.240731
H3    H     H_    0.994758 0.886294 0.668219 0.191979
H4    H     H_    0.177583 0.339562 0.410163 0.156905
H5    H     H_    0.870539 0.524156 0.203430 0.168546
H6    H     H_    0.879081 0.591127 0.903455 0.179629
H7    H     H_    0.076917 0.380401 0.962075 0.173045
H8    H     H_    0.317503 0.421774 0.167140 0.189824
H9    H     H_    0.700693 0.580221 0.833333 0.217596
H10   H     H_    0.661986 0.033647 0.791194 0.333836
H11   H     H_    0.197344 0.645025 0.317232 0.325153
H12   H     H_    0.946570 0.563810 0.039250 0.144688
H13   H     H_    0.083233 0.803709 0.763832 0.158630
H14   H     H_    0.218712 0.874545 0.665039 0.149457
H15   H     H_    0.406306 0.737033 0.688613 0.267493
H16   H     H_    0.317682 0.852918 0.780836 0.237407
H17   H     H_    0.264841 0.693640 0.794938 0.226773
H18   H     H_    0.963836 0.267163 0.778613 0.340830
H19   H     H_    0.560377 0.248388 0.742469 0.136368
H20   H     H_    0.662846 0.284331 0.815611 0.151898
H21   H     H_    0.825298 0.182154 0.670940 0.219621
H22   H     H_    0.767364 0.286591 0.604925 0.265234
H23   H     H_    0.720294 0.888228 0.489815 0.168774
H24   H     H_    0.871928 0.345148 0.670755 0.271590
H25   H     H_    0.308219 0.789743 0.402689 0.177555
H26   H     H_    0.076899 0.894278 0.430616 0.138225
H27   H     H_    0.015296 0.097712 0.520815 0.139777
H28   H     H_    0.190852 0.200883 0.573581 0.176465
H29   H     H_    0.708780 0.111569 0.507219 0.155945
H30   H     H_    0.928303 0.340290 0.409360 0.143323
N1    N     N_R   0.856800 0.501200 0.500850 -0.103362
N2    N     N_R   0.142390 0.501280 0.500880 -0.096586
O1    O     O_R   0.385310 0.683220 0.500000 -0.588862
O2    O     O_R   0.746414 0.973137 0.758650 -0.816540
O3    O     O_2   0.415289 0.737227 0.217889 -0.629837
O4    O     O_R   0.277621 0.578940 0.291729 -0.813052
O5    O     O_3   0.179230 0.686266 0.643849 -0.528696
O6    O     O_2   0.060494 0.473308 0.751767 -0.617353
O7    O     O_R   0.043663 0.278542 0.803777 -0.809410
O8    O     O_3   0.613290 0.436841 0.756718 -0.608430
O9    O     O_R   0.614640 0.683250 0.500010 -0.648708
O10   O     O_R   0.319840 0.499980 0.632240 -0.517042
O11   O     O_R   0.549160 0.500000 0.632250 -0.581339
O12   O     O_R   0.385360 0.316750 0.499990 -0.637538
O13   O     O_R   0.614690 0.316780 0.500000 -0.632447
O14   O     O_R   0.450840 0.500000 0.367750 -0.583921
O15   O     O_R   0.680160 0.500020 0.367760 -0.615028
O16   O     O_2   0.603549 0.894316 0.685290 -0.678188
Zn1   Zn    Zn3+2 0.346880 0.499980 0.499990 1.010574
Zn2   Zn    Zn3+2 0.653120 0.500020 0.500010 0.948799

loop_
_geom_bond_atom_site_label_1
_geom_bond_atom_site_label_2
_ccdc_geom_bond_type
C23   C45   A    
C27   C29   A    
C11   C13   A    
C41   C42   S    
C44   H8    S    
C27   N1    A    
H18   O7    S    
C41   H20   S    
C21   C36   S    
C39   H17   S    
C34   C46   A    
C12   C23   A    
C3    C43   A    
C26   N1    A    
C30   C35   A    
C3    C7    A    
C38   C39   S    
C28   O15   A    
C18   C19   A    
C40   O7    S    
O12   Zn1   S    
C35   O8    S    
C8    C9    A    
C8    C14   A    
C1    C15   S    
O1    Zn1   S    
C9    C10   A    
O11   Zn2   S    
O9    Zn2   S    
C22   H3    S    
C38   H14   S    
C1    O9    A    
C6    C31   A    
C17   H23   S    
C13   C14   A    
C42   H21   S    
C9    H26   S    
C32   H7    S    
O13   Zn2   S    
C4    O11   A    
C41   O8    S    
C8    H25   S    
C33   C40   S    
C7    C31   A    
C5    H12   S    
C24   C25   A    
C13   C19   A    
O15   Zn2   S    
C25   C26   A    
C42   H22   S    
C28   O14   A    
C40   O6    D    
C43   C44   A    
C20   H2    S    
C29   N2    A    
C36   O2    S    
N1    Zn2   S    
C17   C18   A    
C7    C37   S    
C12   C35   A    
C38   H13   S    
C16   O13   A    
O14   Zn1   S    
C22   C24   A    
C37   O3    D    
C2    C5    A    
C12   C34   A    
C44   C45   A    
C4    O10   A    
C29   H4    S    
C45   H1    S    
C15   C17   A    
C39   H15   S    
C46   C47   A    
C18   H29   S    
C30   C33   A    
C38   O5    S    
C25   N2    A    
C28   C31   S    
C34   C43   A    
C27   H30   S    
C41   H19   S    
C2    C47   A    
C39   H16   S    
C47   H6    S    
C23   C32   A    
O10   Zn1   S    
C2    C3    A    
C24   O5    S    
N2    Zn1   S    
C11   H28   S    
H11   O4    S    
C32   C33   A    
C10   H27   S    
C36   O16   D    
C5    C6    A    
C20   C26   A    
C16   C19   S    
C42   H24   S    
H10   O2    S    
C10   C11   A    
C20   C21   A    
C16   O12   A    
C46   H9    S    
C1    O1    A    
C14   C15   A    
C37   O4    S    
C6    H5    S    
C21   C22   A    
C4    C30   S    
