data_mof_unit_42200.cif
_audit_creation_date              2012-12-11T18:44:54-0500
_audit_creation_method            fapswitch 2.2
_symmetry_space_group_name_H-M    P1
_symmetry_Int_Tables_number       1
_space_group_crystal_system       triclinic
_cell_length_a                    8.21039
_cell_length_b                    14.316046
_cell_length_c                    18.743786
_cell_angle_alpha                 96.432305
_cell_angle_beta                  91.164799
_cell_angle_gamma                 91.285925
_cell_volume                      2188.15159551

loop_
_atom_site_label
_atom_site_type_symbol
_atom_type_description
_atom_site_fract_x
_atom_site_fract_y
_atom_site_fract_z
_atom_type_partial_charge
Ba1   Ba    Ba6+2 0.843240 0.541620 0.463500 1.686612
Ba2   Ba    Ba6+2 0.346570 0.458460 0.536510 1.655351
C1    C     C_3   0.428137 0.795246 0.180809 -0.352652
C2    C     C_3   0.472450 0.752602 0.249707 0.287381
C3    C     C_3   0.507619 0.298308 0.322571 0.265157
C4    C     C_3   0.500019 0.264186 0.242400 -0.223451
C5    C     C_3   0.117383 0.277622 0.744353 0.316544
C6    C     C_3   0.130331 0.254291 0.821746 -0.231281
C7    C     C_3   0.600088 0.217541 0.705657 0.358430
C8    C     C_3   0.577694 0.121414 0.731826 -0.339432
C9    C     C_R   0.007006 0.447179 0.049449 0.013636
C10   C     C_R   0.913017 0.403936 0.099213 0.032901
C11   C     C_R   0.758068 0.365921 0.078124 -0.075463
C12   C     C_3   0.953126 0.802941 0.271672 0.329526
C13   C     C_R   0.697114 0.370380 0.008398 -0.047610
C14   C     C_R   0.790093 0.412654 0.958190 0.056478
C15   C     C_R   0.945196 0.451857 0.978750 0.014700
C16   C     C_R   0.731142 0.414552 0.887598 -0.064345
C17   C     C_R   0.825678 0.454038 0.835970 -0.040515
C18   C     C_R   0.978647 0.497909 0.857294 -0.005339
C19   C     C_R   0.038296 0.495591 0.928797 -0.014006
C20   C     C_R   0.774492 0.448489 0.763102 -0.007086
C21   C     C_R   0.875428 0.485231 0.713352 -0.274789
C22   C     C_R   0.017860 0.537807 0.734051 -0.002089
C23   C     C_3   0.908679 0.904055 0.262476 -0.406858
C24   C     C_R   0.073314 0.542593 0.807178 -0.048994
C25   C     C_R   0.162990 0.484899 0.070125 0.014855
C26   C     C_R   0.222778 0.483050 0.141569 0.050437
C27   C     C_R   0.123641 0.444954 0.193082 -0.023784
C28   C     C_R   0.973375 0.400761 0.169596 -0.049457
C29   C     C_R   0.222081 0.587558 0.831639 -0.050585
C30   C     C_R   0.285129 0.580500 0.901051 0.043706
C31   C     C_R   0.193417 0.534260 0.949830 0.007061
C32   C     C_R   0.256997 0.527306 0.019907 0.024618
C33   C     C_R   0.440451 0.617876 0.922203 -0.081841
C34   C     C_3   0.064087 0.771238 0.691964 0.222845
C35   C     C_R   0.505694 0.607987 0.990306 -0.099306
C36   C     C_R   0.414443 0.563507 0.039775 0.028343
C37   C     C_R   0.379875 0.521721 0.161802 -0.013607
C38   C     C_R   0.476689 0.557568 0.109333 -0.121610
C39   C     C_R   0.431860 0.527386 0.234716 -0.014269
C40   C     C_R   0.328915 0.496133 0.285542 -0.279178
C41   C     C_R   0.177296 0.454583 0.266411 0.061148
C42   C     C_R   0.692120 0.937954 0.545211 -0.039211
C43   C     C_R   0.499125 0.804597 0.508891 0.089785
C44   C     C_R   0.348004 0.772486 0.480357 -0.232451
C45   C     C_3   0.097509 0.791822 0.772491 -0.405733
C46   C     C_R   0.242114 0.833447 0.452377 0.016526
C47   C     C_R   0.287681 0.928132 0.451392 -0.151533
C48   C     C_R   0.440566 0.961932 0.479971 0.031850
C49   C     C_R   0.544991 0.901088 0.512155 0.024136
C50   C     C_R   0.639227 0.091973 0.507687 -0.017695
C51   C     C_R   0.742727 0.032377 0.542643 -0.052748
C52   C     C_R   0.685468 0.187476 0.507116 0.023148
C53   C     C_R   0.825532 0.223735 0.544656 -0.305752
C54   C     C_R   0.933622 0.165413 0.575738 0.009289
C55   C     C_R   0.894562 0.068291 0.574153 -0.102265
C56   C     C_3   0.012934 0.251879 0.392941 0.302019
C57   C     C_R   0.491085 0.054927 0.475334 -0.012167
C58   C     C_3   0.997832 0.145154 0.379378 -0.403092
C59   C     C_3   0.658143 0.663681 0.674293 0.339972
C60   C     C_3   0.652116 0.688982 0.755109 -0.406054
H1    H     H_    0.047167 0.734318 0.800797 0.071592
H2    H     H_    0.230464 0.801079 0.784035 0.131954
H3    H     H_    0.036261 0.857420 0.793254 0.111396
H4    H     H_    0.897654 0.280688 0.413686 0.011578
H5    H     H_    0.111888 0.270908 0.433198 0.077556
H6    H     H_    0.891123 0.124369 0.343272 0.144390
H7    H     H_    0.109856 0.116366 0.353921 0.116299
H8    H     H_    0.774409 0.631631 0.658661 -0.057886
H9    H     H_    0.529410 0.841368 0.165681 0.114278
H10   H     H_    0.749142 0.741536 0.773938 0.105716
H11   H     H_    0.532364 0.719487 0.769281 0.119842
H12   H     H_    0.368905 0.706342 0.262177 0.031492
H13   H     H_    0.316457 0.837424 0.187995 0.117723
H14   H     H_    0.382871 0.315108 0.341029 -0.010690
H15   H     H_    0.456814 0.321428 0.212013 -0.044574
H16   H     H_    0.624428 0.245614 0.224126 0.117831
H17   H     H_    0.189509 0.343149 0.740213 0.093685
H18   H     H_    0.987936 0.290115 0.730889 -0.082028
H19   H     H_    0.255747 0.231847 0.833573 0.103137
H20   H     H_    0.732672 0.232157 0.701724 -0.057597
H21   H     H_    0.445988 0.103194 0.734562 0.165377
H22   H     H_    0.853108 0.768719 0.297837 0.142345
H23   H     H_    0.635078 0.121617 0.785987 0.147205
H24   H     H_    0.683292 0.333192 0.115722 0.063761
H25   H     H_    0.577091 0.340438 0.993675 0.073705
H26   H     H_    0.837880 0.476290 0.657299 0.065294
H27   H     H_    0.612245 0.383272 0.873326 0.106760
H28   H     H_    0.899736 0.365096 0.205718 0.091492
H29   H     H_    0.293337 0.626003 0.796491 0.091553
H30   H     H_    0.512361 0.654441 0.886036 0.066381
H31   H     H_    0.626610 0.636788 0.004759 0.076105
H32   H     H_    0.598752 0.584831 0.122683 0.108187
H33   H     H_    0.368221 0.504103 0.341418 0.060013
H34   H     H_    0.313542 0.698782 0.478478 0.069908
H35   H     H_    0.207289 0.973948 0.425734 0.060705
H36   H     H_    0.857273 0.297548 0.544802 0.060528
H37   H     H_    0.766176 0.893866 0.574751 0.065871
H38   H     H_    0.411385 0.097868 0.447031 0.092850
H39   H     H_    0.793303 0.905299 0.230669 0.097641
H40   H     H_    0.891439 0.944136 0.315877 0.159382
H41   H     H_    0.077174 0.838696 0.668799 0.093359
H42   H     H_    0.938872 0.747436 0.679608 0.024731
O1    O     O_2   0.887710 0.436190 0.327560 -0.469010
O2    O     O_3   0.637952 0.745635 0.641198 -0.643203
O3    O     O_3   0.099617 0.803967 0.311726 -0.643303
O4    O     O_2   0.301980 0.563840 0.672490 -0.462031
O5    O     O_3   0.054330 0.556590 0.583490 -0.466536
O6    O     O_3   0.555270 0.390630 0.635330 -0.483656
O7    O     O_3   0.178152 0.710681 0.658432 -0.601368
O8    O     O_3   0.637720 0.384870 0.467990 -0.475755
O9    O     O_3   0.145220 0.339960 0.601250 -0.493195
O10   O     O_2   0.273180 0.173450 0.566635 -0.487799
O11   O     O_3   0.180867 0.203564 0.698506 -0.559002
O12   O     O_3   0.135370 0.443490 0.416520 -0.492843
O13   O     O_3   0.551980 0.615210 0.532020 -0.491057
O14   O     O_2   0.394410 0.269100 0.474240 -0.477554
O15   O     O_3   0.573799 0.227888 0.359934 -0.639675
O16   O     O_2   0.435591 0.458651 0.759030 -0.502887
O17   O     O_3   0.527988 0.285620 0.754074 -0.595317
O18   O     O_3   0.634420 0.609440 0.364670 -0.450487
O19   O     O_2   0.773267 0.549034 0.241643 -0.479010
O20   O     O_3   0.046942 0.286405 0.327956 -0.651967
O21   O     O_3   0.621394 0.705732 0.239425 -0.634279
O22   O     O_2   0.795290 0.730930 0.525800 -0.472311
O23   O     O_3   0.044470 0.660110 0.398750 -0.456561
O24   O     O_2   0.903698 0.829307 0.424176 -0.472488
P1    P     P_3+3 0.061800 0.409390 0.339760 0.973429
P2    P     P_3+3 0.622760 0.718740 0.547830 1.009273
P3    P     P_3+3 0.065436 0.782395 0.400791 0.971372
P4    P     P_3+3 0.127890 0.590690 0.660240 0.992425
P5    P     P_3+3 0.132057 0.219736 0.609533 0.997633
P6    P     P_3+3 0.615311 0.594588 0.270605 0.963280
P7    P     P_3+3 0.577119 0.266031 0.451960 0.938358
P8    P     P_3+3 0.574925 0.396878 0.728530 0.927856
C61   C     C_2   0.490523 0.830954 0.309774 0.455637
H43   H     H_    0.402497 0.886536 0.314662 0.006857
O25   O     O_2   0.602507 0.833259 0.353571 -0.584237
H44   H     H_    0.982082 0.114307 0.430422 0.055615
H45   H     H_    0.562680 0.610567 0.658196 0.113929
H46   H     H_    0.668400 0.625574 0.782891 0.064741
H47   H     H_    0.586151 0.363045 0.330457 0.047633
C62   C     C_2   0.385322 0.181017 0.226907 0.541551
H48   H     H_    0.256660 0.188394 0.237669 0.000956
O26   O     O_2   0.435539 0.104899 0.201964 -0.575908
H49   H     H_    0.403894 0.739156 0.136034 0.139671
H50   H     H_    0.007377 0.939204 0.234853 0.112346
H51   H     H_    0.106609 0.318105 0.858891 0.076531
C63   C     C_2   0.011058 0.177246 0.834208 0.477866
H52   H     H_    0.018945 0.108418 0.803842 0.063050
O27   O     O_2   0.904840 0.191315 0.878490 -0.584850
H53   H     H_    0.540705 0.215095 0.651690 0.081722
H54   H     H_    0.635810 0.067253 0.694282 0.067739
C64   C     C_2   0.971861 0.747484 0.199318 0.525215
H55   H     H_    0.883312 0.754108 0.156482 -0.024480
O28   O     O_2   0.082413 0.692477 0.188479 -0.598773
C65   C     C_2   0.014682 0.003352 0.600383 0.478284
H56   H     H_    0.034432 0.936005 0.569512 -0.034793
O29   O     O_2   0.089130 0.022865 0.657238 -0.587686

loop_
_geom_bond_atom_site_label_1
_geom_bond_atom_site_label_2
_ccdc_geom_bond_type
C59   H8    S    
O21   P6    S    
C53   C54   A    
Ba2   O5    S    
C1    H49   S    
C12   C64   S    
C64   O28   D    
C39   C40   A    
O6    P8    S    
C17   C18   A    
C12   H22   S    
C28   H28   S    
C8    H54   S    
C55   C65   S    
C54   P5    S    
Ba2   O14   S    
C5    C6    S    
C37   C39   A    
C43   C44   A    
C61   O25   D    
Ba2   O8    S    
C35   C36   A    
C2    O21   S    
C3    O15   S    
C34   H41   S    
C48   C57   A    
C8    H23   S    
C5    H17   S    
C26   C27   A    
C33   C35   A    
C22   C24   A    
Ba1   Ba2   S    
Ba1   P1    S    
Ba1   O8    S    
C45   H1    S    
C3    C4    S    
C42   H37   S    
C23   H40   S    
C3    H47   S    
C19   C31   A    
O22   P2    D    
C56   C58   S    
C13   C14   A    
C8    H21   S    
C54   C55   A    
C34   C45   S    
C16   C17   A    
C5    O11   S    
Ba1   O18   S    
O18   P6    S    
Ba1   O5    S    
C2    C61   S    
Ba2   O12   S    
C42   C51   A    
C56   H4    S    
Ba2   O6    S    
O12   P1    S    
C14   C15   A    
C11   H24   S    
Ba2   P4    S    
C21   C22   A    
C60   H11   S    
Ba1   O12   S    
C1    H13   S    
C7    C8    S    
C2    H12   S    
C7    H20   S    
C33   H30   S    
C7    H53   S    
C24   C29   A    
C12   C23   S    
O9    P5    S    
C27   C41   A    
C65   O29   D    
C57   H38   S    
C60   H46   S    
C39   P6    S    
Ba2   O13   S    
C50   C52   A    
C48   C49   A    
C20   C21   A    
C25   C32   A    
C44   C46   A    
O19   P6    D    
C35   H31   S    
C6    H19   S    
C30   C33   A    
C41   P1    S    
C17   C20   A    
Ba1   O22   S    
O3    P3    S    
Ba1   P2    S    
C45   H2    S    
C51   C55   A    
C4    H15   S    
O1    P1    D    
O11   P5    S    
C26   C37   A    
O15   P7    S    
C40   H33   S    
C20   P8    S    
O16   P8    D    
C6    C63   S    
C27   C28   A    
C59   O2    S    
C50   C57   A    
C22   P4    S    
C7    O17   S    
C29   C30   A    
C9    C25   A    
C34   O7    S    
C31   C32   A    
C60   H10   S    
C46   P3    S    
Ba1   O13   S    
C10   C11   A    
O13   P2    S    
C58   H44   S    
C42   C49   A    
C62   O26   D    
C12   O3    S    
C29   H29   S    
C21   H26   S    
C11   C13   A    
C65   H56   S    
C63   O27   D    
C40   C41   A    
O8    P7    S    
C4    C62   S    
C1    C2    S    
O24   P3    D    
C37   C38   A    
C50   C51   A    
C13   H25   S    
C59   H45   S    
O2    P2    S    
C52   C53   A    
C9    C15   A    
C10   C28   A    
C32   C36   A    
C16   H27   S    
Ba1   O23   S    
C38   H32   S    
C62   H48   S    
C9    C10   A    
C1    H9    S    
C61   H43   S    
O5    P4    S    
C56   O20   S    
C34   H42   S    
C30   C31   A    
C3    H14   S    
C6    H51   S    
C56   H5    S    
C36   C38   A    
C23   H39   S    
C18   C24   A    
C58   H7    S    
C46   C47   A    
C52   P7    S    
C53   H36   S    
Ba2   O4    S    
Ba2   O9    S    
O10   P5    D    
O20   P1    S    
C23   H50   S    
O17   P8    S    
C59   C60   S    
O23   P3    S    
O4    P4    D    
C4    H16   S    
C47   H35   S    
O7    P4    S    
C43   P2    S    
C44   H34   S    
C18   C19   A    
C58   H6    S    
C14   C16   A    
C47   C48   A    
C64   H55   S    
C43   C49   A    
C63   H52   S    
C45   H3    S    
O14   P7    D    
Ba1   O1    S    
C5    H18   S    
C25   C26   A    
C15   C19   A    
