data_mof_unit_26346.cif
_audit_creation_date              2012-12-11T14:29:47-0500
_audit_creation_method            fapswitch 2.2
_symmetry_space_group_name_H-M    P1
_symmetry_Int_Tables_number       1
_space_group_crystal_system       triclinic
_cell_length_a                    6.936917
_cell_length_b                    14.719011
_cell_length_c                    16.261465
_cell_angle_alpha                 90.510663
_cell_angle_beta                  90.040906
_cell_angle_gamma                 89.999311
_cell_volume                      1660.30332

loop_
_atom_site_label
_atom_site_type_symbol
_atom_type_description
_atom_site_fract_x
_atom_site_fract_y
_atom_site_fract_z
_atom_type_partial_charge
O1    O     O_R   0.494400 0.416610 0.413880 -0.543616
O2    O     O_R   0.823920 0.406790 0.585520 -0.522830
O3    O     O_R   0.994250 0.583390 0.586120 -0.538530
C1    C     C_R   0.655733 0.383786 0.612722 0.786082
O4    O     O_R   0.824110 0.405730 0.414490 -0.539030
O5    O     O_R   0.994440 0.582310 0.413870 -0.541498
C2    C     C_R   0.654832 0.383592 0.386395 0.745904
O6    O     O_R   0.494210 0.417690 0.586130 -0.532874
O7    O     O_3   0.660810 0.557940 0.500000 -0.377008
V1    V     V_3+5 0.935650 0.489250 0.500000 1.470613
O8    O     O_R   0.324160 0.593210 0.414480 -0.547726
C3    C     C_R   0.155695 0.615522 0.386814 0.741000
O9    O     O_R   0.323970 0.594270 0.585510 -0.541504
C4    C     C_R   0.155116 0.616168 0.613897 0.693049
V2    V     V_3+5 0.435660 0.510750 0.500000 1.449777
O10   O     O_3   0.160630 0.442060 0.500000 -0.354731
H1    H     H_    0.367250 0.916063 0.519335 0.135417
C5    C     C_R   0.021993 0.565872 0.776029 -0.141265
C6    C     C_R   0.956255 0.539346 0.853086 -0.123178
C7    C     C_R   0.944673 0.602283 0.917060 -0.119979
C8    C     C_R   0.998525 0.692276 0.904472 -0.132653
C9    C     C_R   0.063586 0.721661 0.826607 0.069054
C10   C     C_R   0.075776 0.657051 0.760946 0.066527
C11   C     C_R   0.119929 0.813171 0.814053 -0.179542
C12   C     C_R   0.188230 0.839947 0.735613 0.066355
C13   C     C_R   0.200577 0.775319 0.669968 0.066635
C14   C     C_R   0.144562 0.683765 0.682566 -0.183219
C15   C     C_R   0.241105 0.931223 0.720430 -0.137953
C16   C     C_R   0.306081 0.957845 0.643279 -0.101205
C17   C     C_R   0.318033 0.894867 0.579345 -0.104870
C18   C     C_R   0.265155 0.804758 0.592049 -0.134461
H2    H     H_    0.031503 0.513757 0.728901 0.123623
H3    H     H_    0.915463 0.469352 0.863338 0.121418
H4    H     H_    0.894936 0.581147 0.977008 0.117224
H5    H     H_    0.989806 0.738071 0.956710 0.107184
H6    H     H_    0.231285 0.983339 0.767544 0.114163
H7    H     H_    0.346010 0.027932 0.632923 0.145393
H8    H     H_    0.274057 0.758925 0.539844 0.109697
C19   C     C_2   0.985761 0.718925 0.291517 -0.151947
C20   C     C_2   0.151454 0.685449 0.321907 -0.343343
H9    H     H_    0.850245 0.694246 0.316188 0.163815
H10   H     H_    0.289085 0.711842 0.301474 0.156244
C21   C     C_2   0.972388 0.792545 0.229309 0.185284
C22   C     C_2   0.119002 0.814156 0.177514 -0.326644
H11   H     H_    0.255020 0.778339 0.181975 0.137492
C23   C     C_2   0.777437 0.200951 0.777195 -0.153891
C24   C     C_2   0.612313 0.176074 0.813998 -0.344973
H12   H     H_    0.912021 0.172014 0.798914 0.162137
H13   H     H_    0.474367 0.200382 0.791943 0.150915
C25   C     C_2   0.791231 0.262223 0.705043 0.181015
C26   C     C_2   0.645619 0.318082 0.681178 -0.325744
H14   H     H_    0.510628 0.318011 0.714574 0.134789
C27   C     C_2   0.779208 0.208281 0.214543 -0.115785
C28   C     C_2   0.614116 0.181609 0.177599 -0.299517
H15   H     H_    0.914989 0.179235 0.193976 0.139435
H16   H     H_    0.476635 0.209890 0.196074 0.124922
C29   C     C_2   0.791673 0.276805 0.282471 -0.126835
C30   C     C_2   0.638224 0.315217 0.319703 -0.295798
H17   H     H_    0.935679 0.295604 0.302617 0.137973
H18   H     H_    0.493051 0.297020 0.301524 0.130612
O11   O     O_R   0.770210 0.079270 0.910680 -0.542075
O12   O     O_R   0.440150 0.091160 0.082270 -0.545560
O13   O     O_R   0.269970 0.914530 0.082860 -0.530141
C31   C     C_R   0.608830 0.113151 0.110583 0.772386
O14   O     O_R   0.440480 0.090100 0.911240 -0.550009
O15   O     O_R   0.270310 0.913460 0.910610 -0.539608
C32   C     C_R   0.608664 0.111110 0.882692 0.748793
O16   O     O_R   0.769870 0.080340 0.082930 -0.535798
O17   O     O_3   0.603660 0.938980 0.996790 -0.358824
V3    V     V_3+5 0.328750 0.007610 0.996740 1.439324
O18   O     O_R   0.940600 0.902510 0.911180 -0.541064
C33   C     C_R   0.109458 0.880720 0.882758 0.685550
O19   O     O_R   0.940270 0.903570 0.082200 -0.522769
C34   C     C_R   0.108243 0.883382 0.111780 0.780819
V4    V     V_3+5 0.828770 0.986010 0.996670 1.466846
O20   O     O_3   0.103730 0.054750 0.996710 -0.381449
I1    I     I_    0.701012 0.860938 0.231192 -0.442830
I2    I     I_    0.062610 0.251256 0.643764 -0.455193

loop_
_geom_bond_atom_site_label_1
_geom_bond_atom_site_label_2
_ccdc_geom_bond_type
O19   C34   A    
C6    C7    A    
C1    O6    A    
C19   H9    S    
C27   C28   D    
O11   V4    S    
O16   V4    S    
C13   C14   A    
C31   O16   A    
C15   C16   A    
O5    C3    A    
C17   C18   A    
C29   H17   S    
C30   H18   S    
V2    O10   S    
O12   V3    S    
C5    C6    A    
O12   C31   A    
O8    V2    S    
O15   C33   A    
O14   C32   A    
O1    V2    S    
C10   C14   A    
C4    C14   S    
O7    V1    S    
C2    C30   S    
C7    H4    S    
C20   H10   S    
C13   C18   A    
O9    C4    A    
H1    C17   S    
O19   V4    S    
C25   I2    S    
C24   C32   S    
C23   H12   S    
C27   H15   S    
C28   H16   S    
C1    C26   S    
C26   H14   S    
C11   C12   A    
C24   H13   S    
C6    H3    S    
C19   C20   D    
O4    C2    A    
C27   C29   S    
C19   C21   S    
C12   C13   A    
C5    C10   A    
C12   C15   A    
C3    C20   S    
O2    C1    A    
V4    O20   S    
C16   C17   A    
O11   C32   A    
O13   V3    S    
C25   C26   D    
C22   C34   S    
O3    C4    A    
O6    V2    S    
O9    V2    S    
C21   C22   D    
V3    O20   S    
C9    C11   A    
C5    H2    S    
O2    V1    S    
C22   H11   S    
C11   C33   S    
C23   C24   D    
O1    C2    A    
O5    V1    S    
O8    C3    A    
C8    H5    S    
O13   C34   A    
C21   I1    S    
C23   C25   S    
C18   H8    S    
O7    V2    S    
O18   C33   A    
O3    V1    S    
V1    O10   S    
O18   V4    S    
C29   C30   D    
O15   V3    S    
C28   C31   S    
O17   V4    S    
O17   V3    S    
O4    V1    S    
C7    C8    A    
C15   H6    S    
C16   H7    S    
C9    C10   A    
C8    C9    A    
O14   V3    S    
