data_mof_unit_14051.cif
_audit_creation_date              2012-12-10T20:24:44-0500
_audit_creation_method            fapswitch 2.2
_symmetry_space_group_name_H-M    P1
_symmetry_Int_Tables_number       1
_space_group_crystal_system       triclinic
_cell_length_a                    10.698477
_cell_length_b                    19.324102
_cell_length_c                    18.483035
_cell_angle_alpha                 90.108687
_cell_angle_beta                  90.382402
_cell_angle_gamma                 90.054074
_cell_volume                      3821.06047847

loop_
_atom_site_label
_atom_site_type_symbol
_atom_type_description
_atom_site_fract_x
_atom_site_fract_y
_atom_site_fract_z
_atom_type_partial_charge
C1    C     C_R   0.499995 0.365702 0.499985 0.858137
C2    C     C_R   0.500003 0.634299 0.500015 0.858121
C3    C     C_R   0.872392 0.496605 0.500444 -0.083665
C4    C     C_R   0.127607 0.503403 0.499555 -0.083666
C5    C     C_R   0.939726 0.463464 0.556053 0.000257
C6    C     C_R   0.060273 0.536540 0.443944 0.000243
C7    C     C_R   0.519545 0.745361 0.435302 -0.212589
C8    C     C_R   0.480421 0.254640 0.564696 -0.212598
C9    C     C_R   0.519169 0.817012 0.435244 -0.189471
C10   C     C_R   0.480769 0.182989 0.564752 -0.189479
C11   C     C_R   0.499468 0.853084 0.499883 0.122555
C12   C     C_R   0.500457 0.146917 0.500111 0.122557
C13   C     C_R   0.480028 0.817286 0.564594 -0.180819
C14   C     C_R   0.519908 0.182714 0.435401 -0.180821
C15   C     C_R   0.480382 0.745622 0.564708 -0.200689
C16   C     C_R   0.519582 0.254378 0.435289 -0.200698
C17   C     C_R   0.499982 0.709377 0.500028 -0.025477
C18   C     C_R   0.499997 0.290623 0.499971 -0.025479
C19   C     C_R   0.403936 0.964254 0.534893 -0.192286
C20   C     C_R   0.595983 0.035747 0.465100 -0.192288
C21   C     C_R   0.404272 0.035925 0.535021 -0.188181
C22   C     C_R   0.595647 0.964076 0.464973 -0.188179
C23   C     C_R   0.260035 0.502164 0.499750 0.881231
C24   C     C_R   0.739965 0.497839 0.500250 0.881234
C25   C     C_R   0.500295 0.071779 0.500123 0.108091
C26   C     C_R   0.499625 0.928222 0.499870 0.108091
C27   C     C_R   0.485111 0.560583 0.726172 0.012567
C28   C     C_R   0.514808 0.439409 0.273830 0.012548
C29   C     C_R   0.484271 0.561752 0.802040 -0.295694
C30   C     C_R   0.515665 0.438238 0.197963 -0.295659
C31   C     C_R   0.499273 0.500029 0.841450 0.131026
C32   C     C_R   0.500754 0.499966 0.158548 0.131095
C33   C     C_R   0.514262 0.438254 0.801993 -0.270869
C34   C     C_R   0.485843 0.561748 0.198004 -0.270894
C35   C     C_R   0.513631 0.439362 0.726125 0.026452
C36   C     C_R   0.486464 0.560643 0.273872 0.026498
C37   C     C_R   0.450721 0.443755 0.961797 -0.194127
C38   C     C_R   0.549324 0.556235 0.038197 -0.194141
C39   C     C_R   0.451767 0.443577 0.037693 -0.175540
C40   C     C_R   0.548271 0.556415 0.962302 -0.175663
C41   C     C_R   0.500721 0.499901 0.077246 0.143096
C42   C     C_R   0.499317 0.500091 0.922750 0.143108
C43   C     C_R   0.234492 0.678891 0.347072 -0.164906
C44   C     C_R   0.765547 0.321045 0.652838 -0.164911
C45   C     C_R   0.182687 0.639260 0.402362 -0.118388
C46   C     C_R   0.817328 0.360717 0.597572 -0.118413
C47   C     C_R   0.119398 0.577630 0.385855 0.123945
C48   C     C_R   0.880604 0.422343 0.614118 0.123952
C49   C     C_R   0.109219 0.555852 0.313551 -0.188273
C50   C     C_R   0.890791 0.444076 0.686436 -0.188278
C51   C     C_R   0.163361 0.594720 0.257528 0.083011
C52   C     C_R   0.836677 0.405164 0.742435 0.082994
C53   C     C_R   0.225115 0.656929 0.275159 -0.193393
C54   C     C_R   0.774936 0.342962 0.724765 -0.193469
C55   C     C_R   0.932071 0.532230 0.444858 -0.247960
C56   C     C_R   0.067928 0.467780 0.555143 -0.247950
H1    H     H_    0.269161 0.687749 0.233648 0.119605
H2    H     H_    0.730913 0.312109 0.766259 0.119627
H3    H     H_    0.465011 0.718752 0.615238 0.142157
H4    H     H_    0.534963 0.281248 0.384760 0.142155
H5    H     H_    0.328487 0.936930 0.561286 0.130872
H6    H     H_    0.671433 0.063071 0.438708 0.130873
H7    H     H_    0.329035 0.063388 0.561477 0.132151
H8    H     H_    0.670887 0.936614 0.438518 0.132150
H9    H     H_    0.472861 0.608397 0.696828 0.123457
H10   H     H_    0.526984 0.391590 0.303175 0.123465
H11   H     H_    0.469964 0.610636 0.829388 0.128978
H12   H     H_    0.529913 0.389347 0.170619 0.128951
H13   H     H_    0.528556 0.389392 0.829310 0.128684
H14   H     H_    0.471619 0.610617 0.170687 0.128622
H15   H     H_    0.524708 0.391468 0.696723 0.133312
H16   H     H_    0.475454 0.608543 0.303271 0.133261
H17   H     H_    0.409464 0.400037 0.933800 0.123419
H18   H     H_    0.590587 0.599953 0.066192 0.123421
H19   H     H_    0.411258 0.399716 0.065311 0.120259
H20   H     H_    0.588773 0.600276 0.934680 0.120254
H21   H     H_    0.282602 0.726653 0.359957 0.144763
H22   H     H_    0.717449 0.273286 0.639923 0.144800
H23   H     H_    0.190843 0.656832 0.457883 0.110839
H24   H     H_    0.809168 0.343180 0.542040 0.110832
H25   H     H_    0.058559 0.508660 0.301267 0.124081
H26   H     H_    0.941438 0.491266 0.698752 0.124087
H27   H     H_    0.878518 0.558723 0.403220 0.163743
H28   H     H_    0.121480 0.441284 0.596779 0.163747
H29   H     H_    0.535081 0.718280 0.384800 0.145633
H30   H     H_    0.464897 0.281721 0.615199 0.145656
H31   H     H_    0.533130 0.844293 0.384781 0.128117
H32   H     H_    0.466801 0.155708 0.615214 0.128122
H33   H     H_    0.465890 0.844798 0.615004 0.127356
H34   H     H_    0.534038 0.155202 0.384990 0.127356
N1    N     N_R   0.500020 0.499980 0.689440 -0.090485
N2    N     N_R   0.499980 0.500020 0.310560 -0.090474
O1    O     O_R   0.500010 0.398180 0.560840 -0.631650
O2    O     O_R   0.499990 0.601820 0.439160 -0.631653
O3    O     O_R   0.499950 0.398180 0.439210 -0.636056
O4    O     O_R   0.500050 0.601820 0.560790 -0.636046
O5    O     O_R   0.316790 0.500010 0.560810 -0.624369
O6    O     O_R   0.683210 0.499990 0.439190 -0.624370
O7    O     O_R   0.316730 0.500000 0.439190 -0.603595
O8    O     O_R   0.683270 0.500000 0.560810 -0.603599
Zn1   Zn    Zn3+2 0.500040 0.500000 0.581210 0.947693
Zn2   Zn    Zn3+2 0.499960 0.500000 0.418790 0.947695
C57   C     C_R   0.156801 0.569948 0.181262 0.113417
C58   C     C_R   0.142139 0.617049 0.123751 -0.173670
C59   C     C_R   0.137282 0.593535 0.052171 -0.140846
C60   C     C_R   0.146316 0.522921 0.037087 -0.091653
C61   C     C_R   0.159983 0.475619 0.093555 -0.143599
C62   C     C_R   0.166131 0.498837 0.165171 -0.145940
H35   H     H_    0.132875 0.671954 0.134054 0.118625
H36   H     H_    0.125970 0.630117 0.008350 0.124035
H37   H     H_    0.142609 0.504832 0.981649 0.137200
H38   H     H_    0.167185 0.420892 0.081772 0.120387
H39   H     H_    0.180277 0.461223 0.207762 0.125147
C63   C     C_R   0.843256 0.429880 0.818718 0.113375
C64   C     C_R   0.857991 0.382737 0.876185 -0.173679
C65   C     C_R   0.862847 0.406194 0.947785 -0.140973
C66   C     C_R   0.853738 0.476794 0.962932 -0.091663
C67   C     C_R   0.840006 0.524138 0.906507 -0.143444
C68   C     C_R   0.833861 0.500974 0.834871 -0.145985
H40   H     H_    0.867309 0.327844 0.865831 0.118651
H41   H     H_    0.874216 0.369580 0.991572 0.124038
H42   H     H_    0.857442 0.494839 0.018386 0.137203
H43   H     H_    0.832752 0.578853 0.918338 0.120405
H44   H     H_    0.819664 0.538617 0.792312 0.125173

loop_
_geom_bond_atom_site_label_1
_geom_bond_atom_site_label_2
_ccdc_geom_bond_type
C23   O7    A    
C59   H36   S    
C31   C42   S    
C27   C29   A    
C61   H38   S    
C5    C56   A    
C6    C55   A    
C63   C64   A    
C39   C41   A    
C68   H44   S    
C10   H32   S    
C1    C18   S    
C24   O6    A    
C19   C21   A    
C54   H2    S    
C58   H35   S    
C20   C25   A    
C51   C57   S    
C64   C65   A    
C65   C66   A    
C15   C17   A    
C16   H4    S    
C49   H25   S    
C37   C42   A    
C19   C26   A    
C67   C68   A    
C14   H34   S    
C21   C25   A    
C29   H11   S    
C3    C55   A    
C43   C53   A    
C44   C46   A    
C7    C17   A    
C50   C52   A    
C61   C62   A    
C31   C33   A    
C27   N1    A    
C57   C62   A    
C39   H19   S    
C34   H14   S    
C34   C36   A    
C63   C68   A    
O3    Zn2   S    
N2    Zn2   S    
C36   N2    A    
C40   C42   A    
C35   H15   S    
C38   C40   A    
O4    Zn1   S    
C4    C56   A    
C2    C17   S    
C29   C31   A    
C3    C24   S    
N1    Zn1   S    
C58   C59   A    
C52   C54   A    
C56   H28   S    
C60   H37   S    
C45   C47   A    
C5    C48   S    
C46   C48   A    
C6    C47   S    
C2    O2    A    
C38   C41   A    
C4    C6    A    
C65   H41   S    
O1    Zn1   S    
C4    C23   S    
C53   H1    S    
C11   C26   S    
C49   C51   A    
O6    Zn2   S    
C8    C18   A    
C40   H20   S    
C51   C53   A    
C32   C34   A    
C62   H39   S    
C28   H10   S    
C66   H42   S    
C27   H9    S    
C43   C45   A    
C1    O3    A    
C45   H23   S    
C48   C50   A    
C9    C11   A    
C10   C12   A    
C16   C18   A    
C23   O5    A    
C12   C14   A    
C52   C63   S    
C13   C15   A    
C22   C26   A    
C14   C16   A    
C43   H21   S    
C32   C41   S    
C55   H27   S    
C50   H26   S    
C38   H18   S    
C7    C9    A    
C37   H17   S    
C13   H33   S    
C24   O8    A    
C15   H3    S    
C8    C10   A    
C20   C22   A    
C3    C5    A    
C33   H13   S    
C47   C49   A    
C59   C60   A    
C12   C25   S    
C44   H22   S    
C28   C30   A    
C37   C39   A    
C66   C67   A    
C9    H31   S    
C30   C32   A    
C11   C13   A    
C7    H29   S    
C19   H5    S    
C2    O4    A    
O8    Zn1   S    
C33   C35   A    
C8    H30   S    
C67   H43   S    
C20   H6    S    
C30   H12   S    
C21   H7    S    
C22   H8    S    
C28   N2    A    
C44   C54   A    
O7    Zn2   S    
O2    Zn2   S    
C1    O1    A    
C64   H40   S    
C60   C61   A    
C57   C58   A    
C46   H24   S    
O5    Zn1   S    
C36   H16   S    
C35   N1    A    
