data_mof_unit_21874.cif
_audit_creation_date              2012-12-11T15:22:25-0500
_audit_creation_method            fapswitch 2.2
_symmetry_space_group_name_H-M    P1
_symmetry_Int_Tables_number       1
_space_group_crystal_system       triclinic
_cell_length_a                    22.551672
_cell_length_b                    12.963916
_cell_length_c                    26.942604
_cell_angle_alpha                 90.041033
_cell_angle_beta                  90.68007
_cell_angle_gamma                 90.013236
_cell_volume                      7876.32821772

loop_
_atom_site_label
_atom_site_type_symbol
_atom_type_description
_atom_site_fract_x
_atom_site_fract_y
_atom_site_fract_z
_atom_type_partial_charge
C1    C     C_R   0.719171 0.341485 0.177030 0.538425
C2    C     C_R   0.280633 0.342788 0.822682 0.539914
C3    C     C_R   0.219384 0.842777 0.177329 0.539584
C4    C     C_R   0.780861 0.841466 0.822994 0.538794
C5    C     C_R   0.475099 0.164641 0.871640 -0.021119
C6    C     C_R   0.524383 0.164634 0.128609 -0.020426
C7    C     C_R   0.975541 0.664812 0.871431 -0.020288
C8    C     C_R   0.024819 0.664463 0.128401 -0.021264
C9    C     C_R   0.519433 0.259818 0.103987 -0.102787
C10   C     C_R   0.480071 0.259814 0.896328 -0.101421
C11   C     C_R   0.019557 0.759666 0.103848 -0.101381
C12   C     C_R   0.980190 0.759961 0.896191 -0.102810
C13   C     C_R   0.506525 0.264330 0.052601 0.008817
C14   C     C_R   0.492788 0.264326 0.947759 0.010851
C15   C     C_R   0.006767 0.764222 0.052434 0.010973
C16   C     C_R   0.993027 0.764430 0.947593 0.008815
C17   C     C_R   0.502208 0.170373 0.026172 0.027493
C18   C     C_R   0.496952 0.170368 0.974161 0.029571
C19   C     C_R   0.002848 0.670310 0.025904 0.029598
C20   C     C_R   0.997598 0.670430 0.973893 0.027566
C21   C     C_R   0.502238 0.359393 0.026524 -0.016155
C22   C     C_R   0.496890 0.359395 0.973917 -0.012873
C23   C     C_R   0.002348 0.859335 0.026415 -0.012923
C24   C     C_R   0.996992 0.859449 0.973808 -0.016049
C25   C     C_R   0.745436 0.946728 0.133078 -0.015337
C26   C     C_R   0.259694 0.955139 0.868991 -0.007200
C27   C     C_R   0.240330 0.454889 0.131046 -0.007130
C28   C     C_R   0.754599 0.446988 0.866959 -0.015249
C29   C     C_R   0.799414 0.966643 0.109322 -0.130110
C30   C     C_R   0.202767 0.931523 0.886166 -0.130706
C31   C     C_R   0.297268 0.431202 0.113914 -0.130452
C32   C     C_R   0.700735 0.467237 0.890835 -0.130433
C33   C     C_R   0.807483 0.937654 0.060221 -0.145163
C34   C     C_R   0.194624 0.906366 0.936036 -0.150579
C35   C     C_R   0.305458 0.405992 0.064044 -0.150433
C36   C     C_R   0.692744 0.438355 0.939945 -0.145371
C37   C     C_R   0.762074 0.887384 0.033834 0.050645
C38   C     C_R   0.243095 0.907783 0.969137 0.040933
C39   C     C_R   0.257024 0.407432 0.030910 0.040795
C40   C     C_R   0.738117 0.387859 0.966230 0.050804
C41   C     C_R   0.709886 0.857734 0.058914 0.145008
C42   C     C_R   0.299837 0.933203 0.952050 0.135485
C43   C     C_R   0.200269 0.432879 0.047960 0.135451
C44   C     C_R   0.790179 0.357922 0.941035 0.145059
C45   C     C_R   0.553428 0.157472 0.177618 0.543208
C46   C     C_R   0.446453 0.157508 0.822459 0.541162
C47   C     C_R   0.053532 0.657447 0.177553 0.541114
C48   C     C_R   0.946557 0.657533 0.822394 0.543232
C49   C     C_R   0.702164 0.887662 0.108494 -0.120330
C50   C     C_R   0.308222 0.952807 0.901873 -0.118217
C51   C     C_R   0.191834 0.452526 0.098134 -0.118155
C52   C     C_R   0.797824 0.387751 0.891448 -0.120288
C53   C     C_R   0.753865 0.781512 0.956509 -0.098296
C54   C     C_R   0.269860 0.814077 0.046300 -0.089136
C55   C     C_R   0.230295 0.313762 0.953688 -0.089119
C56   C     C_R   0.746291 0.281839 0.043454 -0.098330
C57   C     C_R   0.753654 0.774112 0.905034 -0.129999
C58   C     C_R   0.268735 0.804952 0.097677 -0.127109
C59   C     C_R   0.231368 0.304774 0.902305 -0.126970
C60   C     C_R   0.746437 0.274298 0.094923 -0.129950
C61   C     C_R   0.785612 0.952175 0.898738 -0.128230
C62   C     C_R   0.197643 0.945246 0.101336 -0.127272
C63   C     C_R   0.302485 0.445098 0.898773 -0.127405
C64   C     C_R   0.714665 0.452419 0.101426 -0.128163
C65   C     C_R   0.783727 0.960746 0.950350 -0.135474
C66   C     C_R   0.199018 0.954537 0.049896 -0.136190
C67   C     C_R   0.301148 0.454274 0.950223 -0.136182
C68   C     C_R   0.716617 0.461127 0.049825 -0.135303
C69   C     C_R   0.767801 0.875375 0.979606 0.036751
C70   C     C_R   0.235037 0.888832 0.022223 0.046499
C71   C     C_R   0.265132 0.388497 0.977829 0.046470
C72   C     C_R   0.732462 0.375788 0.020463 0.036817
C73   C     C_R   0.769780 0.859124 0.875745 0.026182
C74   C     C_R   0.232044 0.869615 0.125662 0.019880
C75   C     C_R   0.268037 0.369529 0.874380 0.019843
C76   C     C_R   0.730353 0.359260 0.124310 0.026285
C77   C     C_R   0.524362 0.171388 0.369638 0.021683
C78   C     C_R   0.472477 0.171257 0.628965 0.027104
C79   C     C_R   0.024478 0.671424 0.369682 0.022164
C80   C     C_R   0.972434 0.671169 0.628952 0.027068
C81   C     C_R   0.528279 0.265744 0.396389 0.129947
C82   C     C_R   0.466291 0.265054 0.602033 0.137216
C83   C     C_R   0.028730 0.765620 0.396535 0.130425
C84   C     C_R   0.966334 0.764994 0.602035 0.137156
C85   C     C_R   0.519082 0.264012 0.447714 -0.100063
C86   C     C_R   0.474115 0.263330 0.550547 -0.092240
C87   C     C_R   0.019379 0.763819 0.447831 -0.099759
C88   C     C_R   0.974119 0.763261 0.550547 -0.092284
C89   C     C_R   0.731948 0.000439 0.179869 0.537103
C90   C     C_R   0.268462 0.000877 0.820080 0.539070
C91   C     C_R   0.231545 0.500792 0.179935 0.538620
C92   C     C_R   0.768055 0.500509 0.820139 0.537547
C93   C     C_R   0.500516 0.173849 0.471742 0.004174
C94   C     C_R   0.492534 0.173505 0.526172 0.005693
C95   C     C_R   0.000453 0.673771 0.471746 0.004206
C96   C     C_R   0.992391 0.673364 0.526155 0.005753
C97   C     C_R   0.489768 0.084751 0.443539 -0.145059
C98   C     C_R   0.504088 0.084470 0.554125 -0.143772
C99   C     C_R   0.989487 0.584853 0.443468 -0.145072
C100  C     C_R   0.003804 0.584241 0.554073 -0.143660
C101  C     C_R   0.502542 0.083015 0.393249 -0.167058
C102  C     C_R   0.493467 0.082942 0.604775 -0.163744
C103  C     C_R   0.002345 0.583170 0.393190 -0.167173
C104  C     C_R   0.993251 0.582753 0.604730 -0.163553
C105  C     C_R   0.743877 0.947803 0.369461 -0.040605
C106  C     C_R   0.256726 0.948478 0.630100 -0.044218
C107  C     C_R   0.243846 0.447860 0.369480 -0.040838
C108  C     C_R   0.756775 0.448395 0.630118 -0.044162
C109  C     C_R   0.696740 0.903381 0.395155 -0.107526
C110  C     C_R   0.303066 0.896580 0.606474 -0.105397
C111  C     C_R   0.196702 0.403385 0.395150 -0.107667
C112  C     C_R   0.803069 0.396032 0.606661 -0.105126
C113  C     C_R   0.703186 0.877099 0.445031 0.114138
C114  C     C_R   0.298273 0.869966 0.556399 0.115145
C115  C     C_R   0.203124 0.377080 0.445023 0.113870
C116  C     C_R   0.798419 0.369267 0.556590 0.115520
C117  C     C_R   0.758344 0.894066 0.469020 0.055637
C118  C     C_R   0.245536 0.894440 0.530263 0.052982
C119  C     C_R   0.258248 0.394154 0.469046 0.055528
C120  C     C_R   0.745812 0.393990 0.530300 0.052839
C121  C     C_R   0.807526 0.928674 0.441979 0.121624
C122  C     C_R   0.196847 0.937596 0.555111 0.120551
C123  C     C_R   0.307431 0.428879 0.442041 0.121572
C124  C     C_R   0.697138 0.437638 0.555009 0.120370
C125  C     C_R   0.799988 0.954591 0.392068 -0.129799
C126  C     C_R   0.202660 0.963401 0.605102 -0.136761
C127  C     C_R   0.299930 0.454751 0.392123 -0.130212
C128  C     C_R   0.702846 0.463631 0.604978 -0.136475
C129  C     C_R   0.770449 0.785061 0.543124 -0.135954
C130  C     C_R   0.206825 0.801743 0.457182 -0.119371
C131  C     C_R   0.270325 0.285115 0.543135 -0.135935
C132  C     C_R   0.705410 0.303470 0.457190 -0.117706
C133  C     C_R   0.720585 0.346181 0.322105 0.534324
C134  C     C_R   0.279695 0.345171 0.677549 0.538896
C135  C     C_R   0.220596 0.846195 0.322098 0.534277
C136  C     C_R   0.779702 0.845159 0.677543 0.539096
C137  C     C_R   0.772578 0.774011 0.594198 -0.112041
C138  C     C_R   0.200970 0.791564 0.406240 -0.103039
C139  C     C_R   0.272502 0.274052 0.594207 -0.111972
C140  C     C_R   0.699320 0.293675 0.406255 -0.103539
C141  C     C_R   0.763129 0.959630 0.604669 -0.151393
C142  C     C_R   0.265687 0.939328 0.393905 -0.150532
C143  C     C_R   0.263072 0.459673 0.604696 -0.151617
C144  C     C_R   0.767497 0.436622 0.393919 -0.150209
C145  C     C_R   0.759050 0.970373 0.553268 -0.114272
C146  C     C_R   0.271783 0.949328 0.445238 -0.123493
C147  C     C_R   0.258949 0.470430 0.553299 -0.114172
C148  C     C_R   0.773702 0.446413 0.445256 -0.124480
C149  C     C_R   0.763407 0.883068 0.522655 0.058373
C150  C     C_R   0.241948 0.880819 0.476686 0.047256
C151  C     C_R   0.263276 0.383130 0.522679 0.058560
C152  C     C_R   0.742288 0.380104 0.476715 0.046353
C153  C     C_R   0.769163 0.861110 0.625054 0.040310
C154  C     C_R   0.229851 0.860773 0.374675 0.045659
C155  C     C_R   0.269128 0.361147 0.625069 0.040263
C156  C     C_R   0.729785 0.360750 0.374690 0.045676
C157  C     C_R   0.553535 0.159491 0.321224 0.540397
C158  C     C_R   0.445836 0.159447 0.678401 0.547421
C159  C     C_R   0.053572 0.659495 0.321243 0.541873
C160  C     C_R   0.945832 0.659434 0.678402 0.546460
C161  C     C_R   0.732100 0.001059 0.322588 0.542154
C162  C     C_R   0.268015 0.001209 0.677281 0.536484
C163  C     C_R   0.232093 0.501075 0.322595 0.540566
C164  C     C_R   0.768021 0.501198 0.677285 0.537738
C165  C     C_R   0.512273 0.073412 0.102830 -0.135681
C166  C     C_R   0.486582 0.073365 0.897493 -0.137734
C167  C     C_R   0.013527 0.573167 0.102437 -0.137844
C168  C     C_R   0.987858 0.573619 0.897097 -0.135578
C169  C     C_R   0.503632 0.075170 0.051811 0.004476
C170  C     C_R   0.494933 0.075141 0.948535 0.014853
C171  C     C_R   0.005111 0.575026 0.051403 0.014843
C172  C     C_R   0.996433 0.575293 0.948125 0.004408
C173  C     C_R   0.497262 0.982045 0.974490 -0.155397
C174  C     C_R   0.499384 0.982055 0.025910 -0.152404
C175  C     C_R   0.000853 0.482132 0.973904 -0.152522
C176  C     C_R   0.002960 0.481990 0.025324 -0.155336
Cr1   Cr    Cr6+3 0.756570 0.170940 0.251190 1.022014
Cr2   Cr    Cr6+3 0.243430 0.170940 0.748810 1.020884
Cr3   Cr    Cr6+3 0.256570 0.670940 0.251190 1.022535
Cr4   Cr    Cr6+3 0.743430 0.670940 0.748810 1.020420
Cr5   Cr    Cr6+3 0.623740 0.299110 0.249580 1.031309
Cr6   Cr    Cr6+3 0.376260 0.299110 0.750420 1.031768
Cr7   Cr    Cr6+3 0.123740 0.799110 0.249580 1.030371
Cr8   Cr    Cr6+3 0.876260 0.799110 0.750420 1.032655
Cr9   Cr    Cr6+3 0.625990 0.036240 0.250480 1.010365
Cr10  Cr    Cr6+3 0.374010 0.036240 0.749520 1.011490
Cr11  Cr    Cr6+3 0.125990 0.536240 0.250480 1.011057
Cr12  Cr    Cr6+3 0.874010 0.536240 0.749520 1.010630
H1    H     H_    0.483292 0.999487 0.878732 0.132832
H2    H     H_    0.515153 0.999579 0.121623 0.135464
H3    H     H_    0.985197 0.499819 0.878200 0.135508
H4    H     H_    0.017030 0.499264 0.121097 0.132732
H5    H     H_    0.799783 0.017550 0.876848 0.122817
H6    H     H_    0.168266 0.995098 0.121944 0.135996
H7    H     H_    0.331856 0.494996 0.878206 0.135931
H8    H     H_    0.700539 0.517770 0.123391 0.122899
H9    H     H_    0.660552 0.870837 0.126491 0.123984
H10   H     H_    0.351927 0.975716 0.889639 0.132136
H11   H     H_    0.148126 0.475477 0.110344 0.132090
H12   H     H_    0.839351 0.370674 0.873363 0.123895
H13   H     H_    0.519809 0.014737 0.536805 0.099557
H14   H     H_    0.473603 0.014857 0.460520 0.100901
H15   H     H_    0.019395 0.514446 0.536721 0.099504
H16   H     H_    0.973057 0.515070 0.460382 0.100969
H17   H     H_    0.499273 0.010970 0.624650 0.129463
H18   H     H_    0.497930 0.010799 0.373320 0.132348
H19   H     H_    0.998974 0.510744 0.624590 0.129098
H20   H     H_    0.997517 0.511086 0.373185 0.132461
H21   H     H_    0.527629 0.332650 0.469253 0.107594
H22   H     H_    0.464809 0.331880 0.529201 0.112054
H23   H     H_    0.028084 0.832311 0.469439 0.107895
H24   H     H_    0.964923 0.831871 0.529209 0.112154
H25   H     H_    0.653687 0.894485 0.377394 0.149097
H26   H     H_    0.344176 0.881046 0.626259 0.146280
H27   H     H_    0.153661 0.394447 0.377372 0.149410
H28   H     H_    0.844024 0.380159 0.626603 0.145809
H29   H     H_    0.773692 0.717533 0.519568 0.107289
H30   H     H_    0.183663 0.748961 0.481377 0.117902
H31   H     H_    0.273553 0.217593 0.519573 0.106778
H32   H     H_    0.681018 0.252381 0.481369 0.119298
H33   H     H_    0.778896 0.697621 0.609716 0.130003
H34   H     H_    0.173308 0.730291 0.391261 0.126983
H35   H     H_    0.278830 0.197655 0.609715 0.130125
H36   H     H_    0.670343 0.234257 0.391281 0.128308
H37   H     H_    0.495128 0.908895 0.955035 0.100805
H38   H     H_    0.499969 0.908881 0.045360 0.115151
H39   H     H_    0.000421 0.409009 0.954358 0.115308
H40   H     H_    0.005223 0.408798 0.044683 0.100650
H41   H     H_    0.752867 0.046322 0.537288 0.109023
H42   H     H_    0.298616 0.011235 0.460529 0.109734
H43   H     H_    0.252762 0.546386 0.537327 0.108548
H44   H     H_    0.801852 0.506548 0.460529 0.110797
H45   H     H_    0.761670 0.027185 0.628293 0.110344
H46   H     H_    0.288109 0.992593 0.369511 0.104356
H47   H     H_    0.261635 0.527222 0.628326 0.110083
H48   H     H_    0.791239 0.488097 0.369523 0.104652
H49   H     H_    0.837281 0.985492 0.371895 0.137432
H50   H     H_    0.166120 0.001757 0.623236 0.138379
H51   H     H_    0.337226 0.485711 0.371974 0.137142
H52   H     H_    0.666349 0.502388 0.622979 0.138706
H53   H     H_    0.469778 0.329179 0.875763 0.183387
H54   H     H_    0.529947 0.329186 0.124530 0.184501
H55   H     H_    0.969496 0.829291 0.875736 0.184550
H56   H     H_    0.029682 0.829060 0.124501 0.183388
H57   H     H_    0.834276 0.010424 0.127599 0.170826
H58   H     H_    0.164681 0.935058 0.861351 0.157274
H59   H     H_    0.335327 0.434755 0.138760 0.157659
H60   H     H_    0.665912 0.511176 0.872642 0.170258
H61   H     H_    0.742830 0.714095 0.978258 0.140754
H62   H     H_    0.298272 0.763375 0.025190 0.123351
H63   H     H_    0.201888 0.263010 0.974752 0.123343
H64   H     H_    0.757251 0.214436 0.021629 0.140823
H65   H     H_    0.743689 0.700106 0.888224 0.137801
H66   H     H_    0.294498 0.744227 0.115156 0.142770
H67   H     H_    0.205574 0.244084 0.884771 0.142837
H68   H     H_    0.756298 0.200220 0.111646 0.137755
H69   H     H_    0.848368 0.958670 0.042053 0.144901
H70   H     H_    0.150527 0.888609 0.949104 0.144173
H71   H     H_    0.349562 0.388200 0.050999 0.144519
H72   H     H_    0.651942 0.459587 0.958190 0.144566
H73   H     H_    0.794332 0.034237 0.967447 0.112065
H74   H     H_    0.172910 0.014022 0.031760 0.106829
H75   H     H_    0.327269 0.513739 0.968418 0.106659
H76   H     H_    0.706099 0.534686 0.032820 0.112140
O1    O     O_R   0.769900 0.064540 0.196060 -0.522494
O2    O     O_R   0.230100 0.064540 0.803940 -0.511946
O3    O     O_R   0.269900 0.564540 0.196060 -0.512663
O4    O     O_R   0.730100 0.564540 0.803940 -0.521643
O5    O     O_R   0.574760 0.239320 0.300850 -0.481126
O6    O     O_R   0.425240 0.239320 0.699150 -0.477665
O7    O     O_R   0.074760 0.739320 0.300850 -0.480251
O8    O     O_R   0.925240 0.739320 0.699150 -0.478195
O9    O     O_R   0.566290 0.069580 0.305400 -0.526983
O10   O     O_R   0.433710 0.069580 0.694600 -0.526113
O11   O     O_R   0.066290 0.569580 0.305400 -0.526253
O12   O     O_R   0.933710 0.569580 0.694600 -0.527022
O13   O     O_R   0.680760 0.993330 0.302620 -0.506710
O14   O     O_R   0.319240 0.993330 0.697380 -0.505000
O15   O     O_R   0.180760 0.493330 0.302620 -0.506408
O16   O     O_R   0.819240 0.493330 0.697380 -0.505396
O17   O     O_3   0.668770 0.168760 0.250420 -0.247386
O18   O     O_3   0.331230 0.168760 0.749580 -0.246693
O19   O     O_3   0.168770 0.668760 0.250420 -0.247134
O20   O     O_3   0.831230 0.668760 0.749580 -0.246973
O21   O     O_R   0.750800 0.274080 0.199250 -0.503582
O22   O     O_R   0.249200 0.274080 0.800750 -0.502448
O23   O     O_R   0.250800 0.774080 0.199250 -0.503191
O24   O     O_R   0.749200 0.774080 0.800750 -0.502750
O25   O     O_R   0.669990 0.371670 0.194150 -0.512600
O26   O     O_R   0.330010 0.371670 0.805850 -0.519606
O27   O     O_R   0.169990 0.871670 0.194150 -0.519097
O28   O     O_R   0.830010 0.871670 0.805850 -0.513234
O29   O     O_R   0.574600 0.238480 0.197800 -0.503379
O30   O     O_R   0.425400 0.238480 0.802200 -0.502939
O31   O     O_R   0.074600 0.738480 0.197800 -0.502659
O32   O     O_R   0.925400 0.738480 0.802200 -0.503723
O33   O     O_R   0.566130 0.068680 0.194240 -0.519971
O34   O     O_R   0.433870 0.068680 0.805760 -0.523213
O35   O     O_R   0.066130 0.568680 0.194240 -0.523053
O36   O     O_R   0.933870 0.568680 0.805760 -0.520113
O37   O     O_R   0.680610 0.992490 0.199570 -0.500890
O38   O     O_R   0.319390 0.992490 0.800430 -0.504559
O39   O     O_R   0.180610 0.492490 0.199570 -0.504342
O40   O     O_R   0.819390 0.492490 0.800430 -0.501131
O41   O     O_R   0.770060 0.065440 0.307230 -0.514541
O42   O     O_R   0.229940 0.065440 0.692770 -0.520925
O43   O     O_R   0.270060 0.565440 0.307230 -0.516214
O44   O     O_R   0.729940 0.565440 0.692770 -0.519343
O45   O     O_R   0.750960 0.274920 0.302300 -0.498593
O46   O     O_R   0.249040 0.274920 0.697700 -0.504133
O47   O     O_R   0.250960 0.774920 0.302300 -0.499264
O48   O     O_R   0.749040 0.774920 0.697700 -0.503636
O49   O     O_R   0.670160 0.372580 0.305320 -0.499096
O50   O     O_R   0.329840 0.372580 0.694680 -0.497549
O51   O     O_R   0.170160 0.872580 0.305320 -0.498675
O52   O     O_R   0.829840 0.872580 0.694680 -0.497789
N1    N     N_2   0.663112 0.804514 0.033916 -0.539054
H77   H     H_    0.638050 0.759030 0.057072 0.242923
C177  C     C_3   0.626598 0.869663 0.002631 -0.301915
H78   H     H_    0.587724 0.825084 0.988864 0.139141
H79   H     H_    0.651372 0.897124 0.969942 0.176113
H80   H     H_    0.611650 0.937779 0.023998 0.161338
N2    N     N_2   0.347402 0.948379 0.986212 -0.522745
H81   H     H_    0.387492 0.923609 0.972965 0.250750
C178  C     C_3   0.349722 0.051306 0.007064 -0.281628
H82   H     H_    0.381580 0.052882 0.038642 0.164272
H83   H     H_    0.305752 0.074649 0.021454 0.158995
H84   H     H_    0.363927 0.107610 0.978466 0.145338
N3    N     N_2   0.152750 0.448053 0.013768 -0.522706
H85   H     H_    0.112650 0.423183 0.026946 0.250611
C179  C     C_3   0.150430 0.551021 0.993037 -0.281580
H86   H     H_    0.118601 0.552625 0.961439 0.164268
H87   H     H_    0.194414 0.574448 0.978707 0.159030
H88   H     H_    0.136184 0.607245 0.021691 0.145383
N4    N     N_2   0.836916 0.304488 0.965918 -0.539159
H89   H     H_    0.861830 0.258858 0.942693 0.242965
C180  C     C_3   0.873635 0.369488 0.997167 -0.301940
H90   H     H_    0.912478 0.324756 0.010823 0.139042
H91   H     H_    0.848999 0.397070 0.029923 0.176056
H92   H     H_    0.888635 0.437521 0.975805 0.161450
N5    N     N_2   0.541893 0.360134 0.371287 -0.486142
H93   H     H_    0.514069 0.376266 0.341636 0.254348
C181  C     C_3   0.560816 0.450275 0.398979 -0.303974
H94   H     H_    0.576299 0.510326 0.372789 0.153924
H95   H     H_    0.598436 0.430526 0.424132 0.186059
H96   H     H_    0.523251 0.482260 0.420415 0.116837
N6    N     N_2   0.451867 0.359115 0.627102 -0.484019
H97   H     H_    0.481279 0.379066 0.655110 0.252100
C182  C     C_3   0.427787 0.445891 0.599771 -0.293383
H98   H     H_    0.410364 0.503731 0.626266 0.156239
H99   H     H_    0.390500 0.420550 0.575396 0.193078
H100  H     H_    0.463066 0.482937 0.577561 0.113032
N7    N     N_2   0.042801 0.859949 0.371567 -0.485782
H101  H     H_    0.014897 0.876892 0.342074 0.254652
C183  C     C_3   0.062503 0.949449 0.399366 -0.302870
H102  H     H_    0.078448 0.009252 0.373244 0.154483
H103  H     H_    0.099981 0.928632 0.424468 0.187239
H104  H     H_    0.025227 0.982247 0.420872 0.116477
N8    N     N_2   0.952041 0.859093 0.627124 -0.484103
H105  H     H_    0.981495 0.878937 0.655118 0.251471
C184  C     C_3   0.928008 0.945943 0.599818 -0.293423
H106  H     H_    0.910662 0.003816 0.626333 0.156048
H107  H     H_    0.890675 0.920709 0.575467 0.193044
H108  H     H_    0.963296 0.982908 0.577587 0.112888
N9    N     N_2   0.653397 0.836551 0.470667 -0.530250
H109  H     H_    0.663059 0.791942 0.501272 0.250979
C185  C     C_3   0.606516 0.909895 0.479679 -0.315185
H110  H     H_    0.568772 0.869838 0.497432 0.125949
H111  H     H_    0.590288 0.944036 0.444302 0.160354
H112  H     H_    0.622772 0.972213 0.504726 0.150333
N10   N     N_2   0.346508 0.818966 0.532877 -0.529606
H113  H     H_    0.335935 0.779410 0.500771 0.251921
C186  C     C_3   0.400145 0.879438 0.528795 -0.315876
H114  H     H_    0.434422 0.834032 0.509153 0.126926
H115  H     H_    0.418023 0.899582 0.566099 0.155693
H116  H     H_    0.391043 0.951187 0.507552 0.145445
N11   N     N_2   0.153336 0.336429 0.470622 -0.530267
H117  H     H_    0.163003 0.291552 0.501136 0.250939
C187  C     C_3   0.106515 0.409805 0.479789 -0.315087
H118  H     H_    0.068737 0.369673 0.497454 0.125883
H119  H     H_    0.090322 0.444321 0.444485 0.160548
H120  H     H_    0.122814 0.471847 0.504973 0.150247
N12   N     N_2   0.846567 0.317574 0.533266 -0.529724
H121  H     H_    0.836092 0.278526 0.500996 0.251931
C188  C     C_3   0.900760 0.376761 0.529829 -0.316218
H122  H     H_    0.934786 0.331012 0.510064 0.126894
H123  H     H_    0.918569 0.395431 0.567331 0.155092
H124  H     H_    0.892446 0.449308 0.509010 0.144943
N13   N     N_2   0.864454 0.937753 0.464922 -0.525387
H125  H     H_    0.896809 0.898898 0.445650 0.250450
C189  C     C_3   0.882203 0.042580 0.476080 -0.322987
H126  H     H_    0.885428 0.088701 0.441462 0.139338
H127  H     H_    0.850000 0.079418 0.501339 0.164564
H128  H     H_    0.926355 0.042203 0.494705 0.127190
N14   N     N_2   0.143039 0.960489 0.529279 -0.527924
H129  H     H_    0.105784 0.941908 0.549272 0.244643
C190  C     C_3   0.140141 0.064678 0.510227 -0.317994
H130  H     H_    0.097696 0.075975 0.489673 0.134759
H131  H     H_    0.142279 0.121143 0.541268 0.136141
H132  H     H_    0.177200 0.079291 0.484377 0.168957
N15   N     N_2   0.364323 0.438136 0.465032 -0.525527
H133  H     H_    0.396723 0.399247 0.445829 0.250314
C191  C     C_3   0.382004 0.543037 0.476105 -0.323019
H134  H     H_    0.385302 0.588995 0.441443 0.139190
H135  H     H_    0.349721 0.579967 0.501263 0.164393
H136  H     H_    0.426109 0.542797 0.494809 0.127298
N16   N     N_2   0.643492 0.461007 0.529034 -0.528224
H137  H     H_    0.606095 0.443304 0.549022 0.244583
C192  C     C_3   0.641187 0.564944 0.509623 -0.317176
H138  H     H_    0.598836 0.576643 0.488984 0.135039
H139  H     H_    0.643579 0.621804 0.540486 0.135995
H140  H     H_    0.678371 0.578563 0.483769 0.169480
C193  C     C_2   0.495081 0.459765 0.947121 0.173812
H141  H     H_    0.469016 0.523219 0.961515 0.102582
O53   O     O_2   0.524858 0.473865 0.910182 -0.533166
C194  C     C_2   0.503680 0.459747 0.053420 0.177257
H142  H     H_    0.529326 0.523669 0.038994 0.106414
O54   O     O_2   0.474033 0.473295 0.090488 -0.535457
C195  C     C_2   0.995188 0.959876 0.947059 0.177373
H143  H     H_    0.969265 0.023412 0.961554 0.106076
O55   O     O_2   0.024836 0.973936 0.910043 -0.534986
C196  C     C_2   0.003825 0.959635 0.053356 0.173554
H144  H     H_    0.029614 0.023464 0.039016 0.102958
O56   O     O_2   0.974074 0.973242 0.090358 -0.533794

loop_
_geom_bond_atom_site_label_1
_geom_bond_atom_site_label_2
_ccdc_geom_bond_type
C189  H128  S    
C99   C103  A    
C7    C168  A    
C37   C69   S    
C99   H16   S    
C142  C146  A    
C77   C101  A    
C19   C20   A    
C97   H14   S    
C53   C69   A    
C38   C70   S    
C180  H90   S    
C50   H10   S    
C108  C164  S    
C32   H60   S    
C37   C41   A    
Cr9   O37   S    
Cr10  O34   S    
C124  N16   S    
C111  H27   S    
C55   C59   A    
C190  H131  S    
C95   C99   A    
C24   C195  S    
C133  C156  S    
C29   C33   A    
C100  C104  A    
C3    C74   S    
C9    C13   A    
C146  C150  A    
C147  H43   S    
C12   C16   A    
C56   C72   A    
C169  C174  A    
C133  O49   A    
Cr8   O28   S    
C172  C175  A    
C141  C145  A    
C138  C154  A    
C6    C165  A    
C193  O53   D    
C21   C22   A    
C92   O40   A    
C91   O3    A    
C41   C49   A    
N7    C183  S    
C18   C170  A    
C25   C29   A    
C184  H108  S    
C160  O8    A    
C59   H67   S    
N2    H81   S    
C123  N15   S    
C28   C32   A    
C186  H116  S    
N4    C180  S    
C62   C66   A    
C167  C171  A    
C98   C102  A    
C60   C76   A    
C81   N5    S    
Cr9   O13   S    
C15   C19   A    
Cr1   O1    S    
C78   C82   A    
C134  C155  S    
C54   C70   A    
C68   C72   A    
C165  H2    S    
C1    O25   A    
C140  C156  A    
C135  O51   A    
C20   C172  A    
Cr11  O15   S    
C83   N7    S    
N13   H125  S    
C132  C152  A    
C132  C140  A    
C62   H6    S    
N12   H121  S    
C130  C138  A    
C180  H92   S    
Cr12  O16   S    
C139  H35   S    
C137  C153  A    
C30   H58   S    
C191  H135  S    
C46   O34   A    
C116  N12   S    
C85   H21   S    
Cr6   O18   S    
C67   H75   S    
Cr10  O10   S    
C119  C123  A    
C26   C90   S    
C5    C46   S    
Cr11  O39   S    
C105  C125  A    
C7    C48   S    
C26   C50   A    
C8    C47   S    
C107  C127  A    
C175  C176  A    
C173  H37   S    
N9    H109  S    
C194  H142  S    
C157  O9    A    
C136  C153  S    
Cr1   O21   S    
C66   C70   A    
C163  O15   A    
Cr2   O18   S    
C31   C35   A    
Cr3   O23   S    
C58   H66   S    
C185  H112  S    
Cr7   O27   S    
N4    H89   S    
C92   O4    A    
C61   C65   A    
C129  C137  A    
C159  O7    A    
C141  H45   S    
C88   H24   S    
C33   H69   S    
N8    H105  S    
C39   C71   S    
C105  C161  S    
C117  C149  S    
N2    C178  S    
C129  C149  A    
C48   O36   A    
C55   C71   A    
C2    C75   S    
C188  H123  S    
C177  H79   S    
C122  C126  A    
C182  H98   S    
C191  H134  S    
C195  H143  S    
C6    C9    A    
N15   H133  S    
C49   H9    S    
Cr7   O19   S    
Cr1   O45   S    
C64   C68   A    
Cr5   O29   S    
Cr2   O42   S    
Cr3   O47   S    
C21   C194  S    
C138  H34   S    
C60   H68   S    
C118  C150  S    
C118  C122  A    
C104  H19   S    
C57   C73   A    
C178  H83   S    
C85   C93   A    
C78   C158  S    
C87   C95   A    
C130  C150  A    
C23   C24   A    
C27   C91   S    
C2    O26   A    
C52   H12   S    
C47   O31   A    
C110  C114  A    
C67   C71   A    
C48   O32   A    
C89   O37   A    
C44   C52   A    
C86   H22   S    
C91   O39   A    
C173  C174  A    
N3    C179  S    
C79   C103  A    
Cr10  O38   S    
C10   H53   S    
C11   C15   A    
Cr11  O35   S    
Cr4   O4    S    
C27   C51   A    
Cr5   O5    S    
N5    C181  S    
C7    C12   A    
C176  H40   S    
Cr7   O7    S    
C30   C34   A    
N8    C184  S    
C10   C14   A    
C84   N8    S    
C140  H36   S    
C187  H120  S    
C142  C154  A    
C116  C120  A    
C88   C96   A    
C132  H32   S    
C84   C88   A    
C144  C156  A    
C147  C151  A    
C121  C125  A    
C123  C127  A    
C139  C155  A    
C157  O5    A    
C54   C58   A    
C17   C18   A    
C5    C166  A    
C108  C128  A    
C192  H140  S    
C4    C73   S    
C42   C50   A    
C160  O12   A    
C183  H103  S    
C107  C163  S    
C166  C170  A    
C182  H100  S    
C115  C119  A    
C181  H95   S    
C196  H144  S    
C113  C117  A    
C93   C97   A    
C68   H76   S    
C58   C74   A    
C189  H127  S    
Cr5   O49   S    
C40   C72   S    
C1    C76   S    
C107  C111  A    
C65   H73   S    
C148  C152  A    
Cr2   O2    S    
C26   C30   A    
C135  O47   A    
C171  C176  A    
C13   C17   A    
C166  H1    S    
C14   C22   A    
C192  H138  S    
C161  O13   A    
C190  H130  S    
C136  O48   A    
C63   C75   A    
C64   H8    S    
C89   O1    A    
C112  H28   S    
C57   H65   S    
C179  H88   S    
N11   C187  S    
C131  C139  A    
C101  H18   S    
Cr12  O36   S    
C40   C44   A    
C46   O30   A    
Cr9   O17   S    
C81   C85   A    
Cr10  O14   S    
Cr11  O11   S    
C83   C87   A    
Cr4   O44   S    
C127  H51   S    
C193  H141  S    
C6    C45   S    
C61   H5    S    
C78   C102  A    
C23   C196  S    
C98   H13   S    
Cr7   O31   S    
C80   C84   A    
Cr12  O20   S    
N7    H101  S    
C187  H118  S    
Cr2   O22   S    
C3    O23   A    
C184  H107  S    
Cr3   O19   S    
C135  C154  S    
C80   C104  A    
C195  O55   D    
C186  H115  S    
C79   C159  S    
C80   C160  S    
C112  C116  A    
C94   C98   A    
N10   H113  S    
C137  H33   S    
C175  H39   S    
C34   H70   S    
N1    C177  S    
C129  H29   S    
C44   N4    S    
C95   C96   S    
C148  H44   S    
Cr4   O20   S    
C124  C128  A    
C165  C169  A    
Cr5   O25   S    
Cr2   O46   S    
C87   H23   S    
Cr6   O30   S    
Cr3   O43   S    
C133  O45   A    
C180  H91   S    
C144  H48   S    
C161  O41   A    
Cr8   O8    S    
C191  H136  S    
C190  H132  S    
N6    H97   S    
C53   C57   A    
C61   C73   A    
C134  O50   A    
C27   C31   A    
C33   C37   A    
C56   C60   A    
C194  O54   D    
C43   N3    S    
C47   O35   A    
C179  H86   S    
C4    O28   A    
C8    C167  A    
C90   O38   A    
C41   N1    S    
C113  N9    S    
C114  N10   S    
C54   H62   S    
C185  H111  S    
Cr6   O6    S    
C122  N14   S    
C63   H7    S    
C32   C36   A    
C125  H49   S    
C188  H122  S    
Cr11  O19   S    
C110  H26   S    
C29   H57   S    
Cr8   O52   S    
Cr8   O20   S    
N14   H129  S    
C128  H52   S    
C106  C126  A    
C25   C89   S    
C158  O6    A    
C143  C155  A    
C121  N13   S    
C174  H38   S    
C82   C86   A    
C79   C83   A    
C43   C51   A    
C105  C109  A    
C65   C69   A    
C56   H64   S    
C100  H15   S    
Cr9   O33   S    
C106  C162  S    
C178  H82   S    
C25   C49   A    
C177  H78   S    
C108  C112  A    
C168  C172  A    
Cr6   O50   S    
N13   C189  S    
C62   C74   A    
C66   H74   S    
C145  C149  A    
C82   N6    S    
C45   O33   A    
C170  C173  A    
Cr3   O3    S    
C181  H94   S    
C93   C94   S    
N14   C190  S    
N3    H85   S    
C14   C18   A    
C35   C39   A    
C185  H110  S    
C3    O27   A    
C144  C148  A    
C141  C153  A    
Cr8   O32   S    
C162  O14   A    
C189  H126  S    
N5    H93   S    
C136  O52   A    
C143  C147  A    
C167  H4    S    
C35   H71   S    
C4    O24   A    
C168  H3    S    
C131  H31   S    
C90   O2    A    
C19   C171  A    
C38   C42   A    
C109  H25   S    
N9    C185  S    
C42   N2    S    
Cr12  O40   S    
C17   C169  A    
C187  H119  S    
C96   C100  A    
C130  H30   S    
C143  H47   S    
C117  C121  A    
C86   C94   A    
C106  C110  A    
C183  H102  S    
N10   C186  S    
C164  O44   A    
N16   H137  S    
C22   C193  S    
C77   C81   A    
C192  H139  S    
Cr10  O18   S    
C16   C20   A    
C2    O22   A    
C188  H124  S    
N16   C192  S    
C177  H80   S    
C182  H99   S    
C196  O56   D    
C11   H56   S    
C31   H59   S    
C9    H54   S    
N15   C191  S    
C158  O10   A    
C119  C151  S    
C63   C67   A    
C120  C152  S    
C13   C21   A    
Cr4   O48   S    
C36   C40   A    
C103  H20   S    
C39   C43   A    
Cr12  O12   S    
Cr4   O24   S    
C178  H84   S    
N12   C188  S    
Cr5   O17   S    
C115  N11   S    
Cr9   O9    S    
N6    C182  S    
C12   H55   S    
C64   C76   A    
C28   C92   S    
C53   H61   S    
Cr6   O26   S    
C179  H87   S    
N11   H117  S    
C114  C118  A    
C51   H11   S    
Cr1   O17   S    
C134  O46   A    
Cr7   O51   S    
C55   H63   S    
C162  O42   A    
C59   C75   A    
C146  H42   S    
C34   C38   A    
C45   O29   A    
C109  C113  A    
C184  H106  S    
C159  O11   A    
C1    O21   A    
C5    C10   A    
C186  H114  S    
C28   C52   A    
C8    C11   A    
C15   C23   A    
C131  C151  A    
Cr1   O41   S    
C163  O43   A    
N1    H77   S    
C102  H17   S    
C142  H46   S    
C183  H104  S    
C16   C24   A    
C181  H96   S    
C164  O16   A    
C111  C115  A    
C145  H41   S    
C97   C101  A    
C120  C124  A    
C36   H72   S    
C77   C157  S    
C126  H50   S    
