data_mof_unit_22395.cif
_audit_creation_date              2012-12-10T16:49:22-0500
_audit_creation_method            fapswitch 2.2
_symmetry_space_group_name_H-M    P1
_symmetry_Int_Tables_number       1
_space_group_crystal_system       triclinic
_cell_length_a                    7.912108
_cell_length_b                    8.559122
_cell_length_c                    12.865137
_cell_angle_alpha                 87.59866
_cell_angle_beta                  88.824058
_cell_angle_gamma                 93.478599
_cell_volume                      868.634755504

loop_
_atom_site_label
_atom_site_type_symbol
_atom_type_description
_atom_site_fract_x
_atom_site_fract_y
_atom_site_fract_z
_atom_type_partial_charge
C1    C     C_R   0.455373 0.205956 0.497572 0.959708
C2    C     C_R   0.712227 0.523948 0.141743 -0.211931
C3    C     C_R   0.593271 0.525077 0.868804 -0.281067
C4    C     C_R   0.406729 0.474947 0.131195 -0.281060
C5    C     C_R   0.580520 0.514942 0.975623 0.188669
C6    C     C_R   0.419479 0.485090 0.024376 0.188676
C7    C     C_2   0.432143 0.042257 0.496001 -0.378854
C8    C     C_2   0.567857 0.957743 0.503997 -0.378822
C9    C     C_3   0.000079 0.683105 0.419473 -0.161684
C10   C     C_3   0.105300 0.728100 0.320161 -0.378725
C11   C     C_3   0.033970 0.866599 0.260530 -0.963134
C12   C     C_R   0.544626 0.794044 0.502428 0.959696
C13   C     C_3   0.999929 0.316894 0.580522 -0.161695
C14   C     C_3   0.894677 0.271848 0.679815 -0.378741
C15   C     C_3   0.966047 0.133364 0.739444 -0.962926
C16   C     C_R   0.467406 0.502982 0.699182 0.871928
C17   C     C_R   0.532594 0.497023 0.300818 0.871916
C18   C     C_R   0.552008 0.496859 0.189765 -0.039769
C19   C     C_R   0.447992 0.503160 0.810234 -0.039752
C20   C     C_R   0.273543 0.466796 0.965684 -0.221251
C21   C     C_R   0.726456 0.533241 0.034315 -0.221231
C22   C     C_R   0.287772 0.476084 0.858256 -0.211980
H1    H     H_    0.283117 0.451043 0.168472 0.154285
H2    H     H_    0.035200 0.970366 0.309656 0.269862
H3    H     H_    0.112988 0.896923 0.189382 0.271462
H4    H     H_    0.237588 0.762832 0.338220 0.272217
H5    H     H_    0.103793 0.626819 0.268880 0.223624
H6    H     H_    0.872499 0.664696 0.391475 0.236662
H7    H     H_    0.007475 0.780975 0.473651 0.162185
H8    H     H_    0.965387 0.029731 0.690188 0.269805
H9    H     H_    0.097677 0.163696 0.763442 0.267057
H10   H     H_    0.886684 0.102678 0.810413 0.271437
H11   H     H_    0.896113 0.373114 0.731111 0.223645
H12   H     H_    0.716883 0.548977 0.831526 0.154284
H13   H     H_    0.762408 0.237075 0.661732 0.272190
H14   H     H_    0.992571 0.219040 0.526331 0.162170
H15   H     H_    0.127496 0.335310 0.608540 0.236684
H16   H     H_    0.825346 0.540654 0.186911 0.161678
H17   H     H_    0.174650 0.459382 0.813089 0.161645
H18   H     H_    0.149644 0.444300 0.002690 0.137212
H19   H     H_    0.850354 0.555741 0.997309 0.137209
H20   H     H_    0.303675 0.991875 0.488191 0.176069
H21   H     H_    0.696326 0.008124 0.511808 0.176096
H22   H     H_    0.902152 0.836506 0.236829 0.267085
N1    N     N_2   0.054030 0.541640 0.471970 -0.066276
N2    N     N_2   0.945970 0.458360 0.528030 -0.066266
O1    O     O_R   0.609680 0.261530 0.506880 -0.622660
O2    O     O_R   0.390320 0.738470 0.493120 -0.622656
O3    O     O_R   0.323330 0.288220 0.488910 -0.656496
O4    O     O_R   0.676670 0.711780 0.511090 -0.656495
O5    O     O_R   0.619510 0.488830 0.661140 -0.637876
O6    O     O_R   0.380490 0.511170 0.338860 -0.637889
O7    O     O_R   0.333160 0.515520 0.643180 -0.646038
O8    O     O_R   0.666840 0.484480 0.356820 -0.646033
Zn1   Zn    Zn3+2 0.691200 0.482180 0.511990 0.913080
Zn2   Zn    Zn3+2 0.308800 0.517820 0.488010 0.913070

loop_
_geom_bond_atom_site_label_1
_geom_bond_atom_site_label_2
_ccdc_geom_bond_type
N2    Zn1   S    
C10   H5    S    
C12   O4    A    
C8    H21   S    
C3    C19   A    
C9    H7    S    
C2    C18   A    
O3    Zn2   S    
C6    C20   A    
C9    C10   S    
C2    H16   S    
C13   H15   S    
O4    Zn1   S    
C14   C15   S    
C16   O5    A    
C12   O2    A    
C8    C12   S    
C4    C18   A    
C10   H4    S    
C14   H11   S    
C17   C18   S    
C11   H22   S    
C1    C7    S    
N1    N2    D    
C15   H9    S    
C13   N2    S    
C2    C21   A    
C16   C19   S    
C21   H19   S    
C9    N1    S    
C17   O6    A    
O1    Zn1   S    
C20   C22   A    
O5    Zn1   S    
C5    C6    A    
C20   H18   S    
O7    Zn2   S    
C10   C11   S    
C22   H17   S    
O8    Zn1   S    
C11   H2    S    
C7    C8    D    
C19   C22   A    
C5    C21   A    
N1    Zn2   S    
C13   H14   S    
C4    C6    A    
C15   H8    S    
C7    H20   S    
C14   H13   S    
O2    Zn2   S    
C4    H1    S    
C11   H3    S    
C16   O7    A    
C1    O1    A    
C3    H12   S    
C13   C14   S    
C1    O3    A    
C17   O8    A    
O6    Zn2   S    
C9    H6    S    
C3    C5    A    
C15   H10   S    
