data_mof_unit_38376.cif
_audit_creation_date              2012-12-11T14:44:16-0500
_audit_creation_method            fapswitch 2.2
_symmetry_space_group_name_H-M    P1
_symmetry_Int_Tables_number       1
_space_group_crystal_system       triclinic
_cell_length_a                    18.955977
_cell_length_b                    10.968757
_cell_length_c                    18.857208
_cell_angle_alpha                 89.986699
_cell_angle_beta                  89.727353
_cell_angle_gamma                 90.164948
_cell_volume                      3920.79603116

loop_
_atom_site_label
_atom_site_type_symbol
_atom_type_description
_atom_site_fract_x
_atom_site_fract_y
_atom_site_fract_z
_atom_type_partial_charge
C1    C     C_R   0.729710 0.375595 0.145356 0.546672
C2    C     C_R   0.995914 0.000399 0.037290 0.291722
C3    C     C_R   0.996707 0.775195 0.037251 -0.032684
C4    C     C_R   0.491637 0.054389 0.036167 -0.002519
C5    C     C_R   0.507839 0.054386 0.963962 -0.002720
C6    C     C_R   0.991637 0.554389 0.036167 -0.002519
C7    C     C_R   0.007839 0.554386 0.963962 -0.002720
C8    C     C_3   0.468305 0.936974 0.070227 -0.351651
C9    C     C_3   0.530706 0.936897 0.929943 -0.350704
C10   C     C_3   0.968305 0.436974 0.070227 -0.351650
C11   C     C_3   0.030706 0.436897 0.929943 -0.350704
C12   C     C_3   0.894021 0.082668 0.560631 0.000960
C13   C     C_R   0.504710 0.500368 0.962596 0.291730
C14   C     C_3   0.960838 0.122008 0.598750 -0.378132
C15   C     C_3   0.109786 0.099083 0.432516 -0.006661
C16   C     C_3   0.040558 0.127442 0.395704 -0.379950
C17   C     C_3   0.394021 0.582668 0.560630 0.000960
C18   C     C_3   0.460839 0.622008 0.598749 -0.378133
C19   C     C_3   0.609786 0.599082 0.432516 -0.006661
C20   C     C_3   0.540559 0.627442 0.395703 -0.379949
C21   C     C_3   0.992587 0.098263 0.852185 -0.042205
C22   C     C_3   0.972190 0.217627 0.817196 -0.358295
C23   C     C_3   0.008285 0.098719 0.147541 -0.042286
C24   C     C_R   0.495914 0.500399 0.037290 0.291723
C25   C     C_3   0.028566 0.218514 0.182304 -0.359720
C26   C     C_3   0.492587 0.598263 0.852185 -0.042205
C27   C     C_3   0.472190 0.717627 0.817196 -0.358295
C28   C     C_3   0.508285 0.598719 0.147541 -0.042286
C29   C     C_3   0.528566 0.718514 0.182304 -0.359721
C30   C     C_R   0.702687 0.855776 0.040314 -0.138033
C31   C     C_R   0.296495 0.854913 0.959457 -0.138204
C32   C     C_R   0.202687 0.355776 0.040314 -0.138033
C33   C     C_R   0.796495 0.354913 0.959457 -0.138204
C34   C     C_R   0.705418 0.841939 0.967055 -0.141602
C35   C     C_R   0.293779 0.840739 0.032695 -0.140622
C36   C     C_R   0.205418 0.341939 0.967055 -0.141602
C37   C     C_R   0.270287 0.375722 0.854640 0.555739
C38   C     C_R   0.793779 0.340739 0.032695 -0.140622
C39   C     C_R   0.753961 0.910115 0.926930 0.026300
C40   C     C_R   0.246181 0.909992 0.073080 0.027409
C41   C     C_R   0.253961 0.410115 0.926930 0.026300
C42   C     C_R   0.746181 0.409992 0.073080 0.027409
C43   C     C_R   0.799735 0.991610 0.960460 -0.130490
C44   C     C_R   0.201289 0.992814 0.039834 -0.130219
C45   C     C_R   0.299735 0.491610 0.960460 -0.130490
C46   C     C_R   0.701289 0.492814 0.039834 -0.130219
C47   C     C_R   0.800036 0.999609 0.032923 -0.126750
C48   C     C_R   0.229710 0.875595 0.145356 0.546672
C49   C     C_R   0.200889 0.001197 0.967384 -0.126004
C50   C     C_R   0.300036 0.499609 0.032923 -0.126750
C51   C     C_R   0.700889 0.501197 0.967384 -0.126004
C52   C     C_R   0.750471 0.934419 0.073537 0.030215
C53   C     C_R   0.249518 0.934874 0.926522 0.030121
C54   C     C_R   0.250470 0.434419 0.073537 0.030215
C55   C     C_R   0.749518 0.434874 0.926522 0.030121
C56   C     C_R   0.488612 0.053637 0.459664 -0.138439
C57   C     C_R   0.483624 0.051640 0.532244 -0.131865
C58   C     C_R   0.988611 0.553637 0.459664 -0.138439
C59   C     C_R   0.770287 0.875722 0.854640 0.555739
C60   C     C_R   0.983623 0.551641 0.532244 -0.131865
C61   C     C_R   0.488981 0.160153 0.571555 0.023032
C62   C     C_R   0.501915 0.163505 0.424338 0.013514
C63   C     C_R   0.988980 0.660153 0.571555 0.023033
C64   C     C_R   0.001915 0.663505 0.424338 0.013514
C65   C     C_R   0.530230 0.155277 0.146854 0.538978
C66   C     C_R   0.469741 0.155389 0.853175 0.542581
C67   C     C_R   0.030230 0.655277 0.146854 0.538978
C68   C     C_R   0.969741 0.655389 0.853175 0.542581
C69   C     C_R   0.500896 0.270551 0.536472 -0.090484
C70   C     C_R   0.513017 0.386562 0.927737 -0.137124
C71   C     C_R   0.504076 0.272769 0.462657 -0.098094
C72   C     C_R   0.000896 0.770551 0.536472 -0.090484
C73   C     C_R   0.004077 0.772769 0.462657 -0.098094
C74   C     C_R   0.821836 0.932503 0.452319 -0.116074
C75   C     C_R   0.184949 0.946685 0.542733 -0.111867
C76   C     C_R   0.321836 0.432503 0.452319 -0.116074
C77   C     C_R   0.684949 0.446685 0.542733 -0.111867
C78   C     C_R   0.830686 0.917056 0.524476 0.249864
C79   C     C_R   0.180319 0.945010 0.470107 0.255648
C80   C     C_R   0.330686 0.417056 0.524476 0.249865
C81   C     C_R   0.487505 0.386591 0.072267 -0.136955
C82   C     C_R   0.680319 0.445010 0.470107 0.255648
C83   C     C_R   0.776470 0.861674 0.564790 0.036272
C84   C     C_R   0.238274 0.902721 0.429062 0.034657
C85   C     C_R   0.276470 0.361675 0.564790 0.036273
C86   C     C_R   0.738274 0.402721 0.429062 0.034658
C87   C     C_R   0.712187 0.831578 0.532400 -0.188749
C88   C     C_R   0.300999 0.868883 0.462649 -0.189575
C89   C     C_R   0.212187 0.331579 0.532400 -0.188749
C90   C     C_R   0.800999 0.368883 0.462649 -0.189575
C91   C     C_R   0.701139 0.861103 0.461658 -0.172032
C92   C     C_R   0.013017 0.886562 0.927737 -0.137124
C93   C     C_R   0.306594 0.880209 0.535778 -0.163678
C94   C     C_R   0.201138 0.361104 0.461658 -0.172032
C95   C     C_R   0.806594 0.380210 0.535778 -0.163678
C96   C     C_R   0.755959 0.912371 0.421553 -0.014993
C97   C     C_R   0.248757 0.922072 0.575594 -0.013228
C98   C     C_R   0.255959 0.412371 0.421553 -0.014993
C99   C     C_R   0.748757 0.422072 0.575594 -0.013228
C100  C     C_R   0.741420 0.970843 0.146887 0.544244
C101  C     C_R   0.258564 0.971059 0.853131 0.546970
C102  C     C_R   0.241420 0.470843 0.146887 0.544244
C103  C     C_R   0.987505 0.886591 0.072267 -0.136955
C104  C     C_R   0.758564 0.471059 0.853131 0.546970
C105  C     C_R   0.727432 0.374296 0.354519 0.559024
C106  C     C_R   0.287880 0.335363 0.639767 0.586201
C107  C     C_R   0.227432 0.874296 0.354519 0.559024
C108  C     C_R   0.787880 0.835363 0.639767 0.586201
C109  C     C_R   0.531275 0.156898 0.353067 0.545963
C110  C     C_R   0.466627 0.156399 0.645482 0.541259
C111  C     C_R   0.031275 0.656898 0.353067 0.545963
C112  C     C_R   0.966627 0.656399 0.645482 0.541258
C113  C     C_R   0.742040 0.969192 0.353546 0.552161
C114  C     C_R   0.004710 0.000368 0.962596 0.291730
C115  C     C_R   0.258478 0.969981 0.646215 0.543129
C116  C     C_R   0.242040 0.469192 0.353546 0.552161
C117  C     C_R   0.758478 0.469981 0.646215 0.543129
C118  C     C_R   0.502299 0.163395 0.925062 0.006782
C119  C     C_R   0.497580 0.163343 0.075028 0.007025
C120  C     C_R   0.002299 0.663395 0.925062 0.006782
C121  C     C_R   0.997580 0.663343 0.075028 0.007024
C122  C     C_R   0.503510 0.275199 0.962811 -0.033271
C123  C     C_R   0.496707 0.275195 0.037251 -0.032684
C124  C     C_R   0.003509 0.775199 0.962811 -0.033271
Cr1   Cr    Cr6+3 0.772000 0.169640 0.250110 1.000800
Cr2   Cr    Cr6+3 0.383330 0.010620 0.749160 0.989488
Cr3   Cr    Cr6+3 0.116670 0.510620 0.250840 0.993773
Cr4   Cr    Cr6+3 0.883330 0.510620 0.749160 0.989487
Cr5   Cr    Cr6+3 0.228000 0.169640 0.749890 0.997982
Cr6   Cr    Cr6+3 0.272000 0.669640 0.250110 1.000800
Cr7   Cr    Cr6+3 0.728000 0.669640 0.749890 0.997982
Cr8   Cr    Cr6+3 0.614960 0.323350 0.249260 1.005121
Cr9   Cr    Cr6+3 0.385040 0.323350 0.750740 1.001229
Cr10  Cr    Cr6+3 0.114960 0.823350 0.249260 1.005121
Cr11  Cr    Cr6+3 0.885040 0.823350 0.750740 1.001229
Cr12  Cr    Cr6+3 0.616670 0.010620 0.250840 0.993773
H1    H     H_    0.865171 0.970952 0.421902 0.129500
H2    H     H_    0.356671 0.860959 0.560644 0.127504
H3    H     H_    0.149081 0.349228 0.439350 0.130642
H4    H     H_    0.856671 0.360960 0.560644 0.127504
H5    H     H_    0.529230 0.383402 0.872894 0.112589
H6    H     H_    0.471334 0.383468 0.127124 0.111674
H7    H     H_    0.029230 0.883402 0.872894 0.112589
H8    H     H_    0.971334 0.883468 0.127124 0.111674
H9    H     H_    0.663578 0.805856 0.070599 0.118807
H10   H     H_    0.334920 0.804159 0.928943 0.118999
H11   H     H_    0.163577 0.305856 0.070599 0.118807
H12   H     H_    0.139234 0.976110 0.572934 0.129925
H13   H     H_    0.834920 0.304159 0.928943 0.118999
H14   H     H_    0.670870 0.776431 0.941999 0.136809
H15   H     H_    0.327601 0.774161 0.057522 0.137333
H16   H     H_    0.170870 0.276431 0.941999 0.136809
H17   H     H_    0.827601 0.274160 0.057522 0.137333
H18   H     H_    0.838377 0.044616 0.931091 0.143037
H19   H     H_    0.163369 0.046602 0.069425 0.142012
H20   H     H_    0.338377 0.544615 0.931091 0.143037
H21   H     H_    0.663369 0.546602 0.069425 0.142012
H22   H     H_    0.837864 0.061137 0.056668 0.156459
H23   H     H_    0.365171 0.470951 0.421902 0.129500
H24   H     H_    0.163714 0.063748 0.943833 0.156216
H25   H     H_    0.337864 0.561137 0.056668 0.156459
H26   H     H_    0.663714 0.563748 0.943833 0.156216
H27   H     H_    0.485670 0.967450 0.431709 0.125818
H28   H     H_    0.473842 0.964166 0.557100 0.129208
H29   H     H_    0.985669 0.467450 0.431708 0.125818
H30   H     H_    0.973841 0.464166 0.557099 0.129208
H31   H     H_    0.506611 0.354392 0.566023 0.173397
H32   H     H_    0.510068 0.358554 0.435484 0.189333
H33   H     H_    0.006611 0.854392 0.566023 0.173397
H34   H     H_    0.639234 0.476110 0.572934 0.129925
H35   H     H_    0.010068 0.858554 0.435484 0.189333
H36   H     H_    0.431393 0.888284 0.034972 0.144339
H37   H     H_    0.514984 0.878728 0.077731 0.176748
H38   H     H_    0.439765 0.953165 0.120895 0.135608
H39   H     H_    0.567190 0.887813 0.965318 0.144712
H40   H     H_    0.483742 0.878953 0.922070 0.176169
H41   H     H_    0.559653 0.953180 0.879483 0.137782
H42   H     H_    0.931393 0.388284 0.034972 0.144339
H43   H     H_    0.014984 0.378728 0.077731 0.176748
H44   H     H_    0.939765 0.453165 0.120895 0.135608
H45   H     H_    0.669327 0.791154 0.562494 0.134494
H46   H     H_    0.067190 0.387813 0.965318 0.144711
H47   H     H_    0.983742 0.378953 0.922070 0.176169
H48   H     H_    0.059653 0.453180 0.879483 0.137782
H49   H     H_    0.847764 0.115891 0.591727 0.156889
H50   H     H_    0.893774 0.126420 0.507397 0.109549
H51   H     H_    0.007967 0.094108 0.567682 0.142369
H52   H     H_    0.961489 0.222629 0.605214 0.087250
H53   H     H_    0.963024 0.078448 0.651843 0.158304
H54   H     H_    0.153715 0.135522 0.399143 0.146621
H55   H     H_    0.109408 0.144874 0.485104 0.110500
H56   H     H_    0.345494 0.834549 0.432498 0.122164
H57   H     H_    0.995551 0.096378 0.428951 0.140669
H58   H     H_    0.035992 0.227189 0.386775 0.090621
H59   H     H_    0.038349 0.079480 0.343927 0.156873
H60   H     H_    0.347764 0.615892 0.591726 0.156889
H61   H     H_    0.393774 0.626419 0.507396 0.109549
H62   H     H_    0.507968 0.594106 0.567682 0.142370
H63   H     H_    0.461491 0.722629 0.605211 0.087250
H64   H     H_    0.463024 0.578451 0.651842 0.158303
H65   H     H_    0.653715 0.635521 0.399143 0.146621
H66   H     H_    0.609408 0.644874 0.485104 0.110500
H67   H     H_    0.169326 0.291154 0.562494 0.134494
H68   H     H_    0.495551 0.596377 0.428951 0.140669
H69   H     H_    0.535992 0.727188 0.386775 0.090620
H70   H     H_    0.538350 0.579480 0.343927 0.156873
H71   H     H_    0.948115 0.034129 0.842154 0.157232
H72   H     H_    0.041403 0.065910 0.825233 0.132172
H73   H     H_    0.017729 0.281064 0.816760 0.146644
H74   H     H_    0.957333 0.200427 0.761233 0.083583
H75   H     H_    0.925922 0.258067 0.844428 0.156912
H76   H     H_    0.052884 0.035242 0.157475 0.156938
H77   H     H_    0.959614 0.065736 0.174706 0.130604
H78   H     H_    0.845494 0.334549 0.432498 0.122164
H79   H     H_    0.982784 0.280972 0.183221 0.144691
H80   H     H_    0.044112 0.201741 0.238065 0.081129
H81   H     H_    0.074395 0.259943 0.154642 0.157363
H82   H     H_    0.448115 0.534129 0.842154 0.157232
H83   H     H_    0.541403 0.565910 0.825232 0.132172
H84   H     H_    0.517729 0.781064 0.816760 0.146644
H85   H     H_    0.457333 0.700427 0.761233 0.083583
H86   H     H_    0.425922 0.758067 0.844428 0.156912
H87   H     H_    0.552884 0.535242 0.157475 0.156938
H88   H     H_    0.459614 0.565736 0.174706 0.130604
H89   H     H_    0.649081 0.849227 0.439350 0.130642
H90   H     H_    0.482785 0.780972 0.183221 0.144691
H91   H     H_    0.544112 0.701742 0.238065 0.081129
H92   H     H_    0.574395 0.759943 0.154642 0.157363
O1    O     O_R   0.787540 0.042690 0.170470 -0.533959
O2    O     O_R   0.454130 0.051100 0.669160 -0.531898
O3    O     O_R   0.045870 0.551100 0.330840 -0.529998
O4    O     O_R   0.954130 0.551100 0.669160 -0.531898
O5    O     O_R   0.681340 0.959300 0.325510 -0.502612
O6    O     O_R   0.318660 0.959300 0.674490 -0.506317
O7    O     O_R   0.181340 0.459300 0.325510 -0.502612
O8    O     O_R   0.818660 0.459300 0.674490 -0.506318
O9    O     O_3   0.667880 0.167870 0.250070 -0.237411
O10   O     O_3   0.332120 0.167870 0.749930 -0.257399
O11   O     O_3   0.167880 0.667870 0.250070 -0.237411
O12   O     O_R   0.212460 0.042690 0.829530 -0.532462
O13   O     O_3   0.832120 0.667870 0.749930 -0.257399
O14   O     O_R   0.765660 0.292160 0.175050 -0.507500
O15   O     O_R   0.234340 0.292160 0.824950 -0.502017
O16   O     O_R   0.265660 0.792160 0.175050 -0.507500
O17   O     O_R   0.734340 0.792160 0.824950 -0.502017
O18   O     O_R   0.670190 0.408980 0.168550 -0.541103
O19   O     O_R   0.329810 0.408980 0.831450 -0.537711
O20   O     O_R   0.170190 0.908980 0.168550 -0.541103
O21   O     O_R   0.829810 0.908980 0.831450 -0.537711
O22   O     O_R   0.556580 0.251450 0.175160 -0.513883
O23   O     O_R   0.287540 0.542690 0.170470 -0.533959
O24   O     O_R   0.443420 0.251450 0.824840 -0.512975
O25   O     O_R   0.056580 0.751450 0.175160 -0.513883
O26   O     O_R   0.943420 0.751450 0.824840 -0.512975
O27   O     O_R   0.545920 0.049510 0.170320 -0.524526
O28   O     O_R   0.454080 0.049510 0.829680 -0.521557
O29   O     O_R   0.045920 0.549510 0.170320 -0.524526
O30   O     O_R   0.954080 0.549510 0.829680 -0.521557
O31   O     O_R   0.681390 0.957840 0.176710 -0.506423
O32   O     O_R   0.318610 0.957840 0.823290 -0.503458
O33   O     O_R   0.181390 0.457840 0.176710 -0.506423
O34   O     O_R   0.712460 0.542690 0.829530 -0.532462
O35   O     O_R   0.818610 0.457840 0.823290 -0.503458
O36   O     O_R   0.787500 0.044280 0.330990 -0.531228
O37   O     O_R   0.212500 0.044280 0.669010 -0.539027
O38   O     O_R   0.287500 0.544280 0.330990 -0.531228
O39   O     O_R   0.712500 0.544280 0.669010 -0.539027
O40   O     O_R   0.765610 0.293630 0.323860 -0.514649
O41   O     O_R   0.234390 0.293630 0.676140 -0.518429
O42   O     O_R   0.265610 0.793630 0.323860 -0.514649
O43   O     O_R   0.734390 0.793630 0.676140 -0.518429
O44   O     O_R   0.670140 0.410570 0.329080 -0.472025
O45   O     O_R   0.556540 0.252920 0.323970 -0.493913
O46   O     O_R   0.329860 0.410570 0.670920 -0.480743
O47   O     O_R   0.170140 0.910570 0.329080 -0.472025
O48   O     O_R   0.829860 0.910570 0.670920 -0.480743
O49   O     O_3   0.893196 0.954128 0.555158 -0.562956
O50   O     O_3   0.115744 0.971951 0.440598 -0.560180
O51   O     O_3   0.393196 0.454128 0.555158 -0.562956
O52   O     O_3   0.615744 0.471950 0.440598 -0.560180
O53   O     O_3   0.005137 0.112325 0.926218 -0.555269
O54   O     O_3   0.995475 0.112430 0.073541 -0.555118
O55   O     O_3   0.505137 0.612325 0.926218 -0.555269
O56   O     O_R   0.443460 0.252920 0.676030 -0.502126
O57   O     O_3   0.495475 0.612430 0.073541 -0.555118
O58   O     O_R   0.056540 0.752920 0.323970 -0.493913
O59   O     O_R   0.943460 0.752920 0.676030 -0.502126
O60   O     O_R   0.545870 0.051100 0.330840 -0.529998

loop_
_geom_bond_atom_site_label_1
_geom_bond_atom_site_label_2
_ccdc_geom_bond_type
C44   C49   A    
Cr4   O8    S    
C83   C87   A    
C22   H73   S    
C76   H23   S    
Cr3   O11   S    
C37   O15   A    
C87   C91   A    
Cr5   O10   S    
C26   H82   S    
C111  O3    A    
Cr10  O11   S    
C6    C7    A    
Cr12  O27   S    
C25   H81   S    
C19   C20   S    
C106  O46   A    
C19   H65   S    
C4    C8    S    
C66   O28   A    
Cr8   O18   S    
C103  H8    S    
C34   H14   S    
Cr8   O22   S    
C90   C95   A    
C2    O54   S    
C32   H11   S    
C50   H25   S    
Cr6   O23   S    
C56   C57   A    
C105  O40   A    
C113  O5    A    
C57   H28   S    
C56   H27   S    
C26   C27   S    
C50   C54   A    
C75   C79   A    
C104  O34   A    
C9    H40   S    
C60   C63   A    
C10   H43   S    
C29   H90   S    
C21   H72   S    
C21   C22   S    
C28   C29   S    
Cr2   O2    S    
C38   C42   A    
C9    H39   S    
Cr1   O1    S    
C1    O18   A    
C92   C124  A    
C118  C122  A    
C79   C84   A    
Cr6   O42   S    
C95   C99   A    
C23   O54   S    
C110  O56   A    
C13   C70   A    
C94   C98   A    
C76   C98   A    
C15   C16   S    
C101  O32   A    
C22   H74   S    
C75   C97   A    
C84   C107  S    
C83   C108  S    
C116  O7    A    
C51   H26   S    
C26   O55   S    
Cr11  O48   S    
C42   C46   A    
Cr4   O35   S    
Cr10  O20   S    
C89   C94   A    
C69   C71   A    
C92   H7    S    
C21   O53   S    
C31   C35   A    
C16   H57   S    
C110  O2    A    
C91   C96   A    
C88   C93   A    
C109  O60   A    
Cr6   O16   S    
C78   C83   A    
C79   O50   S    
C53   C101  S    
C77   H34   S    
C27   H86   S    
C59   O21   A    
C80   O51   S    
Cr10  O47   S    
C64   C73   A    
Cr3   O29   S    
C49   H24   S    
C17   H61   S    
C93   H2    S    
C104  O35   A    
C20   H70   S    
C73   H35   S    
C43   H18   S    
C107  O47   A    
C18   H63   S    
C74   C78   A    
Cr5   O41   S    
C48   O16   A    
Cr7   O34   S    
C105  O44   A    
C19   O52   S    
C100  O31   A    
C39   C59   S    
C27   H84   S    
Cr4   O4    S    
Cr12  O9    S    
C91   H89   S    
C107  O42   A    
Cr4   O13   S    
C31   H10   S    
C36   C41   A    
C11   H46   S    
C35   H15   S    
C20   H69   S    
Cr11  O21   S    
C61   C110  S    
C67   C121  S    
C32   C54   A    
C12   O49   S    
Cr7   O17   S    
C58   C60   A    
C82   O52   S    
C67   O25   A    
C58   C64   A    
C74   H1    S    
C66   O24   A    
Cr6   O11   S    
C27   H85   S    
C30   C34   A    
C34   C39   A    
C10   H42   S    
C74   C96   A    
C25   H79   S    
Cr1   O9    S    
C11   H47   S    
C20   H68   S    
Cr7   O13   S    
C66   C118  S    
C22   H75   S    
C85   C89   A    
C8    H37   S    
C13   O55   S    
C64   C111  S    
C39   C43   A    
Cr5   O15   S    
C117  O8    A    
C29   H92   S    
C82   C86   A    
C46   H21   S    
C46   C51   A    
C52   C100  S    
C19   H66   S    
C60   H30   S    
C102  O23   A    
C13   C24   A    
C120  C124  A    
C58   H29   S    
C113  O36   A    
Cr4   O30   S    
C95   H4    S    
Cr6   O38   S    
C7    C11   S    
Cr8   O9    S    
C69   H31   S    
C6    C10   S    
C18   H62   S    
C80   C85   A    
C68   O26   A    
C99   C117  S    
C14   H52   S    
C70   C122  A    
C114  O53   S    
C98   C116  S    
C24   C81   A    
C40   C44   A    
C28   H88   S    
C12   H50   S    
Cr12  O5    S    
Cr12  O31   S    
Cr3   O3    S    
C17   C18   S    
C65   C119  S    
C102  O33   A    
Cr7   O43   S    
Cr1   O14   S    
C59   O17   A    
C45   H20   S    
C117  O39   A    
C21   H71   S    
C31   C53   A    
C32   C36   A    
Cr9   O24   S    
Cr8   O44   S    
C17   O51   S    
Cr9   O19   S    
C108  O43   A    
C81   H6    S    
C89   H67   S    
C15   H54   S    
C12   C14   S    
C71   H32   S    
Cr1   O40   S    
C86   C90   A    
C56   C62   A    
C96   C113  S    
C86   C105  S    
Cr11  O59   S    
Cr9   O10   S    
C29   H91   S    
C85   C106  S    
Cr12  O60   S    
C93   C97   A    
C90   H78   S    
Cr5   O37   S    
C3    C124  A    
C30   H9    S    
C100  O1    A    
C23   H77   S    
C94   H3    S    
C61   C69   A    
C88   H56   S    
C30   C52   A    
C24   O57   S    
C28   O57   S    
C70   H5    S    
Cr9   O46   S    
C26   H83   S    
C63   C112  S    
C44   H19   S    
Cr3   O7    S    
C7    C120  A    
C54   C102  S    
C15   O50   S    
C36   H16   S    
C11   H48   S    
C84   C88   A    
Cr10  O25   S    
C5    C9    S    
C72   C73   A    
C108  O48   A    
C37   O19   A    
C87   H45   S    
C8    H38   S    
C76   C80   A    
C8    H36   S    
C57   C61   A    
C47   C52   A    
C119  C123  A    
C75   H12   S    
C68   O30   A    
Cr9   O56   S    
C15   H55   S    
C116  O38   A    
C33   C38   A    
C38   H17   S    
Cr2   O32   S    
C5    C118  A    
C14   H53   S    
C10   H44   S    
C72   H33   S    
Cr11  O13   S    
C4    C119  A    
C35   C40   A    
Cr5   O12   S    
C16   H59   S    
C33   H13   S    
C68   C120  S    
C18   H64   S    
C14   H51   S    
C2    C114  A    
C112  O4    A    
C62   C109  S    
C43   C47   A    
C77   C82   A    
C55   C104  S    
C28   H87   S    
C49   C53   A    
Cr8   O45   S    
C65   O27   A    
Cr1   O36   S    
Cr10  O58   S    
C111  O58   A    
C62   C71   A    
C77   C99   A    
C51   C55   A    
C1    O14   A    
C23   C25   S    
Cr11  O26   S    
C37   C41   S    
Cr2   O6    S    
C2    C103  A    
C3    C103  A    
C81   C123  A    
C16   H58   S    
C78   O49   S    
C3    C121  A    
C25   H80   S    
C112  O59   A    
Cr3   O33   S    
C1    C42   S    
C4    C5    A    
Cr7   O39   S    
C63   C72   A    
C106  O41   A    
C48   O20   A    
C23   H76   S    
C12   H49   S    
C97   C115  S    
C41   C45   A    
C17   H60   S    
Cr2   O28   S    
C45   C50   A    
C67   O29   A    
C6    C121  A    
C122  C123  A    
C65   O22   A    
C92   C114  A    
C40   C48   S    
C115  O6    A    
C109  O45   A    
C33   C55   A    
C115  O37   A    
C9    H41   S    
C101  O12   A    
C47   H22   S    
Cr2   O10   S    
