data_mof_unit_68366.cif
_audit_creation_date              2012-12-10T19:43:23-0500
_audit_creation_method            fapswitch 2.2
_symmetry_space_group_name_H-M    P1
_symmetry_Int_Tables_number       1
_space_group_crystal_system       triclinic
_cell_length_a                    10.978422
_cell_length_b                    11.019866
_cell_length_c                    9.999261
_cell_angle_alpha                 90.167634
_cell_angle_beta                  91.612485
_cell_angle_gamma                 98.879569
_cell_volume                      1194.71382124

loop_
_atom_site_label
_atom_site_type_symbol
_atom_type_description
_atom_site_fract_x
_atom_site_fract_y
_atom_site_fract_z
_atom_type_partial_charge
C1    C     C_R   0.487365 0.262399 0.499378 0.829665
C2    C     C_R   0.138014 0.547219 0.983571 0.160987
C3    C     C_R   0.920673 0.438301 0.391138 0.302396
C4    C     C_R   0.865705 0.474230 0.504544 -0.177143
C5    C     C_R   0.938164 0.487903 0.621672 -0.011781
C6    C     C_R   0.064115 0.532092 0.611008 0.340316
C7    C     C_R   0.124630 0.499929 0.496053 -0.132774
C8    C     C_R   0.049021 0.460486 0.382041 -0.034079
C9    C     C_R   0.864835 0.473943 0.852280 -0.318733
C10   C     C_R   0.790441 0.411467 0.949591 0.373321
C11   C     C_R   0.733151 0.289727 0.925482 0.186471
C12   C     C_R   0.262416 0.502703 0.498390 0.827673
C13   C     C_R   0.762208 0.226639 0.810716 0.297426
C14   C     C_R   0.846943 0.286456 0.721985 0.271864
C15   C     C_R   0.891062 0.413558 0.736961 -0.019418
C16   C     C_R   0.334449 0.089961 0.691886 0.285240
C17   C     C_R   0.312736 0.033105 0.815484 0.485521
C18   C     C_R   0.376942 0.935788 0.849123 0.174399
C19   C     C_R   0.441851 0.884328 0.751750 -0.151609
C20   C     C_R   0.455771 0.935569 0.623237 -0.018866
C21   C     C_R   0.424515 0.055043 0.608948 -0.112423
C22   C     C_R   0.464703 0.125209 0.497973 -0.126399
C23   C     C_R   0.499684 0.737850 0.501807 0.892406
C24   C     C_R   0.475125 0.060467 0.381754 0.237914
C25   C     C_R   0.502953 0.940913 0.386895 0.420221
C26   C     C_R   0.493266 0.873980 0.507362 -0.097091
C27   C     C_R   0.649918 0.704788 0.139134 0.325139
C28   C     C_R   0.696602 0.808905 0.064737 0.280927
C29   C     C_R   0.706379 0.797908 0.928831 0.156716
C30   C     C_R   0.655453 0.689801 0.864309 0.345860
C31   C     C_R   0.572753 0.595221 0.928111 0.007124
C32   C     C_R   0.572196 0.597683 0.076317 -0.021324
C33   C     C_R   0.429766 0.413396 0.071920 0.574106
C34   C     C_R   0.734016 0.488988 0.501775 0.872662
C35   C     C_R   0.433351 0.410480 0.926384 0.433826
C36   C     C_R   0.102812 0.635495 0.066318 0.202989
C37   C     C_R   0.087502 0.609401 0.200576 0.189404
C38   C     C_R   0.090281 0.488454 0.246785 -0.127905
C39   C     C_R   0.100274 0.392986 0.154277 0.344984
C40   C     C_R   0.121614 0.423931 0.019619 0.290399
Cu1   Cu    Cu3+1 0.499990 0.499990 0.640660 1.047063
Cu2   Cu    Cu3+1 0.500010 0.500010 0.359340 1.134103
H1    H     H_    0.482444 0.807283 0.783024 0.229314
H2    H     H_    0.897573 0.571233 0.863660 0.197249
N1    N     N_R   0.501190 0.501210 0.147910 -0.183410
N2    N     N_R   0.501230 0.501290 0.852040 -0.218177
O1    O     O_R   0.499990 0.319640 0.618810 -0.608339
O2    O     O_R   0.500000 0.319660 0.381240 -0.486829
O3    O     O_R   0.319640 0.500000 0.618780 -0.549510
O4    O     O_R   0.319650 0.500020 0.381210 -0.561543
O5    O     O_R   0.500000 0.680340 0.618760 -0.543750
O6    O     O_R   0.500010 0.680360 0.381190 -0.512617
O7    O     O_R   0.680350 0.499980 0.618790 -0.543061
O8    O     O_R   0.680360 0.500000 0.381220 -0.506838
Br1   Br    Br    0.258496 0.602904 0.860869 -0.418082
Br2   Br    Br    0.615852 0.210861 0.048605 -0.426835
O9    O     O_3   0.708359 0.108050 0.778794 -0.638823
H3    H     H_    0.641684 0.079209 0.840399 0.356824
Br3   Br    Br    0.897413 0.188739 0.580739 -0.273883
Br4   Br    Br    0.363808 0.088046 0.240900 -0.321402
Br5   Br    Br    0.211072 0.177706 0.614989 -0.348705
O10   O     O_3   0.226996 0.072684 0.896720 -0.629974
H4    H     H_    0.221346 0.025255 0.980380 0.404806
Br6   Br    Br    0.373019 0.860890 0.020255 -0.424742
O11   O     O_3   0.530886 0.886084 0.271286 -0.647316
H5    H     H_    0.552460 0.951342 0.204393 0.389498
O12   O     O_3   0.350663 0.328825 0.139945 -0.652463
H6    H     H_    0.303225 0.270072 0.075987 0.404644
Br7   Br    Br    0.061638 0.785215 0.991128 -0.346299
Br8   Br    Br    0.743619 0.727626 0.306232 -0.285121
O13   O     O_3   0.749301 0.916920 0.128946 -0.608415
H7    H     H_    0.739547 0.987371 0.070406 0.364930
O14   O     O_3   0.774640 0.888852 0.854977 -0.637261
H8    H     H_    0.845156 0.930093 0.910647 0.396302
O15   O     O_3   0.691142 0.678290 0.736789 -0.631960
H9    H     H_    0.778651 0.715673 0.726633 0.380050
O16   O     O_3   0.362322 0.314671 0.861628 -0.686732
H10   H     H_    0.345669 0.343942 0.771592 0.404734
Br9   Br    Br    0.065319 0.742964 0.316402 -0.266067
O17   O     O_3   0.092785 0.271297 0.191802 -0.641633
H11   H     H_    0.099735 0.265740 0.290413 0.390345
O18   O     O_3   0.128317 0.337364 0.921288 -0.643695
H12   H     H_    0.098985 0.254483 0.956499 0.410145
Br10  Br    Br    0.828359 0.312798 0.280852 -0.327030
Br11  Br    Br    0.090211 0.706472 0.644289 -0.344047
O19   O     O_3   0.769022 0.469589 0.066284 -0.676322
H13   H     H_    0.824508 0.549577 0.072735 0.320467

loop_
_geom_bond_atom_site_label_1
_geom_bond_atom_site_label_2
_ccdc_geom_bond_type
Cu1   Cu2   S    
C16   C21   A    
C33   N1    A    
C32   N1    A    
C19   C20   A    
C12   O3    A    
O9    H3    S    
C7    C8    A    
O16   H10   S    
C14   Br3   S    
C37   Br9   S    
C29   C30   A    
C6    Br11  S    
C36   C37   A    
C2    Br1   S    
C5    C6    A    
C29   O14   S    
C18   C19   A    
O14   H8    S    
C23   C26   S    
C10   O19   S    
C16   C17   A    
C31   N2    A    
Cu1   N2    S    
C9    C10   A    
C1    C22   S    
C21   C22   A    
C8    C38   S    
Cu1   O3    S    
C19   H1    S    
C7    C12   S    
C4    C34   S    
O12   H6    S    
C40   O18   S    
C25   O11   S    
C24   C25   A    
C3    C8    A    
C39   C40   A    
O19   H13   S    
C1    O1    A    
C25   C26   A    
C35   O16   S    
Cu2   N1    S    
C38   C39   A    
O15   H9    S    
C37   C38   A    
C17   O10   S    
C23   O5    A    
C31   C32   A    
C24   Br4   S    
O10   H4    S    
C17   C18   A    
Cu1   O1    S    
Cu2   O2    S    
Cu1   O7    S    
C27   Br8   S    
Cu2   O4    S    
C34   O8    A    
C22   C24   A    
C28   O13   S    
C16   Br5   S    
C3    C4    A    
C3    Br10  S    
C36   Br7   S    
C33   O12   S    
C2    C36   A    
C28   C29   A    
C9    H2    S    
C27   C32   A    
O17   H11   S    
C12   O4    A    
C1    O2    A    
C6    C7    A    
C39   O17   S    
C9    C15   A    
O13   H7    S    
Cu2   O8    S    
C30   O15   S    
C11   C13   A    
C18   Br6   S    
C23   O6    A    
C30   C31   A    
C20   C26   A    
C33   C35   A    
C5    C15   S    
C10   C11   A    
C2    C40   A    
C4    C5    A    
C13   O9    S    
C20   C21   A    
C34   O7    A    
O11   H5    S    
C27   C28   A    
C14   C15   A    
O18   H12   S    
C13   C14   A    
C35   N2    A    
Cu1   O5    S    
C11   Br2   S    
Cu2   O6    S    
