data_mof_unit_66112.cif
_audit_creation_date              2012-12-10T17:06:00-0500
_audit_creation_method            fapswitch 2.2
_symmetry_space_group_name_H-M    P1
_symmetry_Int_Tables_number       1
_space_group_crystal_system       triclinic
_cell_length_a                    11.547014
_cell_length_b                    10.73777
_cell_length_c                    10.061884
_cell_angle_alpha                 90.383093
_cell_angle_beta                  90.096821
_cell_angle_gamma                 89.988402
_cell_volume                      1247.53506109

loop_
_atom_site_label
_atom_site_type_symbol
_atom_type_description
_atom_site_fract_x
_atom_site_fract_y
_atom_site_fract_z
_atom_type_partial_charge
C1    C     C_R   0.502414 0.262804 0.499398 0.894012
C2    C     C_1   0.161535 0.499951 0.499714 -0.155266
C3    C     C_1   0.059347 0.499979 0.499827 0.019774
C4    C     C_1   0.940656 0.500004 0.500101 0.012632
C5    C     C_1   0.838467 0.500015 0.500243 -0.173787
C6    C     C_2   0.489440 0.932968 0.389771 -0.307190
C7    C     C_2   0.474538 0.867871 0.501318 0.473761
C8    C     C_2   0.480159 0.066624 0.390347 -0.122682
C9    C     C_2   0.512826 0.131207 0.497575 -0.231741
C10   C     C_2   0.522732 0.597295 0.926049 -0.074735
C11   C     C_2   0.541761 0.589192 0.073555 0.086539
C12   C     C_R   0.282039 0.499922 0.499891 0.906632
C13   C     C_R   0.495045 0.737183 0.500369 0.810632
C14   C     C_R   0.717959 0.500015 0.500098 0.892673
F1    F     F_    0.431843 0.919704 0.615184 -0.660426
H1    H     H_    0.511637 0.888268 0.295980 0.149286
H2    H     H_    0.450346 0.111922 0.300254 0.175217
H3    H     H_    0.550145 0.087909 0.584888 0.200505
H4    H     H_    0.533182 0.687258 0.879321 0.157853
H5    H     H_    0.510839 0.415031 0.894301 0.237679
H6    H     H_    0.589772 0.664167 0.120868 0.077760
H7    H     H_    0.388303 0.379145 0.167533 0.376651
N1    N     N_2   0.501210 0.501330 0.852150 -0.169506
N2    N     N_2   0.501250 0.501360 0.147810 0.048413
O1    O     O_R   0.499980 0.319060 0.613040 -0.608112
O2    O     O_R   0.500020 0.319100 0.386900 -0.630985
O3    O     O_R   0.334430 0.499990 0.613070 -0.585423
O4    O     O_R   0.334470 0.500030 0.386930 -0.609261
O5    O     O_R   0.499980 0.680900 0.613100 -0.579165
O6    O     O_R   0.500020 0.680940 0.386960 -0.659846
O7    O     O_R   0.665530 0.499970 0.613070 -0.613791
O8    O     O_R   0.665570 0.500010 0.386930 -0.613281
O9    O     O_3   0.417600 0.430587 0.093667 -0.697410
Zn1   Zn    Zn3+2 0.499980 0.499970 0.650990 0.995859
Zn2   Zn    Zn3+2 0.500020 0.500030 0.349010 0.976727

loop_
_geom_bond_atom_site_label_1
_geom_bond_atom_site_label_2
_ccdc_geom_bond_type
C9    H3    S    
C6    C7    D    
C10   N1    D    
O1    Zn1   S    
N2    O9    S    
H5    N1    S    
C14   O7    A    
N1    Zn1   S    
C2    C12   S    
C7    F1    S    
C2    C3    T    
O7    Zn1   S    
C1    O1    A    
C5    C14   S    
O6    Zn2   S    
C12   O4    A    
C13   O5    A    
C10   H4    S    
O3    Zn1   S    
C1    O2    A    
N2    Zn2   S    
C10   C11   S    
C12   O3    A    
C6    H1    S    
C3    C4    S    
O8    Zn2   S    
C11   N2    D    
C7    C13   S    
C1    C9    S    
C13   O6    A    
O2    Zn2   S    
H7    O9    S    
C8    C9    D    
C6    C8    S    
O5    Zn1   S    
C11   H6    S    
C8    H2    S    
O4    Zn2   S    
C14   O8    A    
C4    C5    T    
