data_mof_unit_6384.cif
_audit_creation_date              2013-03-05T15:40:48-0500
_audit_creation_method            fapswitch 2.2
_symmetry_space_group_name_H-M    P1
_symmetry_Int_Tables_number       1
_space_group_crystal_system       triclinic
_cell_length_a                    7.756467
_cell_length_b                    8.675199
_cell_length_c                    14.936841
_cell_angle_alpha                 91.370933
_cell_angle_beta                  85.593353
_cell_angle_gamma                 93.787259
_cell_volume                      999.744407302

loop_
_atom_site_label
_atom_site_type_symbol
_atom_site_description
_atom_site_fract_x
_atom_site_fract_y
_atom_site_fract_z
_atom_type_partial_charge
O1    O     O_R   0.389250 0.738570 0.505970 -0.582211
O2    O     O_R   0.610750 0.261430 0.494030 -0.582211
O3    O     O_R   0.678390 0.711620 0.490370 -0.591781
O4    O     O_R   0.321610 0.288380 0.509630 -0.591782
C1    C     C_R   0.545249 0.794030 0.496631 0.887197
C2    C     C_R   0.454751 0.205970 0.503369 0.887197
O5    O     O_R   0.355420 0.513510 0.639950 -0.623111
O6    O     O_R   0.644580 0.486490 0.360050 -0.623111
O7    O     O_R   0.644560 0.486560 0.624350 -0.620264
O8    O     O_R   0.355440 0.513440 0.375650 -0.620263
C3    C     C_R   0.501482 0.498618 0.673074 0.885668
C4    C     C_R   0.498518 0.501382 0.326926 0.885668
Zn1   Zn    Zn3+2 0.306940 0.517990 0.510420 1.051852
Zn2   Zn    Zn3+2 0.693060 0.482010 0.489580 1.051852
C5    C     C_R   0.350977 0.443809 0.190876 -0.166334
C6    C     C_R   0.649023 0.556191 0.809124 -0.166333
C7    C     C_R   0.496327 0.505468 0.231470 -0.071979
C8    C     C_R   0.503673 0.494532 0.768530 -0.071979
C9    C     C_R   0.642233 0.567999 0.181282 -0.184078
C10   C     C_R   0.357767 0.432001 0.818718 -0.184078
C11   C     C_R   0.645750 0.568160 0.088308 0.051502
C12   C     C_R   0.354250 0.431840 0.911692 0.051502
C13   C     C_R   0.499520 0.502122 0.046616 0.035717
C14   C     C_R   0.500480 0.497878 0.953384 0.035717
C15   C     C_R   0.352130 0.440058 0.098284 0.092497
C16   C     C_R   0.647870 0.559942 0.901716 0.092497
C17   C     C_R   0.791191 0.631435 0.036004 0.265103
C18   C     C_R   0.208809 0.368565 0.963995 0.265103
C19   C     C_R   0.791122 0.626452 0.943010 -0.174949
C20   C     C_R   0.208878 0.373548 0.056990 -0.174949
H1    H     H_    0.239262 0.395106 0.231350 0.161801
H2    H     H_    0.760738 0.604894 0.768650 0.161801
H3    H     H_    0.751800 0.616376 0.215647 0.205708
H4    H     H_    0.248200 0.383624 0.784353 0.205708
H5    H     H_    0.903395 0.674662 0.902913 0.189430
H6    H     H_    0.096605 0.325338 0.097087 0.189430
C21   C     C_2   0.569450 0.956028 0.501182 -0.016750
C22   C     C_2   0.430550 0.043972 0.498817 -0.016750
N1    N     N_2   0.950330 0.457950 0.475660 -0.140017
N2    N     N_2   0.049670 0.542050 0.524340 -0.140017
H7    H     H_    0.014236 0.382787 0.432524 0.219151
H8    H     H_    0.985764 0.617213 0.567476 0.219151
Br1   Br    Br    0.992822 0.727851 0.086801 -0.478454
Br2   Br    Br    0.007178 0.272149 0.913199 -0.478454
N3    N     N_R   0.741724 0.017530 0.515891 0.236957
O9    O     O_R   0.858468 0.029305 0.448690 -0.299100
O10   O     O_R   0.782415 0.056921 0.596567 -0.333556
N4    N     N_R   0.258276 0.982470 0.484108 0.236957
O11   O     O_R   0.141532 0.970695 0.551310 -0.299100
O12   O     O_R   0.217585 0.943078 0.403433 -0.333556

loop_
_geom_bond_atom_site_label_1
_geom_bond_atom_site_label_2
_geom_bond_distance
_ccdc_geom_bond_type
C4    C7    1.428540 S    
O7    Zn2   2.019205 S    
C2    C22   1.406216 S    
C3    C8    1.428540 S    
C5    H1    1.085452 S    
C21   C22   1.363734 D    
C1    C21   1.406216 S    
C6    H2    1.085452 S    
C19   H5    1.084299 S    
C22   N4    1.436594 S    
O6    C4    1.285899 A    
C13   C14   1.391671 A    
C10   H4    1.082350 S    
C18   C20   1.388726 A    
C11   C17   1.409816 A    
N1    H7    1.029344 S    
C12   C18   1.409816 A    
N3    O9    1.300373 A    
O5    C3    1.285898 A    
O7    C3    1.288329 A    
O2    C2    1.270985 A    
O3    Zn2   2.002351 S    
O8    C4    1.288329 A    
O1    C1    1.270984 A    
N4    O12   1.301156 A    
N4    O11   1.300374 A    
C9    C11   1.386930 A    
C10   C12   1.386930 A    
C8    C10   1.394641 A    
C11   C13   1.417083 A    
C6    C16   1.381992 A    
O2    Zn2   1.977869 S    
C12   C14   1.417083 A    
C5    C15   1.381992 A    
O4    C2    1.290672 A    
O1    Zn1   1.977867 S    
C21   N3    1.436593 S    
C17   Br1   1.923636 S    
O5    Zn1   2.000893 S    
C13   C15   1.412608 A    
C17   C19   1.388726 A    
C16   C19   1.396980 A    
C6    C8    1.390918 A    
C9    H3    1.082350 S    
N3    O10   1.301156 A    
N1    N2    1.281078 D    
C5    C7    1.390919 A    
C15   C20   1.396980 A    
Zn1   N2    2.014456 S    
O6    Zn2   2.000894 S    
C7    C9    1.394641 A    
Zn2   N1    2.014456 S    
C18   Br2   1.923635 S    
O4    Zn1   2.002353 S    
C14   C16   1.412608 A    
N2    H8    1.029345 S    
O3    C1    1.290673 A    
O8    Zn1   2.019206 S    
C20   H6    1.084299 S    
