data_mof_unit_28041.cif
_audit_creation_date              2012-12-11T15:41:29-0500
_audit_creation_method            fapswitch 2.2
_symmetry_space_group_name_H-M    P1
_symmetry_Int_Tables_number       1
_space_group_crystal_system       triclinic
_cell_length_a                    19.094062
_cell_length_b                    10.960304
_cell_length_c                    18.801925
_cell_angle_alpha                 89.845929
_cell_angle_beta                  90.348324
_cell_angle_gamma                 89.85976
_cell_volume                      3934.70638695

loop_
_atom_site_label
_atom_site_type_symbol
_atom_type_description
_atom_site_fract_x
_atom_site_fract_y
_atom_site_fract_z
_atom_type_partial_charge
C1    C     C_R   0.725559 0.958966 0.854986 0.542313
C2    C     C_R   0.274490 0.959148 0.144951 0.556276
C3    C     C_R   0.225559 0.458967 0.854986 0.542313
C4    C     C_R   0.774490 0.459148 0.144951 0.556276
C5    C     C_R   0.696293 0.451806 0.037839 0.023787
C6    C     C_R   0.303817 0.451201 0.962074 0.011495
C7    C     C_R   0.196293 0.951806 0.037839 0.023787
C8    C     C_R   0.803817 0.951201 0.962074 0.011495
C9    C     C_R   0.690113 0.442803 0.964148 0.000791
C10   C     C_R   0.309712 0.442516 0.035823 0.015982
C11   C     C_R   0.190113 0.942803 0.964148 0.000792
C12   C     C_R   0.809712 0.942516 0.035823 0.015982
C13   C     C_R   0.812582 0.388704 0.957061 -0.165688
C14   C     C_R   0.187360 0.389177 0.042926 -0.163629
C15   C     C_R   0.312582 0.888704 0.957061 -0.165688
C16   C     C_R   0.687360 0.889177 0.042926 -0.163629
C17   C     C_R   0.817097 0.387970 0.030327 -0.170491
C18   C     C_R   0.183078 0.387741 0.969671 -0.162315
C19   C     C_R   0.317097 0.887970 0.030327 -0.170491
C20   C     C_R   0.683078 0.887741 0.969671 -0.162315
C21   C     C_3   0.655742 0.568652 0.039425 -0.051808
C22   C     C_3   0.344753 0.567259 0.960286 -0.056397
C23   C     C_3   0.155742 0.068652 0.039425 -0.051808
C24   C     C_3   0.844753 0.067259 0.960286 -0.056397
C25   C     C_3   0.647513 0.557242 0.959485 -0.265561
C26   C     C_3   0.352506 0.556158 0.040399 -0.272808
C27   C     C_3   0.147513 0.057242 0.959485 -0.265561
C28   C     C_3   0.852506 0.056157 0.040399 -0.272808
C29   C     C_R   0.748693 0.413902 0.922956 0.006480
C30   C     C_R   0.251134 0.414243 0.077022 0.005746
C31   C     C_R   0.248693 0.913902 0.922956 0.006480
C32   C     C_R   0.751134 0.914243 0.077022 0.005746
C33   C     C_R   0.514443 0.173700 0.418403 0.017333
C34   C     C_R   0.554246 0.176406 0.561500 0.001827
C35   C     C_R   0.014443 0.673700 0.418403 0.017333
C36   C     C_R   0.054246 0.676406 0.561500 0.001827
C37   C     C_R   0.524659 0.283968 0.454436 0.022774
C38   C     C_R   0.543209 0.285089 0.524722 0.006469
C39   C     C_R   0.024659 0.783968 0.454436 0.022774
C40   C     C_R   0.043209 0.785089 0.524722 0.006469
C41   C     C_R   0.556767 0.066645 0.522850 -0.165283
C42   C     C_R   0.536910 0.065188 0.450859 -0.166325
C43   C     C_R   0.056767 0.566645 0.522850 -0.165283
C44   C     C_R   0.036910 0.565188 0.450859 -0.166325
C45   C     C_R   0.530048 0.177443 0.850866 0.569474
C46   C     C_R   0.469921 0.177635 0.149113 0.566257
C47   C     C_R   0.030048 0.677443 0.850866 0.569474
C48   C     C_R   0.969921 0.677635 0.149113 0.566257
C49   C     C_3   0.474686 0.388235 0.463847 -0.257280
C50   C     C_3   0.494562 0.388725 0.541288 -0.254252
C51   C     C_3   0.974686 0.888235 0.463847 -0.257281
C52   C     C_3   0.994562 0.888725 0.541288 -0.254252
C53   C     C_R   0.761501 0.430840 0.427865 0.017088
C54   C     C_R   0.241741 0.429748 0.572683 0.012679
C55   C     C_R   0.261501 0.930840 0.427865 0.017088
C56   C     C_R   0.741741 0.929748 0.572683 0.012679
C57   C     C_R   0.820590 0.423555 0.472131 -0.008154
C58   C     C_R   0.188136 0.375513 0.534222 -0.008320
C59   C     C_R   0.320590 0.923555 0.472131 -0.008154
C60   C     C_R   0.688136 0.875512 0.534222 -0.008320
C61   C     C_R   0.814509 0.413417 0.544561 -0.036319
C62   C     C_R   0.188866 0.369226 0.461504 -0.007258
C63   C     C_R   0.314509 0.913417 0.544561 -0.036319
C64   C     C_R   0.688866 0.869226 0.461504 -0.007258
C65   C     C_R   0.690245 0.442280 0.533660 -0.157975
C66   C     C_R   0.297041 0.482206 0.460108 -0.165884
C67   C     C_R   0.190246 0.942280 0.533660 -0.157975
C68   C     C_R   0.797041 0.982206 0.460108 -0.165884
C69   C     C_R   0.695897 0.446605 0.459487 -0.168698
C70   C     C_R   0.295165 0.489067 0.534699 -0.160660
C71   C     C_R   0.195897 0.946605 0.459487 -0.168698
C72   C     C_R   0.795165 0.989067 0.534699 -0.160660
C73   C     C_3   0.882108 0.339008 0.470225 -0.226154
C74   C     C_3   0.156000 0.253460 0.544079 -0.227108
C75   C     C_3   0.382108 0.839008 0.470225 -0.226154
C76   C     C_3   0.656000 0.753460 0.544079 -0.227108
C77   C     C_3   0.874898 0.327045 0.550402 -0.084487
C78   C     C_3   0.156606 0.244387 0.463430 -0.089835
C79   C     C_3   0.374898 0.827045 0.550402 -0.084487
C80   C     C_3   0.656606 0.744387 0.463430 -0.089835
C81   C     C_R   0.749065 0.414609 0.576381 0.004766
C82   C     C_R   0.246366 0.413258 0.423410 0.008511
C83   C     C_R   0.249065 0.914609 0.576381 0.004766
C84   C     C_R   0.746366 0.913258 0.423410 0.008511
C85   C     C_R   0.738457 0.365209 0.852111 0.544078
C86   C     C_R   0.261463 0.365350 0.147927 0.542369
C87   C     C_R   0.238457 0.865209 0.852111 0.544078
C88   C     C_R   0.761463 0.865350 0.147927 0.542369
C89   C     C_R   0.727285 0.957254 0.646685 0.532635
C90   C     C_R   0.273217 0.956724 0.353333 0.547165
C91   C     C_R   0.227285 0.457254 0.646685 0.532635
C92   C     C_R   0.773217 0.456724 0.353333 0.547165
C93   C     C_R   0.564454 0.181107 0.637865 0.555569
C94   C     C_R   0.471835 0.176735 0.354295 0.544404
C95   C     C_R   0.064454 0.681107 0.637865 0.555569
C96   C     C_R   0.971835 0.676735 0.354295 0.544404
C97   C     C_R   0.738971 0.362161 0.646319 0.536546
C98   C     C_R   0.260362 0.362300 0.353540 0.535189
C99   C     C_R   0.238971 0.862161 0.646319 0.536546
C100  C     C_R   0.760362 0.862299 0.353540 0.535189
C101  C     C_2   0.497843 0.167664 0.921056 -0.107618
C102  C     C_2   0.502062 0.168763 0.078865 -0.100153
C103  C     C_2   0.997843 0.667664 0.921056 -0.107618
C104  C     C_2   0.002061 0.668763 0.078865 -0.100153
C105  C     C_2   0.493148 0.068757 0.038580 -0.170870
C106  C     C_2   0.508448 0.068595 0.962028 -0.170739
C107  C     C_2   0.993148 0.568757 0.038580 -0.170870
C108  C     C_2   0.008448 0.568595 0.962028 -0.170739
C109  C     C_R   0.759812 0.424437 0.071923 0.005786
C110  C     C_R   0.240326 0.424101 0.928033 -0.004250
C111  C     C_R   0.259812 0.924437 0.071923 0.005786
C112  C     C_R   0.740326 0.924101 0.928033 -0.004249
Cr1   Cr    Cr6+3 0.769260 0.163750 0.750730 1.073227
Cr2   Cr    Cr6+3 0.230740 0.163750 0.249270 1.034548
Cr3   Cr    Cr6+3 0.269260 0.663750 0.750730 1.073227
Cr4   Cr    Cr6+3 0.730740 0.663750 0.249270 1.034548
Cr5   Cr    Cr6+3 0.612640 0.009910 0.748780 1.056808
Cr6   Cr    Cr6+3 0.387360 0.009910 0.251220 1.017271
Cr7   Cr    Cr6+3 0.112640 0.509910 0.748780 1.056808
Cr8   Cr    Cr6+3 0.887360 0.509910 0.251220 1.017271
Cr9   Cr    Cr6+3 0.614190 0.322400 0.747710 1.033675
Cr10  Cr    Cr6+3 0.385810 0.322400 0.252290 1.040770
Cr11  Cr    Cr6+3 0.114190 0.822400 0.747710 1.033675
Cr12  Cr    Cr6+3 0.885810 0.822400 0.252290 1.040770
H1    H     H_    0.473514 0.984818 0.061687 0.161614
H2    H     H_    0.529517 0.985341 0.939510 0.161196
H3    H     H_    0.973514 0.484818 0.061687 0.161614
H4    H     H_    0.029517 0.485341 0.939510 0.161196
H5    H     H_    0.919542 0.860196 0.455081 0.155459
H6    H     H_    0.021768 0.973669 0.557532 0.173561
H7    H     H_    0.419542 0.360196 0.455081 0.155459
H8    H     H_    0.521768 0.473668 0.557532 0.173561
H9    H     H_    0.491465 0.471293 0.434641 0.189141
H10   H     H_    0.450395 0.361624 0.576238 0.160031
H11   H     H_    0.991465 0.971293 0.434641 0.189141
H12   H     H_    0.950395 0.861624 0.576238 0.160031
H13   H     H_    0.639383 0.452176 0.557258 0.149043
H14   H     H_    0.340733 0.522149 0.432065 0.129254
H15   H     H_    0.139383 0.952176 0.557258 0.149043
H16   H     H_    0.840733 0.022149 0.432065 0.129254
H17   H     H_    0.649586 0.463014 0.427256 0.142546
H18   H     H_    0.336244 0.536859 0.562630 0.133781
H19   H     H_    0.149586 0.963014 0.427256 0.142546
H20   H     H_    0.836244 0.036859 0.562630 0.133781
H21   H     H_    0.930199 0.386159 0.452592 0.163768
H22   H     H_    0.103378 0.260057 0.568662 0.218678
H23   H     H_    0.430199 0.886159 0.452592 0.163768
H24   H     H_    0.603378 0.760057 0.568662 0.218678
H25   H     H_    0.870457 0.252922 0.441370 0.145544
H26   H     H_    0.192452 0.188580 0.570817 0.122786
H27   H     H_    0.370457 0.752922 0.441370 0.145543
H28   H     H_    0.692452 0.688580 0.570817 0.122786
H29   H     H_    0.860168 0.233914 0.567291 0.166128
H30   H     H_    0.193366 0.175229 0.442949 0.146662
H31   H     H_    0.360168 0.733914 0.567291 0.166128
H32   H     H_    0.693366 0.675229 0.442949 0.146662
H33   H     H_    0.524416 0.251033 0.056101 0.161033
H34   H     H_    0.473885 0.248574 0.943358 0.170812
H35   H     H_    0.024416 0.751033 0.056101 0.161033
H36   H     H_    0.973885 0.748574 0.943358 0.170812
H37   H     H_    0.858590 0.362511 0.927210 0.177301
H38   H     H_    0.141342 0.363318 0.072819 0.176532
H39   H     H_    0.358590 0.862511 0.927210 0.177300
H40   H     H_    0.641342 0.863318 0.072819 0.176532
H41   H     H_    0.867491 0.366081 0.053808 0.147282
H42   H     H_    0.132870 0.365379 0.946185 0.153979
H43   H     H_    0.367491 0.866081 0.053808 0.147282
H44   H     H_    0.632870 0.865379 0.946185 0.153979
H45   H     H_    0.189021 0.146575 0.055526 0.131888
H46   H     H_    0.811767 0.145782 0.943771 0.142080
H47   H     H_    0.689021 0.646575 0.055526 0.131888
H48   H     H_    0.311767 0.645782 0.943771 0.142080
H49   H     H_    0.593205 0.538527 0.940938 0.194130
H50   H     H_    0.406438 0.535935 0.059572 0.182491
H51   H     H_    0.093205 0.038527 0.940938 0.194130
H52   H     H_    0.906438 0.035935 0.059572 0.182491
H53   H     H_    0.674519 0.630702 0.929446 0.124280
H54   H     H_    0.325489 0.630115 0.069973 0.119211
H55   H     H_    0.174519 0.130702 0.929446 0.124280
H56   H     H_    0.825489 0.130115 0.069973 0.119211
H57   H     H_    0.567306 0.981464 0.549680 0.168056
H58   H     H_    0.533382 0.979536 0.422856 0.131725
H59   H     H_    0.067306 0.481464 0.549680 0.168056
H60   H     H_    0.033382 0.479536 0.422856 0.131725
O1    O     O_R   0.784290 0.290360 0.830540 -0.493316
O2    O     O_R   0.215710 0.290360 0.169460 -0.525423
O3    O     O_R   0.284290 0.790360 0.830540 -0.493316
O4    O     O_R   0.715710 0.790360 0.169460 -0.525423
O5    O     O_R   0.554690 0.080440 0.673480 -0.488386
O6    O     O_R   0.445310 0.080440 0.326520 -0.508765
O7    O     O_R   0.054690 0.580440 0.673480 -0.488386
O8    O     O_R   0.945310 0.580440 0.326520 -0.508765
O9    O     O_R   0.543980 0.282110 0.666770 -0.519529
O10   O     O_R   0.456020 0.282110 0.333230 -0.518358
O11   O     O_R   0.043980 0.782110 0.666770 -0.519529
O12   O     O_R   0.956020 0.782110 0.333230 -0.518358
O13   O     O_R   0.679070 0.374030 0.674430 -0.527742
O14   O     O_R   0.320930 0.374030 0.325570 -0.506927
O15   O     O_R   0.179070 0.874030 0.674430 -0.527742
O16   O     O_R   0.820930 0.874030 0.325570 -0.506927
O17   O     O_3   0.665360 0.165350 0.749070 -0.288434
O18   O     O_3   0.334640 0.165350 0.250930 -0.257050
O19   O     O_3   0.165360 0.665350 0.749070 -0.288434
O20   O     O_3   0.834640 0.665350 0.250930 -0.257050
O21   O     O_R   0.762610 0.041070 0.825230 -0.484436
O22   O     O_R   0.237390 0.041070 0.174770 -0.487383
O23   O     O_R   0.262610 0.541070 0.825230 -0.484436
O24   O     O_R   0.737390 0.541070 0.174770 -0.487383
O25   O     O_R   0.667390 0.924160 0.829970 -0.525417
O26   O     O_R   0.332610 0.924160 0.170030 -0.530474
O27   O     O_R   0.167390 0.424160 0.829970 -0.525417
O28   O     O_R   0.832610 0.424160 0.170030 -0.530474
O29   O     O_R   0.553980 0.081420 0.821780 -0.492898
O30   O     O_R   0.446020 0.081420 0.178220 -0.506957
O31   O     O_R   0.053980 0.581420 0.821780 -0.492898
O32   O     O_R   0.946020 0.581420 0.178220 -0.506957
O33   O     O_R   0.543210 0.283170 0.826740 -0.480117
O34   O     O_R   0.456790 0.283170 0.173260 -0.473228
O35   O     O_R   0.043210 0.783170 0.826740 -0.480117
O36   O     O_R   0.956790 0.783170 0.173260 -0.473228
O37   O     O_R   0.678350 0.375000 0.822720 -0.497307
O38   O     O_R   0.321650 0.375000 0.177280 -0.494803
O39   O     O_R   0.178350 0.875000 0.822720 -0.497307
O40   O     O_R   0.821650 0.875000 0.177280 -0.494803
O41   O     O_R   0.785060 0.289300 0.670580 -0.502696
O42   O     O_R   0.214940 0.289300 0.329420 -0.540043
O43   O     O_R   0.285060 0.789300 0.670580 -0.502696
O44   O     O_R   0.714940 0.789300 0.329420 -0.540043
O45   O     O_R   0.763330 0.040090 0.676940 -0.503159
O46   O     O_R   0.236670 0.040090 0.323060 -0.506618
O47   O     O_R   0.263330 0.540090 0.676940 -0.503159
O48   O     O_R   0.736670 0.540090 0.323060 -0.506618
O49   O     O_R   0.668160 0.923110 0.670000 -0.513782
O50   O     O_R   0.331840 0.923110 0.330000 -0.515020
O51   O     O_R   0.168160 0.423110 0.670000 -0.513782
O52   O     O_R   0.831840 0.423110 0.330000 -0.515019
C113  C     C_2   0.934095 0.380910 0.592405 0.257596
H61   H     H_    0.942822 0.478600 0.591771 0.120929
O53   O     O_2   0.971943 0.315354 0.628525 -0.497020
C114  C     C_2   0.085523 0.240907 0.428368 0.199451
H62   H     H_    0.079519 0.272137 0.373874 0.130654
O54   O     O_2   0.034678 0.200661 0.459616 -0.557535
C115  C     C_2   0.434094 0.880910 0.592405 0.257596
H63   H     H_    0.442822 0.978600 0.591771 0.120929
O55   O     O_2   0.471943 0.815353 0.628525 -0.497020
C116  C     C_2   0.585523 0.740908 0.428368 0.199451
H64   H     H_    0.579518 0.772137 0.373874 0.130654
O56   O     O_2   0.534678 0.700661 0.459616 -0.557535
C117  C     C_2   0.587614 0.563112 0.079179 0.597149
O57   O     O_2   0.572608 0.473807 0.115093 -0.510950
O58   O     O_R   0.542466 0.663521 0.076176 -0.721448
H65   H     H_    0.500045 0.653288 0.107732 0.324705
C118  C     C_2   0.412403 0.557900 0.919900 0.592073
O59   O     O_2   0.454145 0.475950 0.932807 -0.542721
O60   O     O_R   0.427275 0.644581 0.867559 -0.682726
H66   H     H_    0.474206 0.629833 0.844106 0.334346
C119  C     C_2   0.087614 0.063112 0.079179 0.597149
O61   O     O_2   0.072608 0.973807 0.115093 -0.510950
O62   O     O_R   0.042466 0.163521 0.076176 -0.721448
H67   H     H_    0.000045 0.153288 0.107732 0.324705
C120  C     C_2   0.912403 0.057900 0.919900 0.592073
O63   O     O_2   0.954145 0.975950 0.932807 -0.542721
O64   O     O_R   0.927275 0.144581 0.867559 -0.682726
H68   H     H_    0.974206 0.129833 0.844106 0.334346

loop_
_geom_bond_atom_site_label_1
_geom_bond_atom_site_label_2
_ccdc_geom_bond_type
Cr8   O28   S    
C73   C77   S    
C97   O41   A    
C4    C109  S    
C48   O32   A    
C67   C83   A    
C46   O34   A    
Cr3   O23   S    
C14   H38   S    
C45   O33   A    
C41   C42   A    
C14   C18   A    
C39   C51   S    
C34   C93   S    
Cr5   O5    S    
C53   C69   A    
C33   C94   S    
C49   C50   S    
Cr12  O36   S    
C51   H5    S    
C9    C25   S    
O64   H68   S    
C63   C79   S    
C35   C96   S    
C42   H58   S    
Cr7   O31   S    
C22   H48   S    
C49   H7    S    
C117  O57   D    
Cr9   O13   S    
C81   C97   S    
Cr1   O45   S    
Cr4   O44   S    
C33   C42   A    
C13   C29   A    
C52   H12   S    
C27   H55   S    
C55   C90   S    
C55   C59   A    
C8    C112  A    
C1    C112  S    
C48   O36   A    
C118  O59   D    
C21   C117  S    
C25   H53   S    
C103  H36   S    
C66   C82   A    
Cr5   O49   S    
C92   O48   A    
C3    C110  S    
C89   O49   A    
C115  H63   S    
C48   C104  S    
C91   O51   A    
C65   C69   A    
Cr3   O3    S    
Cr7   O27   S    
C90   O50   A    
C102  C105  D    
C119  O61   D    
C96   O12   A    
C57   C73   S    
C57   C61   A    
C100  O44   A    
C10   C30   A    
Cr10  O14   S    
C64   C84   A    
C22   C118  S    
Cr11  O35   S    
C77   H29   S    
C20   C112  A    
C51   H11   S    
C61   C81   A    
Cr12  O40   S    
C61   C77   S    
C56   C72   A    
Cr3   O19   S    
C24   C120  S    
C78   C114  S    
C107  C108  S    
C88   O40   A    
C4    O24   A    
C103  C108  D    
C2    O22   A    
Cr1   O17   S    
C30   C86   S    
C24   H46   S    
C44   H60   S    
Cr3   O47   S    
C8    C12   A    
C65   H13   S    
C19   C111  A    
C10   C26   S    
C6    C22   S    
C85   O37   A    
C62   C82   A    
C11   C31   A    
C94   O10   A    
C113  H61   S    
Cr4   O48   S    
C77   C113  S    
C64   C80   S    
C41   H57   S    
Cr6   O18   S    
C34   C41   A    
C19   H43   S    
C14   C30   A    
Cr5   O17   S    
Cr9   O17   S    
C46   C102  S    
C102  H33   S    
Cr11  O11   S    
Cr4   O20   S    
C62   C78   S    
C80   H32   S    
C23   C27   S    
C26   H54   S    
C79   H31   S    
C3    O27   A    
C20   H44   S    
C116  O56   D    
C2    C111  S    
C2    O26   A    
C47   C103  S    
C98   O14   A    
C1    O25   A    
C51   C52   S    
C68   C84   A    
C97   O13   A    
C36   C40   A    
C31   C87   S    
O58   H65   S    
C21   C25   S    
C50   H10   S    
C27   H51   S    
C39   C40   A    
C120  O64   S    
C53   C57   A    
C28   H52   S    
C118  O60   S    
C87   O3    A    
C18   H42   S    
C115  O55   D    
C40   C52   S    
C106  H2    S    
C47   O35   A    
C60   C76   S    
C33   C37   A    
C99   O43   A    
Cr2   O22   S    
C91   O47   A    
C68   C72   A    
C119  O62   S    
C5    C21   S    
Cr1   O21   S    
C6    C110  A    
C15   C19   A    
C43   C44   A    
C94   O6    A    
Cr3   O43   S    
C37   C38   A    
C35   C39   A    
Cr2   O42   S    
Cr4   O4    S    
C63   C83   A    
Cr6   O50   S    
Cr6   O26   S    
Cr1   O41   S    
C23   H45   S    
C54   C70   A    
C23   C119  S    
C11   C27   S    
C16   C20   A    
C43   H59   S    
Cr1   O1    S    
Cr12  O12   S    
C53   C92   S    
Cr2   O18   S    
C114  O54   D    
Cr7   O19   S    
Cr6   O30   S    
C76   H28   S    
C108  H4    S    
Cr5   O29   S    
C35   C44   A    
C28   H56   S    
C93   O9    A    
C37   C49   S    
Cr4   O24   S    
C50   H8    S    
C58   C62   A    
C100  O16   A    
Cr7   O51   S    
C56   C89   S    
C12   C28   S    
C101  H34   S    
C86   O2    A    
C117  O58   S    
C79   C115  S    
C113  O53   D    
Cr10  O38   S    
Cr8   O20   S    
C82   C98   S    
C80   C116  S    
C68   H16   S    
C52   H6    S    
Cr8   O32   S    
C104  H35   S    
C99   O15   A    
O62   H67   S    
Cr9   O9    S    
C59   C75   S    
C45   C101  S    
C67   H15   S    
C58   C74   S    
C24   C28   S    
C71   H19   S    
C54   C58   A    
Cr11  O15   S    
C101  C106  D    
C72   H20   S    
C26   H50   S    
C49   H9    S    
C116  H64   S    
C95   O11   A    
C93   O5    A    
Cr10  O34   S    
C85   O1    A    
C73   H25   S    
C34   C38   A    
C29   C85   S    
C74   H22   S    
C78   H30   S    
C76   C80   S    
Cr7   O7    S    
C17   C109  A    
Cr10  O10   S    
C70   H18   S    
Cr2   O46   S    
C47   O31   A    
C15   C31   A    
C38   C50   S    
C95   O7    A    
C16   C32   A    
Cr9   O33   S    
C105  C106  S    
Cr12  O16   S    
C59   C63   A    
Cr11  O39   S    
Cr2   O2    S    
C83   C99   S    
C13   C17   A    
C60   C64   A    
C75   H23   S    
C105  H1    S    
Cr8   O8    S    
C87   O39   A    
C74   H26   S    
C107  H3    S    
C54   C91   S    
C16   H40   S    
C13   H37   S    
C21   H47   S    
Cr8   O52   S    
C114  H62   S    
C9    C29   A    
Cr6   O6    S    
C36   C95   S    
C96   O8    A    
C120  O63   D    
C5    C109  A    
C7    C23   S    
C4    O28   A    
Cr5   O25   S    
C3    O23   A    
C8    C24   S    
C7    C111  A    
C67   C71   A    
C1    O21   A    
C104  C107  D    
C45   O29   A    
C92   O52   A    
C55   C71   A    
C84   C100  S    
C6    C10   A    
C66   H14   S    
C25   H49   S    
Cr10  O18   S    
C88   O4    A    
C56   C60   A    
C66   C70   A    
C76   H24   S    
C46   O30   A    
C18   C110  A    
Cr12  O20   S    
C22   C26   S    
C69   H17   S    
C73   H21   S    
C75   H27   S    
Cr9   O37   S    
C65   C81   A    
C90   O46   A    
C36   C43   A    
C17   H41   S    
C5    C9    A    
C86   O38   A    
Cr11  O19   S    
C89   O45   A    
C75   C79   S    
C15   H39   S    
C12   C32   A    
O60   H66   S    
C7    C11   A    
C74   C78   S    
C98   O42   A    
C32   C88   S    
