data_mof_unit_37351.cif
_audit_creation_date              2012-12-10T20:28:11-0500
_audit_creation_method            fapswitch 2.2
_symmetry_space_group_name_H-M    P1
_symmetry_Int_Tables_number       1
_space_group_crystal_system       triclinic
_cell_length_a                    18.665365
_cell_length_b                    18.780011
_cell_length_c                    18.841698
_cell_angle_alpha                 109.798663
_cell_angle_beta                  109.400963
_cell_angle_gamma                 109.398974
_cell_volume                      5072.59299166

loop_
_atom_site_label
_atom_site_type_symbol
_atom_type_description
_atom_site_fract_x
_atom_site_fract_y
_atom_site_fract_z
_atom_type_partial_charge
C1    C     C_R   0.382083 0.501360 0.380653 0.889918
C2    C     C_R   0.826594 0.816032 0.575265 -0.242901
C3    C     C_R   0.283077 0.367944 0.737301 -0.135526
C4    C     C_R   0.332057 0.333027 0.770061 -0.207162
C5    C     C_R   0.078061 0.328960 0.814535 -0.291498
C6    C     C_R   0.998336 0.313978 0.811451 -0.086424
C7    C     C_R   0.919052 0.236399 0.743909 0.004866
C8    C     C_R   0.922422 0.174021 0.681570 -0.278608
C9    C     C_R   0.002476 0.188602 0.686054 -0.024595
C10   C     C_3   0.662908 0.913035 0.516941 0.062946
C11   C     C_3   0.619552 0.923840 0.439489 -0.371470
C12   C     C_3   0.663262 0.019553 0.463610 -0.918927
C13   C     C_R   0.811607 0.810574 0.495374 -0.057658
C14   C     C_2   0.094976 0.265552 0.492627 0.392006
C15   C     C_3   0.225081 0.845642 0.432946 0.071924
C16   C     C_3   0.212308 0.760185 0.369069 -0.288008
C17   C     C_3   0.167825 0.685854 0.382974 -1.018654
C18   C     C_3   0.201944 0.241769 0.905309 0.059285
C19   C     C_3   0.289256 0.261887 0.974465 -0.379312
C20   C     C_3   0.301432 0.305234 0.065610 -0.925234
C21   C     C_R   0.732136 0.743565 0.417013 0.048811
C22   C     C_R   0.672243 0.679815 0.421333 -0.201217
C23   C     C_R   0.687820 0.685715 0.501365 -0.038243
C24   C     C_R   0.764358 0.755004 0.579502 0.011132
C25   C     C_R   0.625366 0.725181 0.279372 -0.162465
C26   C     C_R   0.601085 0.717219 0.197235 -0.149432
C27   C     C_R   0.658840 0.721337 0.164952 -0.128137
C28   C     C_R   0.621167 0.620078 0.501110 0.864125
C29   C     C_R   0.820303 0.787711 0.831764 -0.108534
C30   C     C_R   0.741029 0.733775 0.214966 -0.127695
C31   C     C_R   0.765287 0.741853 0.297093 -0.092245
C32   C     C_R   0.708018 0.737716 0.330491 0.115590
C33   C     C_R   0.449428 0.781231 0.547461 -0.223123
C34   C     C_R   0.381140 0.704053 0.470642 -0.108803
C35   C     C_R   0.394335 0.667689 0.401172 0.053908
C36   C     C_R   0.476672 0.709726 0.409195 -0.248446
C37   C     C_R   0.545325 0.788616 0.485362 0.568601
C38   C     C_R   0.531596 0.822700 0.555665 -0.209983
C39   C     C_R   0.259738 0.578785 0.256656 -0.258822
C40   C     C_R   0.081406 0.266181 0.752954 0.052079
C41   C     C_R   0.616820 0.496929 0.619445 0.931264
C42   C     C_R   0.189616 0.498031 0.185063 -0.082003
C43   C     C_R   0.183220 0.418515 0.177179 -0.014979
C44   C     C_R   0.249282 0.422054 0.242063 -0.268707
C45   C     C_R   0.317978 0.502551 0.314554 -0.062264
C46   C     C_R   0.323699 0.581872 0.323128 0.023690
C47   C     C_R   0.058392 0.271016 0.119019 -0.154873
C48   C     C_R   0.989511 0.188227 0.049878 -0.140191
C49   C     C_R   0.971212 0.164776 0.964557 -0.112387
C50   C     C_R   0.021827 0.224068 0.948331 -0.135111
C51   C     C_R   0.776374 0.143586 0.728413 -0.167535
C52   C     C_R   0.090640 0.307156 0.017267 -0.125468
C53   C     C_R   0.377588 0.380186 0.497550 0.891272
C54   C     C_R   0.109222 0.331376 0.103192 0.139794
C55   C     C_R   0.221724 0.526637 0.541557 -0.145637
C56   C     C_R   0.238314 0.462497 0.551952 -0.104419
C57   C     C_R   0.221532 0.390152 0.479946 0.109677
C58   C     C_R   0.188488 0.382902 0.397653 -0.187114
C59   C     C_R   0.171029 0.446765 0.387407 -0.123167
C60   C     C_R   0.187557 0.518422 0.459249 -0.116683
C61   C     C_R   0.172845 0.257734 0.495437 -0.057980
C62   C     C_R   0.692717 0.126009 0.715377 -0.159445
C63   C     C_R   0.187698 0.191146 0.505038 -0.103786
C64   C     C_R   0.265550 0.189982 0.514062 -0.010219
C65   C     C_R   0.813305 0.851837 0.813070 -0.151436
C66   C     C_R   0.324967 0.251403 0.508026 -0.250195
C67   C     C_R   0.309801 0.314935 0.496182 -0.071537
C68   C     C_R   0.234709 0.319735 0.490205 -0.099963
C69   C     C_R   0.356581 0.161517 0.618801 -0.121277
C70   C     C_R   0.391323 0.110617 0.637227 -0.241651
C71   C     C_R   0.361368 0.027449 0.571154 -0.232202
C72   C     C_R   0.293526 0.992927 0.486389 0.540562
C73   C     C_R   0.663764 0.184110 0.707459 -0.117649
C74   C     C_R   0.259493 0.044924 0.467915 -0.216759
C75   C     C_R   0.290909 0.129424 0.534163 0.086710
C76   C     C_2   0.742202 0.494222 0.821489 -0.179983
C77   C     C_R   0.794444 0.840832 0.730544 -0.134693
C78   C     C_2   0.819035 0.509756 0.825159 -0.367325
C79   C     C_2   0.680447 0.505282 0.759921 -0.171712
C80   C     C_2   0.675741 0.487269 0.682956 -0.358673
C81   C     C_R   0.997574 0.876747 0.380837 0.855188
C82   C     C_R   0.879142 0.878143 0.497897 0.843630
C83   C     C_R   0.001323 0.121910 0.619617 0.922036
C84   C     C_R   0.718391 0.259847 0.712467 -0.118310
C85   C     C_R   0.120743 0.121445 0.501420 0.937459
C86   C     C_R   0.001156 0.379823 0.881010 0.866868
C87   C     C_R   0.122870 0.499086 0.121312 0.878955
C88   C     C_R   0.000266 0.620305 0.120545 0.861134
C89   C     C_R   0.781950 0.765143 0.665958 0.125067
C90   C     C_R   0.883458 0.502208 0.885627 0.915797
C91   C     C_R   0.982156 0.720223 0.509951 -0.125099
C92   C     C_R   0.008513 0.743895 0.456203 -0.109204
C93   C     C_R   0.949297 0.701537 0.366454 0.066664
C94   C     C_R   0.865579 0.630584 0.330745 -0.191744
C95   C     C_R   0.802090 0.277661 0.725442 -0.107774
C96   C     C_R   0.839342 0.607309 0.384721 -0.132754
C97   C     C_R   0.897307 0.652690 0.474409 -0.106361
C98   C     C_R   0.972949 0.665543 0.240782 -0.234423
C99   C     C_R   0.996355 0.685955 0.184024 -0.096157
C100  C     C_R   0.017693 0.768425 0.191042 0.008963
C101  C     C_R   0.789412 0.701159 0.685286 -0.144590
C102  C     C_R   0.017919 0.829902 0.257506 -0.234415
C103  C     C_R   0.997286 0.810059 0.315516 -0.079054
C104  C     C_R   0.974795 0.727418 0.308295 -0.024561
C105  C     C_R   0.116525 0.865665 0.160254 -0.146756
C106  C     C_R   0.831911 0.219838 0.733986 0.146408
C107  C     C_R   0.135008 0.887720 0.102098 -0.147567
C108  C     C_R   0.074461 0.836252 0.012766 -0.123487
C109  C     C_R   0.995117 0.762977 0.981523 -0.117640
C110  C     C_R   0.975888 0.741174 0.039448 -0.109716
C111  C     C_R   0.037077 0.791725 0.129236 0.128716
C112  C     C_R   0.299461 0.275233 0.797135 -0.214280
C113  C     C_R   0.808534 0.712614 0.767973 -0.125149
C114  C     C_R   0.218426 0.253572 0.793740 0.556516
C115  C     C_R   0.167345 0.286675 0.757817 -0.020285
C116  C     C_R   0.201350 0.345312 0.731610 -0.169968
H1    H     H_    0.835150 0.796322 0.895726 0.127202
H2    H     H_    0.246039 0.361680 0.237226 0.158009
H3    H     H_    0.822730 0.910170 0.862568 0.121280
H4    H     H_    0.071807 0.288237 0.184801 0.116047
H5    H     H_    0.950450 0.142175 0.062488 0.125310
H6    H     H_    0.918077 0.100554 0.911057 0.115181
H7    H     H_    0.008062 0.205146 0.882287 0.136990
H8    H     H_    0.129796 0.352318 0.003914 0.096224
H9    H     H_    0.173261 0.567227 0.451062 0.127628
H10   H     H_    0.234418 0.582194 0.597098 0.120233
H11   H     H_    0.263482 0.468700 0.615720 0.111178
H12   H     H_    0.640028 0.715178 0.101374 0.124104
H13   H     H_    0.174941 0.327238 0.341543 0.116324
H14   H     H_    0.144044 0.440535 0.323767 0.142771
H15   H     H_    0.789313 0.891048 0.716820 0.121089
H16   H     H_    0.385217 0.251417 0.515365 0.157518
H17   H     H_    0.383227 0.227315 0.669781 0.134383
H18   H     H_    0.443408 0.136707 0.702243 0.147114
H19   H     H_    0.392104 0.990543 0.585613 0.135062
H20   H     H_    0.210675 0.020536 0.401808 0.123915
H21   H     H_    0.726366 0.477272 0.866123 0.165178
H22   H     H_    0.839136 0.536527 0.787753 0.150595
H23   H     H_    0.786159 0.737509 0.190342 0.137795
H24   H     H_    0.637277 0.525379 0.776569 0.165405
H25   H     H_    0.781172 0.642967 0.636684 0.100828
H26   H     H_    0.711835 0.457882 0.662570 0.157632
H27   H     H_    0.876776 0.634957 0.516217 0.124924
H28   H     H_    0.027662 0.754155 0.579214 0.122219
H29   H     H_    0.075238 0.794637 0.484823 0.129560
H30   H     H_    0.819525 0.595362 0.261427 0.139840
H31   H     H_    0.773878 0.554405 0.357049 0.137097
H32   H     H_    0.956303 0.601839 0.234681 0.170149
H33   H     H_    0.033774 0.893679 0.263952 0.138273
H34   H     H_    0.829396 0.753162 0.335487 0.119944
H35   H     H_    0.164335 0.905668 0.229278 0.147504
H36   H     H_    0.196435 0.944515 0.126260 0.133691
H37   H     H_    0.814533 0.663376 0.782677 0.133168
H38   H     H_    0.089029 0.853105 0.967750 0.127805
H39   H     H_    0.948671 0.722895 0.912401 0.124513
H40   H     H_    0.913803 0.684601 0.014380 0.103739
H41   H     H_    0.395693 0.351367 0.775073 0.140510
H42   H     H_    0.337809 0.248151 0.822066 0.138228
H43   H     H_    0.164497 0.373704 0.706915 0.179922
H44   H     H_    0.308651 0.412840 0.716588 0.139347
H45   H     H_    0.584640 0.879506 0.617704 0.115926
H46   H     H_    0.138512 0.389130 0.866463 0.154908
H47   H     H_    0.862387 0.113865 0.628977 0.137940
H48   H     H_    0.886665 0.869156 0.635069 0.153956
H49   H     H_    0.797869 0.097823 0.734085 0.112357
H50   H     H_    0.650191 0.067134 0.711029 0.122004
H51   H     H_    0.598890 0.170279 0.697106 0.129219
H52   H     H_    0.695677 0.304508 0.705786 0.143897
H53   H     H_    0.843264 0.335952 0.727957 0.103229
H54   H     H_    0.611666 0.626371 0.362256 0.131050
H55   H     H_    0.579918 0.722327 0.303321 0.136411
H56   H     H_    0.439358 0.807612 0.601696 0.140605
H57   H     H_    0.537451 0.707864 0.158639 0.131326
H58   H     H_    0.733836 0.939962 0.538156 0.171159
H59   H     H_    0.659901 0.952950 0.573637 0.121091
H60   H     H_    0.624909 0.884922 0.384118 0.234423
H61   H     H_    0.548880 0.899474 0.418389 0.214166
H62   H     H_    0.659527 0.060090 0.519509 0.274472
H63   H     H_    0.629172 0.025641 0.407092 0.262652
H64   H     H_    0.733123 0.044336 0.481069 0.266820
H65   H     H_    0.065581 0.289042 0.452540 0.073938
H66   H     H_    0.160129 0.837828 0.421939 0.161530
H67   H     H_    0.319153 0.670480 0.466578 0.144278
H68   H     H_    0.263631 0.858885 0.500009 0.119495
H69   H     H_    0.171994 0.743283 0.301128 0.232035
H70   H     H_    0.277398 0.768718 0.379140 0.223641
H71   H     H_    0.207090 0.702767 0.451107 0.250990
H72   H     H_    0.161322 0.624865 0.337690 0.268335
H73   H     H_    0.101692 0.674039 0.371059 0.279100
H74   H     H_    0.148204 0.198677 0.909758 0.180839
H75   H     H_    0.199502 0.303313 0.919972 0.117177
H76   H     H_    0.290927 0.200205 0.960558 0.231553
H77   H     H_    0.344364 0.306543 0.972588 0.212082
H78   H     H_    0.487765 0.680146 0.356739 0.125426
H79   H     H_    0.301294 0.367795 0.081365 0.266182
H80   H     H_    0.365165 0.319254 0.114501 0.263341
H81   H     H_    0.247919 0.261306 0.069837 0.266723
H82   H     H_    0.262983 0.639225 0.261870 0.157006
O1    O     O_R   0.408620 0.551720 0.460350 -0.604014
O2    O     O_R   0.952100 0.356700 0.912170 -0.603502
O3    O     O_R   0.145980 0.551740 0.094190 -0.626139
O4    O     O_R   0.409320 0.448300 0.357580 -0.631172
O5    O     O_R   0.042530 0.448320 0.094220 -0.610610
O6    O     O_R   0.054350 0.643370 0.094170 -0.610493
O7    O     O_R   0.950900 0.539950 0.094200 -0.631303
O8    O     O_R   0.963910 0.551750 0.912120 -0.623687
O9    O     O_R   0.860470 0.448330 0.912150 -0.613321
O10   O     O_R   0.591270 0.643330 0.551380 -0.598694
O11   O     O_R   0.591970 0.539910 0.448620 -0.637161
O12   O     O_R   0.949210 0.908400 0.357560 -0.628367
O13   O     O_R   0.590680 0.551700 0.642420 -0.610519
O14   O     O_R   0.591380 0.448280 0.539650 -0.628366
O15   O     O_R   0.408030 0.460090 0.551380 -0.621705
O16   O     O_R   0.408730 0.356670 0.448620 -0.628893
O17   O     O_R   0.051990 0.908360 0.460320 -0.644392
O18   O     O_3   0.627404 0.823674 0.492752 -0.660628
O19   O     O_2   0.065283 0.249638 0.537611 -0.582213
O20   O     O_3   0.267488 0.913053 0.419016 -0.657671
O21   O     O_3   0.187672 0.195630 0.820439 -0.644625
O22   O     O_R   0.959770 0.908340 0.551360 -0.622046
O23   O     O_R   0.856990 0.908380 0.448600 -0.623948
O24   O     O_R   0.050790 0.091560 0.642400 -0.595982
O25   O     O_R   0.948010 0.091600 0.539640 -0.598058
O26   O     O_R   0.143010 0.091580 0.551350 -0.618089
O27   O     O_R   0.040230 0.091620 0.448600 -0.600713
O28   O     O_R   0.055540 0.460120 0.912140 -0.627691
Zn1   Zn    Zn3+2 0.499530 0.569060 0.568620 0.972526
Zn2   Zn    Zn3+2 0.500470 0.430940 0.431380 0.937714
Zn3   Zn    Zn3+2 0.068630 0.999950 0.568590 0.974888
Zn4   Zn    Zn3+2 0.931370 0.000000 0.431370 0.981235
Zn5   Zn    Zn3+2 0.072290 0.569090 0.003150 0.953929
Zn6   Zn    Zn3+2 0.934150 0.430980 0.003190 0.964891

loop_
_geom_bond_atom_site_label_1
_geom_bond_atom_site_label_2
_ccdc_geom_bond_type
C94   H30   S    
C12   H62   S    
C55   C56   A    
C59   H14   S    
C10   H58   S    
C93   C94   A    
C101  C113  A    
C19   C20   S    
C76   C79   S    
C88   O7    A    
C73   H51   S    
C10   O18   S    
C24   C89   S    
C41   C80   S    
C112  C114  A    
C114  C115  A    
C7    C8    A    
C82   O23   A    
C81   O17   A    
C45   C46   A    
C108  C109  A    
C53   O15   A    
C105  C107  A    
C77   C89   A    
C11   H60   S    
C53   O16   A    
C112  H42   S    
O22   Zn3   S    
C92   H29   S    
C84   H52   S    
C21   C22   A    
C60   H9    S    
C76   C78   D    
C18   C19   S    
C16   H69   S    
O10   Zn1   S    
C71   H19   S    
C30   C31   A    
C98   C104  A    
O9    Zn6   S    
C40   C115  S    
C1    O4    A    
C17   H72   S    
O28   Zn5   S    
C98   C99   A    
C15   H66   S    
C56   C57   A    
C34   C35   A    
C77   H15   S    
C56   H11   S    
C61   C63   A    
C2    C13   A    
C110  C111  A    
C97   H27   S    
C90   O8    A    
C41   O14   A    
C101  H25   S    
C38   H45   S    
C35   C36   A    
O24   Zn3   S    
C8    C9    A    
C74   H20   S    
O23   Zn4   S    
C50   C52   A    
C107  C108  A    
C62   C73   A    
C70   C71   A    
C11   H61   S    
O11   Zn2   S    
O16   Zn2   S    
C114  O21   S    
C20   H79   S    
O25   Zn4   S    
C19   H76   S    
C83   O25   A    
C25   H55   S    
C25   C32   A    
C81   O12   A    
C4    C112  A    
C59   C60   A    
O13   Zn1   S    
C55   C60   A    
C15   H68   S    
C27   C30   A    
C83   O24   A    
C1    O1    A    
C51   C62   A    
C109  H39   S    
C18   O21   S    
C78   H22   S    
C93   C104  S    
C87   O5    A    
C91   C97   A    
C52   C54   A    
C39   C42   A    
C66   H16   S    
O12   Zn4   S    
O5    Zn6   S    
C105  H35   S    
C21   C32   S    
C18   H75   S    
C65   C77   A    
C74   C75   A    
C4    H41   S    
C67   C68   A    
C47   C48   A    
C66   C67   A    
C79   C80   D    
C116  H43   S    
C72   C74   A    
C2    H48   S    
C91   C92   A    
C31   H34   S    
C16   C17   S    
O4    Zn2   S    
C26   H57   S    
C17   H73   S    
C25   C26   A    
C76   H21   S    
C14   C61   S    
C29   H1    S    
C13   C82   S    
C9    C40   A    
C78   C90   S    
O2    Zn6   S    
C90   O9    A    
C84   C95   A    
C64   C66   A    
C43   C44   A    
C12   H64   S    
C37   C38   A    
O15   Zn1   S    
C95   C106  A    
C27   H12   S    
C43   C54   S    
C99   C100  A    
C55   H10   S    
C44   H2    S    
C23   C24   A    
C96   C97   A    
C100  C102  A    
C33   C34   A    
C65   H3    S    
C7    C106  S    
C13   C21   A    
C34   H67   S    
C14   O19   D    
C23   C28   S    
C88   O6    A    
C15   O20   S    
C94   C96   A    
C95   H53   S    
C22   H54   S    
C9    C83   S    
C47   C54   A    
C29   C65   A    
C107  H36   S    
C69   C70   A    
C48   C49   A    
C62   H50   S    
C39   H82   S    
C19   H77   S    
C80   H26   S    
C39   C46   A    
C26   C27   A    
C3    H44   S    
C28   O10   A    
C51   H49   S    
C108  H38   S    
C85   O27   A    
C42   C43   A    
C57   C68   S    
C3    C4    A    
C48   H5    S    
C14   H65   S    
C44   C45   A    
C91   H28   S    
C81   C103  S    
C10   H59   S    
C96   H31   S    
C29   C113  A    
C18   H74   S    
O14   Zn2   S    
C79   H24   S    
C30   H23   S    
C37   O18   S    
C89   C101  A    
O8    Zn5   S    
O17   Zn3   S    
C31   C32   A    
C50   H7    S    
O27   Zn4   S    
C113  H37   S    
C8    H47   S    
C11   C12   S    
C36   H78   S    
C6    C7    A    
C69   H17   S    
C72   O20   S    
C35   C46   S    
C33   C38   A    
C6    C86   S    
C3    C116  A    
C5    H46   S    
O6    Zn5   S    
C28   O11   A    
C71   C72   A    
C16   H70   S    
O26   Zn3   S    
C2    C24   A    
C52   H8    S    
C61   C68   A    
C1    C45   S    
C57   C58   A    
C5    C6    A    
C98   H32   S    
C17   H71   S    
C51   C106  A    
C86   O28   A    
C49   H6    S    
C92   C93   A    
C64   C75   S    
C87   O3    A    
C69   C75   A    
C105  C111  A    
C102  C103  A    
C53   C67   S    
C85   O26   A    
C58   C59   A    
C20   H81   S    
C88   C99   S    
C110  H40   S    
C10   C11   S    
C102  H33   S    
C63   C64   A    
C41   O13   A    
O3    Zn5   S    
C12   H63   S    
C82   O22   A    
C100  C111  S    
C36   C37   A    
C49   C50   A    
C73   C84   A    
C5    C40   A    
C103  C104  A    
C70   H18   S    
C47   H4    S    
C22   C23   A    
O7    Zn6   S    
C42   C87   S    
C58   H13   S    
C115  C116  A    
C109  C110  A    
C33   H56   S    
O1    Zn1   S    
C20   H80   S    
C63   C85   S    
C15   C16   S    
C86   O2    A    
