data_mof_unit_49365.cif
_audit_creation_date              2012-12-11T14:45:58-0500
_audit_creation_method            fapswitch 2.2
_symmetry_space_group_name_H-M    P1
_symmetry_Int_Tables_number       1
_space_group_crystal_system       triclinic
_cell_length_a                    10.87632
_cell_length_b                    10.941798
_cell_length_c                    18.930702
_cell_angle_alpha                 90.603855
_cell_angle_beta                  89.884171
_cell_angle_gamma                 119.465909
_cell_volume                      1961.34176296

loop_
_atom_site_label
_atom_site_type_symbol
_atom_type_description
_atom_site_fract_x
_atom_site_fract_y
_atom_site_fract_z
_atom_type_partial_charge
C1    C     C_R   0.866894 0.637822 0.604255 0.525465
C2    C     C_R   0.311769 0.552463 0.791735 -0.117556
C3    C     C_R   0.310082 0.545711 0.719363 0.174614
C4    C     C_R   0.310983 0.655944 0.679651 0.033886
C5    C     C_R   0.784620 0.065004 0.811437 -0.034998
C6    C     C_R   0.989691 0.019061 0.795591 -0.099966
C7    C     C_R   0.079227 0.998430 0.750356 -0.086399
C8    C     C_R   0.072426 0.013789 0.678180 -0.036507
C9    C     C_R   0.984966 0.061068 0.651636 -0.061934
C10   C     C_R   0.904008 0.095930 0.697554 0.015594
C11   C     C_R   0.892664 0.059412 0.769787 -0.001178
C12   C     C_R   0.268839 0.630306 0.604997 0.582755
C13   C     C_R   0.748420 0.194271 0.719741 0.024101
C14   C     C_R   0.696911 0.111952 0.779005 0.023394
C15   C     C_R   0.705263 0.295084 0.707964 -0.062505
C16   C     C_R   0.587042 0.286710 0.740736 -0.066839
C17   C     C_R   0.513392 0.180675 0.788208 -0.069187
C18   C     C_R   0.567761 0.094272 0.807241 -0.044911
C19   C     C_R   0.839948 0.173064 0.674340 -0.001768
C20   C     C_R   0.719258 0.643352 0.703424 -0.147459
C21   C     C_R   0.700112 0.647592 0.776026 -0.127153
C22   C     C_R   0.803831 0.656610 0.823513 0.031708
C23   C     C_R   0.863281 0.232019 0.603822 0.530588
C24   C     C_R   0.925270 0.658693 0.798415 -0.142793
C25   C     C_R   0.943533 0.653150 0.726215 -0.125521
C26   C     C_R   0.842411 0.648486 0.678671 0.018875
C27   C     C_R   0.276443 0.546100 0.278217 -0.137235
C28   C     C_R   0.286353 0.558217 0.206147 -0.133018
C29   C     C_R   0.340045 0.689769 0.175062 0.016441
C30   C     C_R   0.370285 0.807867 0.216891 -0.133926
C31   C     C_R   0.353177 0.796189 0.290441 -0.020586
C32   C     C_R   0.310301 0.663318 0.321566 0.023989
C33   C     C_R   0.754387 0.212841 0.279560 -0.126032
C34   C     C_R   0.865374 0.638441 0.397505 0.544059
C35   C     C_R   0.754631 0.203346 0.207325 -0.134096
C36   C     C_R   0.846148 0.166003 0.173548 0.030486
C37   C     C_R   0.948290 0.153064 0.213037 -0.144746
C38   C     C_R   0.952051 0.168743 0.286341 -0.147159
C39   C     C_R   0.852268 0.195134 0.319950 0.036223
C40   C     C_R   0.911797 0.783900 0.293324 -0.133716
C41   C     C_R   0.906674 0.791972 0.221190 -0.127978
C42   C     C_R   0.808148 0.676508 0.181143 0.036520
C43   C     C_R   0.711527 0.552949 0.215169 -0.136386
C44   C     C_R   0.720455 0.542868 0.288201 -0.133801
C45   C     C_R   0.268392 0.632163 0.395430 0.533333
C46   C     C_R   0.824281 0.657366 0.327118 0.030125
C47   C     C_R   0.765807 0.036520 0.888180 0.553399
C48   C     C_R   0.390264 0.698421 0.897882 0.536844
C49   C     C_R   0.795624 0.691512 0.896757 0.537036
C50   C     C_R   0.808579 0.108145 0.102342 0.560299
C51   C     C_R   0.395399 0.705451 0.103704 0.551991
C52   C     C_R   0.795654 0.699259 0.106503 0.552537
C53   C     C_R   0.863784 0.232891 0.394373 0.540308
C54   C     C_R   0.319024 0.773078 0.716082 0.168191
C55   C     C_R   0.316439 0.774674 0.789729 -0.146267
C56   C     C_R   0.326662 0.671383 0.827407 -0.062170
Cr1   Cr    Cr6+3 0.791660 0.390250 0.499930 1.009010
Cr2   Cr    Cr6+3 0.098520 0.708290 0.500540 1.057370
Cr3   Cr    Cr6+3 0.109770 0.401430 0.499480 1.046690
Cr4   Cr    Cr6+3 0.874790 0.925890 0.000070 1.000590
Cr5   Cr    Cr6+3 0.574120 0.948670 0.999300 0.999037
Cr6   Cr    Cr6+3 0.551420 0.625320 0.000920 1.015670
H1    H     H_    0.551154 0.360020 0.728252 0.176927
H2    H     H_    0.763619 0.380939 0.673878 0.161081
H3    H     H_    0.417891 0.168764 0.812430 0.118467
H4    H     H_    0.639895 0.637730 0.667025 0.150888
H5    H     H_    0.607750 0.650520 0.795108 0.140100
H6    H     H_    0.006824 0.668085 0.834435 0.120621
H7    H     H_    0.036410 0.651817 0.706986 0.144594
H8    H     H_    0.236719 0.441964 0.299646 0.138768
H9    H     H_    0.259943 0.464758 0.174987 0.135811
H10   H     H_    0.412861 0.910149 0.192774 0.128484
H11   H     H_    0.309740 0.857771 0.817336 0.126220
H12   H     H_    0.678505 0.237422 0.303422 0.141781
H13   H     H_    0.675827 0.216121 0.178431 0.129218
H14   H     H_    0.020981 0.125830 0.187710 0.113336
H15   H     H_    0.031528 0.159621 0.316568 0.107925
H16   H     H_    0.991128 0.874843 0.321956 0.134341
H17   H     H_    0.979836 0.890600 0.197073 0.128454
H18   H     H_    0.631467 0.464511 0.185428 0.117974
H19   H     H_    0.650679 0.444463 0.313592 0.124405
H20   H     H_    0.313698 0.467606 0.819849 0.185011
H21   H     H_    0.151556 0.966770 0.771476 0.144258
H22   H     H_    0.137120 0.992499 0.642410 0.200836
H23   H     H_    0.003568 0.005643 0.849937 0.179061
H24   H     H_    0.982964 0.070701 0.595010 0.130408
H25   H     H_    0.510360 0.018479 0.846655 0.152896
O1    O     O_R   0.766500 0.250040 0.579790 -0.523755
O2    O     O_R   0.218690 0.701900 0.425960 -0.489218
O3    O     O_R   0.249490 0.516440 0.419420 -0.531097
O4    O     O_R   0.982880 0.281910 0.424890 -0.509386
O5    O     O_3   0.999980 0.499990 0.499980 -0.264217
O6    O     O_R   0.895110 0.806860 0.920430 -0.548472
O7    O     O_R   0.872260 0.046970 0.925000 -0.511880
O8    O     O_R   0.691430 0.085060 0.918550 -0.524301
O9    O     O_R   0.451490 0.822460 0.925250 -0.534991
O10   O     O_R   0.413330 0.603360 0.920440 -0.523486
O11   O     O_R   0.676110 0.626250 0.926750 -0.499722
O12   O     O_R   0.798570 0.516780 0.574780 -0.515036
O13   O     O_R   0.895350 0.809870 0.080950 -0.527189
O14   O     O_R   0.872490 0.049760 0.073800 -0.501205
O15   O     O_R   0.691680 0.088070 0.079070 -0.521789
O16   O     O_R   0.451720 0.825250 0.074050 -0.505545
O17   O     O_R   0.413580 0.606370 0.080960 -0.519777
O18   O     O_R   0.676340 0.629040 0.075550 -0.498771
O19   O     O_3   0.666780 0.833290 0.000090 -0.264053
O20   O     O_R   0.984000 0.732950 0.581090 -0.507424
O21   O     O_R   0.218600 0.700890 0.574760 -0.457381
O22   O     O_R   0.249390 0.515350 0.579940 -0.453672
O23   O     O_R   0.982790 0.280900 0.573700 -0.489922
O24   O     O_R   0.766600 0.251130 0.419260 -0.537849
O25   O     O_R   0.798660 0.517790 0.425980 -0.507874
O26   O     O_R   0.984100 0.734040 0.420570 -0.516506
Cl1   Cl    Cl    0.341171 0.923352 0.672023 -0.662899
C57   C     C_R   0.376468 0.922253 0.331992 0.043592
C58   C     C_R   0.313472 0.001260 0.309898 -0.104270
C59   C     C_R   0.326838 0.114360 0.350763 -0.135876
C60   C     C_R   0.401386 0.148612 0.414504 -0.101608
C61   C     C_R   0.464775 0.071364 0.436819 -0.060237
C62   C     C_R   0.456303 0.961521 0.394829 -0.060174
H26   H     H_    0.251380 0.973551 0.261779 0.097776
H27   H     H_    0.277585 0.174140 0.333502 0.098367
H28   H     H_    0.409954 0.234904 0.446632 0.120482
H29   H     H_    0.521708 0.097447 0.486476 0.161133
H30   H     H_    0.508225 0.904397 0.412408 0.100818
Cl2   Cl    Cl    0.313525 0.396303 0.684493 -0.641790

loop_
_geom_bond_atom_site_label_1
_geom_bond_atom_site_label_2
_ccdc_geom_bond_type
C7    H21   S    
C55   C56   A    
Cr1   O5    S    
C34   O25   A    
C41   C42   A    
C14   C18   A    
C35   C36   A    
C43   C44   A    
C1    O12   A    
Cr5   O9    S    
C36   C50   S    
C7    C8    A    
Cr6   O18   S    
C39   C53   S    
C61   H29   S    
C34   O26   A    
C40   C46   A    
C48   O10   A    
C5    C47   S    
C35   H13   S    
C29   C30   A    
C6    H23   S    
C20   H4    S    
C36   C37   A    
Cr5   O16   S    
C5    C11   A    
C30   C31   A    
Cr1   O25   S    
C51   O16   A    
C15   C16   A    
Cr1   O12   S    
Cr3   O23   S    
C58   C59   A    
Cr2   O20   S    
C32   C45   S    
C60   C61   A    
C33   C35   A    
C49   O11   A    
Cr6   O11   S    
C8    C9    A    
C53   O4    A    
Cr2   O26   S    
C15   H2    S    
C34   C46   S    
C16   H1    S    
C51   O17   A    
C4    C12   S    
C45   O2    A    
C9    C10   A    
Cr2   O21   S    
C60   H28   S    
Cr4   O6    S    
C53   O24   A    
C21   C22   A    
C21   H5    S    
C31   C57   S    
C12   O22   A    
C44   C46   A    
Cr6   O17   S    
C38   C39   A    
C3    Cl2   S    
C58   H26   S    
C13   C19   A    
C24   C25   A    
C44   H19   S    
C6    C11   A    
C12   O21   A    
C62   H30   S    
C16   C17   A    
Cr3   O4    S    
C25   C26   A    
C52   O13   A    
Cr3   O3    S    
C19   C23   S    
C59   H27   S    
C37   C38   A    
C45   O3    A    
C9    H24   S    
Cr6   O10   S    
C31   C32   A    
C10   C19   A    
C17   C18   A    
C33   C39   A    
Cr5   O19   S    
C5    C14   A    
C27   H8    S    
C1    O20   A    
C22   C49   S    
C40   C41   A    
C37   H14   S    
C52   O18   A    
C50   O15   A    
C23   O1    A    
C13   C15   A    
C1    C26   S    
C40   H16   S    
C2    H20   S    
C28   H9    S    
C25   H7    S    
C42   C43   A    
C3    C4    A    
Cr4   O19   S    
C29   C51   S    
C48   C56   S    
C23   O23   A    
C54   C55   A    
C28   C29   A    
C48   O9    A    
C4    C54   A    
C27   C32   A    
C8    H22   S    
Cr4   O13   S    
C41   H17   S    
C30   H10   S    
C61   C62   A    
Cr5   O8    S    
C6    C7    A    
Cr6   O19   S    
C38   H15   S    
C17   H3    S    
C18   H25   S    
Cr1   O1    S    
Cr5   O15   S    
C43   H18   S    
C2    C56   A    
C59   C60   A    
C57   C58   A    
Cr1   O24   S    
C20   C26   A    
C54   Cl1   S    
Cr3   O22   S    
C47   O7    A    
C2    C3    A    
C22   C24   A    
Cr3   O5    S    
Cr2   O2    S    
C10   C11   A    
C24   H6    S    
C55   H11   S    
C33   H12   S    
C20   C21   A    
C50   O14   A    
C57   C62   A    
C27   C28   A    
C47   O8    A    
C49   O6    A    
C13   C14   A    
Cr2   O5    S    
Cr4   O14   S    
C42   C52   S    
Cr4   O7    S    
