data_mof_unit_52167.cif
_audit_creation_date              2012-12-10T18:13:51-0500
_audit_creation_method            fapswitch 2.2
_symmetry_space_group_name_H-M    P1
_symmetry_Int_Tables_number       1
_space_group_crystal_system       triclinic
_cell_length_a                    10.78168
_cell_length_b                    9.495882
_cell_length_c                    23.467607
_cell_angle_alpha                 90.654898
_cell_angle_beta                  87.317002
_cell_angle_gamma                 90.787394
_cell_volume                      2399.64990062

loop_
_atom_site_label
_atom_site_type_symbol
_atom_type_description
_atom_site_fract_x
_atom_site_fract_y
_atom_site_fract_z
_atom_type_partial_charge
C1    C     C_R   0.260300 0.498989 0.499468 0.930237
C2    C     C_R   0.350018 0.358291 0.971017 -0.106330
C3    C     C_R   0.344672 0.366286 0.030098 -0.102030
C4    C     C_R   0.445302 0.421488 0.059211 0.003073
C5    C     C_R   0.554023 0.467715 0.028448 -0.059695
C6    C     C_R   0.656440 0.520730 0.058006 -0.177681
C7    C     C_R   0.765507 0.563912 0.026045 0.353846
C8    C     C_R   0.769746 0.558592 0.965811 0.352437
C9    C     C_R   0.439087 0.431331 0.118710 0.618674
C10   C     C_R   0.644987 0.526892 0.118601 0.654673
C11   C     C_R   0.512292 0.615354 0.237083 -0.114827
C12   C     C_R   0.501407 0.499108 0.390948 0.869900
C13   C     C_R   0.502024 0.620071 0.296610 -0.117203
C14   C     C_R   0.508609 0.495595 0.328048 -0.098671
C15   C     C_R   0.525808 0.366694 0.298863 -0.202017
C16   C     C_R   0.537279 0.361869 0.239467 0.441765
C17   C     C_R   0.529912 0.486564 0.208262 0.235246
C18   C     C_R   0.454663 0.561098 0.768561 -0.111477
C19   C     C_R   0.437222 0.570247 0.710280 0.383641
C20   C     C_R   0.516949 0.498161 0.670971 -0.117554
C21   C     C_R   0.612258 0.415749 0.691581 -0.203878
C22   C     C_R   0.627899 0.405286 0.750150 -0.032824
C23   C     C_R   0.740172 0.501012 0.498944 0.865965
C24   C     C_R   0.548376 0.477394 0.788922 0.238261
C25   C     C_3   0.080380 0.612035 0.457147 0.089736
C26   C     C_3   0.065695 0.532517 0.560277 0.167680
C27   C     C_3   0.937792 0.627793 0.463134 0.224914
C28   C     C_3   0.923021 0.509349 0.561804 0.176358
C29   C     C_3   0.070618 0.352631 0.479403 -0.351205
C30   C     C_3   0.122698 0.497714 0.499114 -0.163639
C31   C     C_3   0.878728 0.503279 0.499447 -0.171902
C32   C     C_3   0.929838 0.363003 0.472265 -0.445961
C33   C     C_3   0.588269 0.085399 0.541955 -0.227794
C34   C     C_3   0.586384 0.919370 0.542613 -0.184495
C35   C     C_3   0.374877 0.083131 0.517202 0.259023
C36   C     C_3   0.374264 0.915614 0.516064 0.240542
C37   C     C_3   0.536424 0.083066 0.443729 0.258140
C38   C     C_3   0.535836 0.915664 0.443658 0.270664
C39   C     C_R   0.501175 0.500293 0.608978 0.921776
C40   C     C_R   0.659982 0.512209 0.875696 0.629629
C41   C     C_R   0.458276 0.405249 0.880051 0.566365
C42   C     C_R   0.455475 0.407045 0.939605 0.005418
C43   C     C_R   0.558680 0.461576 0.968059 -0.057971
C44   C     C_R   0.664875 0.510669 0.936161 -0.177865
Cu1   Cu    Cu3+1 0.499860 0.642410 0.500030 1.064548
Cu2   Cu    Cu3+1 0.499860 0.357590 0.500030 1.025422
H1    H     H_    0.270044 0.315943 0.950025 0.212595
H2    H     H_    0.684401 0.122980 0.531258 0.210903
H3    H     H_    0.681418 0.880906 0.533450 0.263568
H4    H     H_    0.467050 0.115860 0.413006 0.071706
H5    H     H_    0.465298 0.880754 0.413159 0.069929
H6    H     H_    0.308317 0.117341 0.485443 0.071309
H7    H     H_    0.309476 0.881354 0.482891 0.076150
H8    H     H_    0.488839 0.720855 0.317917 0.193413
H9    H     H_    0.531713 0.269316 0.322023 0.213485
N1    N     N_R   0.557478 0.461399 0.849470 -0.471362
N2    N     N_R   0.538035 0.482414 0.146998 -0.467880
N3    N     N_3   0.500250 0.143650 0.501250 -0.240289
N4    N     N_3   0.500250 0.856350 0.501250 -0.248635
O1    O     O_R   0.317570 0.620260 0.500030 -0.578598
O2    O     O_R   0.317570 0.379740 0.500030 -0.559440
O3    O     O_R   0.499840 0.620290 0.417900 -0.568386
O4    O     O_R   0.499840 0.379710 0.417900 -0.577369
O5    O     O_R   0.682190 0.620260 0.500010 -0.502628
O6    O     O_R   0.682190 0.379740 0.500010 -0.580429
O7    O     O_R   0.499920 0.620230 0.582140 -0.528150
O8    O     O_R   0.499920 0.379770 0.582140 -0.555198
O9    O     O_2   0.754046 0.567787 0.843106 -0.419151
O10   O     O_2   0.361427 0.349522 0.852644 -0.475166
O11   O     O_2   0.334695 0.390234 0.148341 -0.467690
O12   O     O_2   0.738852 0.576099 0.149430 -0.415373
Cl1   Cl    Cl    0.306249 0.660360 0.690095 -0.388138
H10   H     H_    0.674153 0.358511 0.662191 0.170457
H11   H     H_    0.700231 0.339373 0.765375 0.183796
Cl2   Cl    Cl    0.130467 0.575593 0.384337 -0.587048
Cl3   Cl    Cl    0.130015 0.429898 0.615075 -0.430620
H12   H     H_    0.125759 0.714441 0.467458 0.188935
H13   H     H_    0.087221 0.644585 0.570531 0.227296
Cl4   Cl    Cl    0.907515 0.799960 0.492877 -0.511608
Cl5   Cl    Cl    0.845891 0.636204 0.607986 -0.511327
H14   H     H_    0.897887 0.625556 0.420261 0.201365
H15   H     H_    0.899290 0.405910 0.581720 0.161261
H16   H     H_    0.117086 0.317116 0.438523 0.234800
H17   H     H_    0.088538 0.271000 0.511557 0.245371
H18   H     H_    0.910244 0.358397 0.426124 0.259381
H19   H     H_    0.884626 0.269066 0.492656 0.241563
H20   H     H_    0.566535 0.125555 0.585837 0.208236
H21   H     H_    0.560543 0.883396 0.586495 0.220747
H22   H     H_    0.260962 0.329346 0.052869 0.212709
Cl6   Cl    Cl    0.314616 0.155865 0.583987 -0.407593
Cl7   Cl    Cl    0.306222 0.842629 0.580272 -0.418944
Cl8   Cl    Cl    0.680982 0.157330 0.415426 -0.514197
Cl9   Cl    Cl    0.677060 0.842254 0.413278 -0.455331
Cl10  Cl    Cl    0.900853 0.625087 0.059418 -0.380131
Cl11  Cl    Cl    0.911137 0.609300 0.929384 -0.382541
H23   H     H_    0.506283 0.711788 0.213241 0.189928
Cl12  Cl    Cl    0.563081 0.198566 0.205045 -0.502573
H24   H     H_    0.392205 0.615561 0.798583 0.193977

loop_
_geom_bond_atom_site_label_1
_geom_bond_atom_site_label_2
_ccdc_geom_bond_type
C11   H23   S    
Cu1   O1    S    
C33   N3    S    
C41   C42   A    
C19   C20   A    
C36   N4    S    
C7    C8    A    
Cu1   Cu2   S    
C26   H13   S    
C35   N3    S    
C25   H12   S    
C37   C38   S    
C29   H16   S    
C29   C32   S    
C27   Cl4   S    
C5    C6    A    
C16   Cl12  S    
C15   C16   A    
C21   H10   S    
Cu1   O3    S    
C18   C19   A    
C36   H7    S    
C11   C17   A    
C35   C36   S    
C16   C17   A    
C40   N1    A    
C26   Cl3   S    
C18   C24   A    
C37   N3    S    
C10   O12   S    
C5    C43   A    
C21   C22   A    
Cu2   N3    S    
C19   Cl1   S    
C8    Cl11  S    
Cu2   O2    S    
C28   H15   S    
C27   H14   S    
C10   N2    A    
C9    O11   S    
C29   H17   S    
C1    O1    A    
C12   O4    A    
C38   H5    S    
C27   C31   S    
C25   Cl2   S    
C23   C31   S    
C43   C44   A    
C41   N1    A    
C29   C30   S    
C12   O3    A    
C31   C32   S    
C32   H19   S    
C33   C34   S    
C34   H21   S    
Cu2   O6    S    
C36   Cl7   S    
C23   O5    A    
C12   C14   S    
C26   C30   S    
C34   N4    S    
C39   O7    A    
C22   C24   A    
C24   N1    S    
C42   C43   A    
C22   H11   S    
C3    C4    A    
C35   H6    S    
C41   O10   S    
C13   H8    S    
C25   C30   S    
C20   C39   S    
C7    Cl10  S    
Cu1   N4    S    
C34   H3    S    
C37   Cl8   S    
C39   O8    A    
C28   C31   S    
C8    C44   A    
C4    C5    A    
C1    O2    A    
C6    C10   A    
C6    C7    A    
C2    H1    S    
C25   C27   S    
Cu1   O5    S    
C26   C28   S    
Cu2   O4    S    
C3    H22   S    
C23   O6    A    
C2    C3    A    
C33   H20   S    
Cu2   O8    S    
C37   H4    S    
C11   C13   A    
C2    C42   A    
C32   H18   S    
C38   Cl9   S    
C1    C30   S    
C9    N2    A    
C28   Cl5   S    
C38   N4    S    
C35   Cl6   S    
C40   C44   A    
C20   C21   A    
C40   O9    S    
C17   N2    S    
Cu1   O7    S    
C33   H2    S    
C14   C15   A    
C18   H24   S    
C4    C9    A    
C13   C14   A    
C15   H9    S    
