data_mof_unit_22191.cif
_audit_creation_date              2012-12-10T16:48:45-0500
_audit_creation_method            fapswitch 2.2
_symmetry_space_group_name_H-M    P1
_symmetry_Int_Tables_number       1
_space_group_crystal_system       triclinic
_cell_length_a                    7.758162
_cell_length_b                    8.640241
_cell_length_c                    10.682912
_cell_angle_alpha                 88.37151
_cell_angle_beta                  99.1461
_cell_angle_gamma                 93.276857
_cell_volume                      705.705042689

loop_
_atom_site_label
_atom_site_type_symbol
_atom_type_description
_atom_site_fract_x
_atom_site_fract_y
_atom_site_fract_z
_atom_type_partial_charge
C1    C     C_R   0.544259 0.794382 0.496871 0.863368
C2    C     C_2   0.431976 0.043359 0.504842 0.250856
C3    C     C_3   0.124786 0.660803 0.090408 0.176660
C4    C     C_3   0.066766 0.756269 0.970656 -0.785752
C5    C     C_3   0.758181 0.293183 0.941265 0.099474
C6    C     C_3   0.915714 0.232205 0.027807 -0.725379
C7    C     C_R   0.455777 0.205625 0.503227 0.885347
C8    C     C_R   0.573678 0.497334 0.736644 0.774015
C9    C     C_R   0.428724 0.515740 0.263388 0.785499
C10   C     C_2   0.619660 0.512730 0.872921 0.277551
C11   C     C_2   0.392879 0.552253 0.128054 0.285930
C12   C     C_2   0.509966 0.586745 0.932238 -0.207840
C13   C     C_2   0.530678 0.583735 0.068420 -0.224382
C14   C     C_2   0.568103 0.956635 0.495377 0.258674
F1    F     F_    0.731771 0.016498 0.484322 -0.631436
F2    F     F_    0.268323 0.983487 0.515938 -0.632931
H1    H     H_    0.663620 0.591033 0.119668 0.185398
H2    H     H_    0.755284 0.246714 0.844768 0.153128
H3    H     H_    0.638219 0.249686 0.979341 0.137594
H4    H     H_    0.925526 0.280801 0.124017 0.255985
H5    H     H_    0.901743 0.103902 0.035334 0.189213
H6    H     H_    0.037130 0.265554 0.988634 0.280984
H7    H     H_    0.391352 0.633298 0.880488 0.194236
H8    H     H_    0.985573 0.385009 0.407171 0.211928
H9    H     H_    0.014420 0.615067 0.592767 0.217245
H10   H     H_    0.193447 0.741145 0.164648 0.113015
H11   H     H_    0.006849 0.609348 0.125927 0.190001
H12   H     H_    0.006650 0.679584 0.892119 0.293483
H13   H     H_    0.969249 0.838517 0.988816 0.202362
H14   H     H_    0.181054 0.822975 0.941689 0.230940
N1    N     N_2   0.940600 0.458860 0.467170 -0.152089
N2    N     N_2   0.059400 0.541140 0.532830 -0.146999
O1    O     O_R   0.391630 0.738350 0.508060 -0.573455
O2    O     O_3   0.772964 0.456734 0.938701 -0.610512
O3    O     O_R   0.608370 0.261650 0.491940 -0.564417
O4    O     O_R   0.674540 0.711990 0.487010 -0.585457
O5    O     O_R   0.325460 0.288010 0.512990 -0.573684
O6    O     O_R   0.411370 0.508250 0.688780 -0.629283
O7    O     O_R   0.588630 0.491750 0.311220 -0.636961
O8    O     O_R   0.694270 0.481880 0.667740 -0.600082
O9    O     O_R   0.305730 0.518120 0.332260 -0.623189
O10   O     O_3   0.224474 0.538353 0.060963 -0.615030
Zn1   Zn    Zn3+2 0.311100 0.517600 0.514050 1.002151
Zn2   Zn    Zn3+2 0.688900 0.482400 0.485950 1.003843

loop_
_geom_bond_atom_site_label_1
_geom_bond_atom_site_label_2
_ccdc_geom_bond_type
O5    Zn1   S    
C3    O10   S    
O7    Zn2   S    
C5    H3    S    
C1    C14   S    
C2    F2    S    
O8    Zn2   S    
C9    O9    A    
C4    H13   S    
C13   H1    S    
C5    O2    S    
H9    N2    S    
C3    H11   S    
C7    O5    A    
H8    N1    S    
C1    O1    A    
O6    Zn1   S    
C10   O2    S    
O3    Zn2   S    
O9    Zn1   S    
C12   H7    S    
C8    O6    A    
C10   C12   D    
C4    H12   S    
N2    Zn1   S    
C9    C11   S    
C5    C6    S    
C2    C14   D    
O4    Zn2   S    
C11   C13   D    
N1    Zn2   S    
C3    C4    S    
O1    Zn1   S    
C9    O7    A    
C6    H4    S    
C12   C13   S    
C11   O10   S    
C8    C10   S    
C14   F1    S    
C5    H2    S    
C8    O8    A    
C2    C7    S    
C6    H5    S    
C7    O3    A    
C3    H10   S    
C4    H14   S    
N1    N2    D    
C1    O4    A    
C6    H6    S    
