data_mof_unit_50941.cif
_audit_creation_date              2012-12-10T17:36:18-0500
_audit_creation_method            fapswitch 2.2
_symmetry_space_group_name_H-M    P1
_symmetry_Int_Tables_number       1
_space_group_crystal_system       triclinic
_cell_length_a                    12.327453
_cell_length_b                    13.174928
_cell_length_c                    15.868691
_cell_angle_alpha                 77.927675
_cell_angle_beta                  101.032364
_cell_angle_gamma                 116.568969
_cell_volume                      2239.99517619

loop_
_atom_site_label
_atom_site_type_symbol
_atom_type_description
_atom_site_fract_x
_atom_site_fract_y
_atom_site_fract_z
_atom_type_partial_charge
C1    C     C_R   0.854874 0.286579 0.507394 0.771251
C2    C     C_3   0.109915 0.480583 0.068327 -0.461531
C3    C     C_3   0.999158 0.498684 0.083223 0.220384
C4    C     C_3   0.014065 0.616953 0.030188 -0.407284
C5    C     C_3   0.008538 0.614997 0.932234 -0.382530
C6    C     C_1   0.000693 0.499140 0.175498 -0.073499
C7    C     C_1   0.997028 0.498552 0.824658 -0.087159
C8    C     C_1   0.997923 0.499095 0.749118 -0.185480
C9    C     C_R   0.275949 0.021052 0.384373 -0.192237
C10   C     C_R   0.228087 0.834507 0.469483 -0.047076
C11   C     C_R   0.815112 0.085296 0.563884 -0.190806
C12   C     C_R   0.999360 0.499656 0.659551 0.822899
C13   C     C_R   0.736247 0.970447 0.580902 -0.148342
C14   C     C_R   0.613037 0.932703 0.550530 -0.182844
C15   C     C_R   0.566479 0.009351 0.499045 0.078730
C16   C     C_R   0.650058 0.123668 0.473328 0.080155
C17   C     C_R   0.439958 0.976012 0.471391 0.072191
C18   C     C_R   0.400518 0.053032 0.412179 0.165929
C19   C     C_R   0.485919 0.159987 0.379699 -0.238095
C20   C     C_R   0.608899 0.194219 0.408724 -0.190945
C21   C     C_R   0.351015 0.868530 0.501380 -0.254020
C22   C     C_R   0.190048 0.911856 0.412439 -0.198507
C23   C     C_R   0.145089 0.713395 0.487394 0.792887
C24   C     C_R   0.772938 0.163533 0.512195 -0.099544
C25   C     C_R   0.345388 0.327688 0.636943 -0.303241
C26   C     C_R   0.760257 0.645798 0.383923 0.078204
C27   C     C_R   0.664134 0.677742 0.358587 -0.258787
C28   C     C_R   0.560353 0.622722 0.402225 -0.191785
C29   C     C_R   0.551579 0.534602 0.472293 -0.006894
C30   C     C_R   0.652813 0.505126 0.496126 0.286975
C31   C     C_R   0.446921 0.475018 0.519699 -0.038353
C32   C     C_R   0.445931 0.387576 0.589408 0.176517
C33   C     C_R   0.545431 0.360563 0.611701 -0.282435
C34   C     C_R   0.000456 0.500096 0.340482 0.819541
C35   C     C_R   0.646656 0.418357 0.566447 -0.178344
C36   C     C_R   0.342387 0.498006 0.501427 0.020848
C37   C     C_R   0.245874 0.354553 0.615732 0.073275
C38   C     C_3   0.105800 0.476355 0.970592 -0.388767
C39   C     C_3   0.875513 0.403024 0.948839 -0.440952
C40   C     C_3   0.881470 0.396791 0.048435 0.347758
C41   C     C_1   0.001001 0.499573 0.251016 -0.174841
C42   C     C_3   0.996699 0.498028 0.916872 0.271708
Cu1   Cu    Cu3+1 0.098280 0.475420 0.519630 0.933755
Cu2   Cu    Cu3+1 0.901720 0.524580 0.480370 0.922579
H1    H     H_    0.109306 0.399584 0.107255 0.161749
H2    H     H_    0.193156 0.542110 0.946640 0.175951
H3    H     H_    0.197054 0.551333 0.090173 0.186345
H4    H     H_    0.946201 0.644705 0.041437 0.139297
H5    H     H_    0.095010 0.886464 0.386879 0.146272
H6    H     H_    0.457586 0.217642 0.331536 0.144687
H7    H     H_    0.245416 0.079415 0.339010 0.132159
H8    H     H_    0.374748 0.808401 0.549152 0.147548
H9    H     H_    0.908950 0.113329 0.593091 0.150056
H10   H     H_    0.557509 0.842478 0.566891 0.129336
H11   H     H_    0.770118 0.910694 0.620242 0.140483
H12   H     H_    0.097162 0.391125 0.962326 0.163819
H13   H     H_    0.671080 0.275570 0.377809 0.180143
H14   H     H_    0.167834 0.308683 0.652102 0.119986
H15   H     H_    0.545453 0.294121 0.665208 0.150840
H16   H     H_    0.343906 0.260659 0.690255 0.134405
H17   H     H_    0.335072 0.562832 0.449673 0.123878
H18   H     H_    0.840511 0.689001 0.349723 0.121788
H19   H     H_    0.488772 0.650963 0.379843 0.135512
H20   H     H_    0.670084 0.745372 0.304949 0.142269
H21   H     H_    0.718400 0.392126 0.589467 0.206250
H22   H     H_    0.796886 0.419530 0.913279 0.172785
H23   H     H_    0.861262 0.318753 0.933817 0.140427
H24   H     H_    0.895785 0.318293 0.076800 0.108148
H25   H     H_    0.092594 0.685464 0.906936 0.170261
H26   H     H_    0.929573 0.631098 0.896372 0.157278
H27   H     H_    0.104083 0.684338 0.052047 0.174680
N1    N     N_R   0.246300 0.438200 0.549400 -0.179450
N2    N     N_R   0.754300 0.561180 0.451130 -0.205884
O1    O     O_R   0.972520 0.318130 0.524690 -0.580023
O2    O     O_R   0.806530 0.359650 0.491530 -0.604929
O3    O     O_R   0.083030 0.479240 0.637150 -0.576183
O4    O     O_R   0.917040 0.520750 0.603990 -0.591538
O5    O     O_R   0.193470 0.640350 0.508470 -0.587334
O6    O     O_R   0.027480 0.681870 0.475310 -0.587036
O7    O     O_R   0.082960 0.479250 0.396010 -0.576353
O8    O     O_R   0.916970 0.520760 0.362850 -0.587218
O9    O     O_3   0.768648 0.372821 0.077180 -0.578403
C43   C     C_3   0.735162 0.465243 0.057916 0.098571
H28   H     H_    0.756202 0.515012 0.992828 0.131320
H29   H     H_    0.780773 0.522325 0.108701 0.152305
C44   C     C_3   0.598201 0.418398 0.059960 -0.807443
H30   H     H_    0.573081 0.369927 0.124859 0.252245
H31   H     H_    0.570501 0.490199 0.046414 0.193532
H32   H     H_    0.548633 0.360500 0.010019 0.246180

loop_
_geom_bond_atom_site_label_1
_geom_bond_atom_site_label_2
_ccdc_geom_bond_type
C5    C42   S    
Cu1   N1    S    
C19   C20   A    
C9    H7    S    
C3    C6    S    
C7    C8    T    
C10   C22   A    
Cu1   O5    S    
C26   C27   A    
C5    H26   S    
C30   C35   A    
C1    O1    A    
C28   C29   A    
C38   C42   S    
C44   H31   S    
C9    C22   A    
C35   H21   S    
C15   C16   A    
C11   C24   A    
C26   N2    A    
C18   C19   A    
C7    C42   S    
C5    H25   S    
C34   O7    A    
C43   H28   S    
C6    C41   T    
C34   O8    A    
C37   H14   S    
C11   H9    S    
C8    C12   S    
C25   C37   A    
Cu1   O1    S    
C33   H15   S    
C13   C14   A    
C34   C41   S    
C39   C42   S    
C10   C21   A    
C1    O2    A    
C40   O9    S    
Cu2   O8    S    
C27   H20   S    
C39   C40   S    
C30   N2    A    
C44   H30   S    
Cu1   O7    S    
C17   C21   A    
Cu2   O2    S    
Cu1   Cu2   S    
C29   C30   A    
C2    C38   S    
C31   C32   A    
C16   C20   A    
C12   O4    A    
C17   C18   A    
C22   H5    S    
C25   H16   S    
C3    C40   S    
C12   O3    A    
C2    H3    S    
C39   H22   S    
C3    C4    S    
C14   H10   S    
C4    H4    S    
Cu1   O3    S    
C15   C17   A    
Cu2   O4    S    
C43   H29   S    
C14   C15   A    
C39   H23   S    
Cu2   O6    S    
C4    C5    S    
C44   H32   S    
C10   C23   S    
C32   C33   A    
C2    C3    S    
C26   H18   S    
C29   C31   A    
C11   C13   A    
C19   H6    S    
C25   C32   A    
C33   C35   A    
C4    H27   S    
C23   O5    A    
Cu2   N2    S    
C38   H2    S    
C2    H1    S    
C28   H19   S    
C36   N1    A    
C9    C18   A    
C43   C44   S    
C38   H12   S    
C1    C24   S    
C16   C24   A    
O9    C43   S    
C40   H24   S    
C37   N1    A    
C27   C28   A    
C31   C36   A    
C23   O6    A    
C20   H13   S    
C21   H8    S    
C36   H17   S    
C13   H11   S    
