data_mof_unit_26192.cif
_audit_creation_date              2012-12-10T17:44:28-0500
_audit_creation_method            fapswitch 2.2
_symmetry_space_group_name_H-M    P1
_symmetry_Int_Tables_number       1
_space_group_crystal_system       triclinic
_cell_length_a                    9.944761
_cell_length_b                    10.622316
_cell_length_c                    15.403977
_cell_angle_alpha                 91.666009
_cell_angle_beta                  68.438899
_cell_angle_gamma                 89.897039
_cell_volume                      1512.58170382

loop_
_atom_site_label
_atom_site_type_symbol
_atom_type_description
_atom_site_fract_x
_atom_site_fract_y
_atom_site_fract_z
_atom_type_partial_charge
Br1   Br    Br    0.963420 0.579668 0.857213 -0.544520
Br2   Br    Br    0.038503 0.237051 0.953088 -0.516634
Br3   Br    Br    0.781064 0.407101 0.755080 -0.474693
C1    C     C_R   0.501124 0.739207 0.497789 0.851406
C2    C     C_R   0.740452 0.494834 0.027791 0.057068
C3    C     C_R   0.603783 0.442596 0.080038 0.054806
C4    C     C_R   0.409985 0.495230 0.675695 0.879915
C5    C     C_R   0.830765 0.537968 0.074364 -0.085797
C6    C     C_R   0.784374 0.536041 0.171043 -0.202286
C7    C     C_R   0.558976 0.443935 0.177464 -0.226615
C8    C     C_R   0.471463 0.862232 0.339707 -0.178347
C9    C     C_R   0.456132 0.924911 0.265494 -0.117924
C10   C     C_R   0.456623 0.055917 0.265355 -0.123208
C11   C     C_R   0.472386 0.124700 0.339451 -0.184993
C12   C     C_R   0.440096 0.417898 0.900418 0.097466
C13   C     C_R   0.486632 0.062561 0.415751 0.097440
C14   C     C_R   0.486177 0.930594 0.415893 0.096396
C15   C     C_R   0.504752 0.871315 0.491590 -0.089274
C16   C     C_R   0.501559 0.260652 0.497508 0.867735
C17   C     C_R   0.528953 0.938383 0.563231 -0.208926
C18   C     C_R   0.529316 0.067016 0.563106 -0.179409
C19   C     C_R   0.505558 0.128080 0.491310 -0.101403
C20   C     C_R   0.794609 0.673447 0.616844 -0.136103
C21   C     C_R   0.833156 0.759636 0.673066 -0.179835
C22   C     C_R   0.972143 0.758350 0.673375 -0.105980
C23   C     C_R   0.310914 0.351821 0.945974 0.081975
C24   C     C_R   0.073153 0.670172 0.618039 -0.097275
C25   C     C_R   0.039614 0.584730 0.557595 0.172320
C26   C     C_R   0.895509 0.585628 0.557101 0.211927
C27   C     C_R   0.960148 0.418631 0.444918 -0.095561
C28   C     C_R   0.590351 0.498592 0.324237 0.833639
C29   C     C_R   0.103119 0.418839 0.444789 -0.091614
C30   C     C_R   0.359824 0.461324 0.773645 -0.106912
C31   C     C_R   0.646807 0.492252 0.222661 -0.057357
C32   C     C_R   0.211203 0.333753 0.900860 0.257966
C33   C     C_R   0.240079 0.384079 0.812902 -0.155035
C34   C     C_R   0.548757 0.425551 0.939042 -0.043449
C35   C     C_R   0.453073 0.483506 0.820782 -0.209148
C36   C     C_R   0.510787 0.400665 0.034356 0.043520
C37   C     C_R   0.380854 0.335310 0.080101 -0.201178
C38   C     C_R   0.285344 0.307362 0.035144 -0.179612
C39   C     C_R   0.693469 0.457432 0.885693 0.204939
C40   C     C_R   0.784729 0.501039 0.930357 0.235998
H1    H     H_    0.188769 0.255665 0.072611 0.189581
H2    H     H_    0.684329 0.677376 0.623687 0.191375
H3    H     H_    0.753737 0.826360 0.717963 0.158077
H4    H     H_    0.452866 0.412785 0.220314 0.141726
H5    H     H_    0.000925 0.823867 0.718670 0.179445
H6    H     H_    0.175293 0.669724 0.625803 0.205315
H7    H     H_    0.182454 0.352424 0.399571 0.137912
H8    H     H_    0.854211 0.572386 0.205523 0.159072
H9    H     H_    0.170222 0.361568 0.774921 0.222500
H10   H     H_    0.539777 0.549779 0.792663 0.183518
H11   H     H_    0.352286 0.300863 0.149674 0.129241
H12   H     H_    0.937160 0.574592 0.037218 0.188042
H13   H     H_    0.544616 0.890876 0.620263 0.140955
H14   H     H_    0.473834 0.760482 0.335927 0.151294
H15   H     H_    0.445261 0.871614 0.207502 0.146703
H16   H     H_    0.446244 0.104363 0.207235 0.141038
H17   H     H_    0.475525 0.226158 0.335512 0.135195
H18   H     H_    0.545106 0.119359 0.620078 0.169420
H19   H     H_    0.932480 0.352045 0.399860 0.145355
N1    N     N_R   0.856800 0.501200 0.500850 -0.113027
N2    N     N_R   0.142390 0.501280 0.500880 -0.118044
O1    O     O_R   0.385310 0.683220 0.500000 -0.641507
O2    O     O_R   0.614640 0.683250 0.500010 -0.634100
O3    O     O_R   0.319840 0.499980 0.632240 -0.609155
O4    O     O_R   0.549160 0.500000 0.632250 -0.607822
O5    O     O_R   0.385360 0.316750 0.499990 -0.610145
O6    O     O_R   0.614690 0.316780 0.500000 -0.598836
O7    O     O_R   0.450840 0.500000 0.367750 -0.629682
O8    O     O_R   0.680160 0.500020 0.367760 -0.609378
Zn1   Zn    Zn3+2 0.346880 0.499980 0.499990 0.946162
Zn2   Zn    Zn3+2 0.653120 0.500020 0.500010 0.958341

loop_
_geom_bond_atom_site_label_1
_geom_bond_atom_site_label_2
_ccdc_geom_bond_type
Br2   C32   S    
C27   C29   A    
C26   N1    A    
Br3   C39   S    
C37   C38   A    
C20   H2    S    
C32   C33   A    
C6    H8    S    
C17   H13   S    
C20   C26   A    
C25   C26   A    
C2    C3    A    
O4    Zn2   S    
O2    Zn2   S    
C30   C33   A    
O1    Zn1   S    
C34   C39   A    
C12   C34   A    
C4    O4    A    
Br1   C40   S    
C13   C14   A    
O6    Zn2   S    
N2    Zn1   S    
O5    Zn1   S    
O3    Zn1   S    
C10   C11   A    
C18   H18   S    
C33   H9    S    
C9    H15   S    
C28   O7    A    
C2    C40   A    
C18   C19   A    
C4    C30   S    
C5    H12   S    
C16   C19   S    
C21   C22   A    
C29   N2    A    
O8    Zn2   S    
C36   C37   A    
O7    Zn1   S    
C5    C6    A    
C12   C23   A    
C12   C35   A    
C20   C21   A    
C14   C15   A    
C28   C31   S    
C7    C31   A    
C9    C10   A    
C22   H5    S    
C29   H7    S    
C25   N2    A    
C28   O8    A    
C37   H11   S    
C27   H19   S    
C6    C31   A    
C38   H1    S    
C11   C13   A    
C16   O5    A    
C39   C40   A    
C24   C25   A    
C8    C14   A    
C13   C19   A    
C3    C7    A    
C2    C5    A    
C8    C9    A    
C10   H16   S    
N1    Zn2   S    
C22   C24   A    
C11   H17   S    
C30   C35   A    
C21   H3    S    
C1    C15   S    
C34   C36   A    
C1    O2    A    
C1    O1    A    
C35   H10   S    
C27   N1    A    
C15   C17   A    
C4    O3    A    
C23   C32   A    
C17   C18   A    
C7    H4    S    
C3    C36   A    
C16   O6    A    
C8    H14   S    
C24   H6    S    
C23   C38   A    
