data_mof_unit_45223.cif
_audit_creation_date              2012-12-11T16:27:52-0500
_audit_creation_method            fapswitch 2.2
_symmetry_space_group_name_H-M    P1
_symmetry_Int_Tables_number       1
_space_group_crystal_system       triclinic
_cell_length_a                    30.144266
_cell_length_b                    22.506133
_cell_length_c                    18.062096
_cell_angle_alpha                 90.000497
_cell_angle_beta                  123.097865
_cell_angle_gamma                 90.000334
_cell_volume                      10265.5567568

loop_
_atom_site_label
_atom_site_type_symbol
_atom_type_description
_atom_site_fract_x
_atom_site_fract_y
_atom_site_fract_z
_atom_type_partial_charge
Br1   Br    Br    0.407251 0.654256 0.927429 -0.415348
Br2   Br    Br    0.117927 0.601585 0.992362 -0.386514
Br3   Br    Br    0.202638 0.201997 0.232139 -0.481969
Br4   Br    Br    0.808574 0.761954 0.800105 -0.465903
Br5   Br    Br    0.297355 0.701991 0.767861 -0.481950
Br6   Br    Br    0.691480 0.262049 0.199951 -0.465942
Br7   Br    Br    0.620915 0.884951 0.004497 -0.387995
Br8   Br    Br    0.382075 0.101563 0.007666 -0.386509
Br9   Br    Br    0.597574 0.351667 0.078980 -0.422459
Br10  Br    Br    0.560459 0.762514 0.971919 -0.379178
Br11  Br    Br    0.454528 0.216444 0.068199 -0.372926
Br12  Br    Br    0.939403 0.262304 0.027727 -0.379279
Br13  Br    Br    0.045502 0.716487 0.931881 -0.372850
Br14  Br    Br    0.092738 0.154276 0.072556 -0.415306
Br15  Br    Br    0.902540 0.851477 0.921175 -0.422354
Br16  Br    Br    0.879025 0.384792 0.995201 -0.388027
C1    C     C_R   0.540101 0.592838 0.731590 -0.115797
C2    C     C_R   0.680938 0.346779 0.425188 -0.127635
C3    C     C_R   0.733709 0.773313 0.844654 -0.307310
C4    C     C_R   0.227402 0.705902 0.823683 -0.274812
C5    C     C_R   0.766328 0.273352 0.155351 -0.307266
C6    C     C_R   0.705952 0.858395 0.988457 -0.284112
C7    C     C_R   0.296817 0.131538 0.021194 -0.277934
C8    C     C_R   0.842289 0.335234 0.031619 0.380437
C9    C     C_R   0.152353 0.650536 0.950901 0.380762
C10   C     C_R   0.221858 0.185811 0.148541 0.390133
C11   C     C_R   0.783207 0.795158 0.868359 0.414984
C12   C     C_R   0.278137 0.685810 0.851464 0.390136
C13   C     C_R   0.639776 0.712390 0.421158 -0.137604
C14   C     C_R   0.716839 0.295218 0.131667 0.414986
C15   C     C_R   0.657672 0.835340 0.968179 0.380426
C16   C     C_R   0.347652 0.150516 0.049130 0.380765
C17   C     C_R   0.577723 0.607075 0.424065 -0.187805
C18   C     C_R   0.406505 0.416259 0.576179 -0.192194
C19   C     C_R   0.419707 0.606009 0.574373 -0.185349
C20   C     C_R   0.594450 0.416905 0.424945 -0.209348
C21   C     C_R   0.080290 0.106012 0.425628 -0.185350
C22   C     C_R   0.905550 0.916905 0.575056 -0.209350
C23   C     C_R   0.922279 0.107075 0.575937 -0.187817
C24   C     C_R   0.320756 0.347981 0.579198 -0.145946
C25   C     C_R   0.093495 0.916258 0.423821 -0.192195
C26   C     C_R   0.382058 0.580672 0.256495 -0.045102
C27   C     C_R   0.617394 0.416850 0.741311 -0.089086
C28   C     C_R   0.614500 0.592759 0.733621 -0.101135
C29   C     C_R   0.392105 0.393362 0.287614 -0.113584
C30   C     C_R   0.885497 0.092748 0.266367 -0.101113
C31   C     C_R   0.107897 0.893365 0.712392 -0.113585
C32   C     C_R   0.117942 0.080673 0.743506 -0.045099
C33   C     C_R   0.882605 0.916850 0.258684 -0.089080
C34   C     C_R   0.589789 0.618391 0.771969 0.049314
C35   C     C_R   0.860221 0.212381 0.578850 -0.137582
C36   C     C_R   0.420388 0.362555 0.259104 0.056877
C37   C     C_R   0.402613 0.596108 0.206469 0.037916
C38   C     C_R   0.596373 0.401101 0.790729 0.050869
C39   C     C_R   0.097387 0.096108 0.793533 0.037918
C40   C     C_R   0.903627 0.901107 0.209262 0.050869
C41   C     C_R   0.910207 0.118370 0.228012 0.049293
C42   C     C_R   0.079614 0.862560 0.740905 0.056880
C43   C     C_R   0.617036 0.638264 0.496199 -0.089241
C44   C     C_R   0.356533 0.402432 0.504969 -0.080477
C45   C     C_R   0.380883 0.637284 0.501496 -0.091309
C46   C     C_R   0.179242 0.847978 0.420802 -0.145940
C47   C     C_R   0.643784 0.401565 0.496819 -0.084077
C48   C     C_R   0.119114 0.137287 0.498505 -0.091311
C49   C     C_R   0.856216 0.901565 0.503182 -0.084070
C50   C     C_R   0.882967 0.138266 0.503806 -0.089240
C51   C     C_R   0.143466 0.902432 0.495030 -0.080477
C52   C     C_R   0.324625 0.791827 0.433533 0.543400
C53   C     C_R   0.783357 0.388405 0.550792 0.538981
C54   C     C_R   0.672583 0.793391 0.560244 0.563738
C55   C     C_R   0.217951 0.389354 0.455639 0.538226
C56   C     C_R   0.827429 0.293396 0.439787 0.563806
C57   C     C_R   0.142403 0.212535 0.425286 -0.119049
C58   C     C_R   0.282048 0.889351 0.544365 0.538232
C59   C     C_R   0.175375 0.291831 0.566473 0.543393
C60   C     C_R   0.716644 0.888406 0.449217 0.538940
C61   C     C_R   0.348839 0.737838 0.436788 -0.376455
C62   C     C_R   0.739392 0.410376 0.549655 -0.364642
C63   C     C_R   0.649039 0.739298 0.559023 -0.375196
C64   C     C_R   0.261420 0.411716 0.455626 -0.359952
C65   C     C_R   0.850972 0.239304 0.441000 -0.375217
C66   C     C_R   0.238580 0.911714 0.544376 -0.359958
C67   C     C_R   0.151160 0.237842 0.563218 -0.376459
C68   C     C_R   0.819064 0.846792 0.574829 -0.127694
C69   C     C_R   0.760607 0.910374 0.450347 -0.364658
C70   C     C_R   0.361880 0.696564 0.504055 0.098420
C71   C     C_R   0.688857 0.386369 0.490859 0.095766
C72   C     C_R   0.635834 0.697363 0.492466 0.116165
C73   C     C_R   0.312072 0.387527 0.512901 0.115619
C74   C     C_R   0.864171 0.197363 0.507545 0.116153
C75   C     C_R   0.187927 0.887526 0.487099 0.115615
C76   C     C_R   0.138117 0.196568 0.495947 0.098430
C77   C     C_R   0.811144 0.886372 0.509146 0.095795
C78   C     C_R   0.334903 0.766451 0.573140 -0.170630
C79   C     C_R   0.723894 0.325975 0.424532 -0.163863
C80   C     C_R   0.662559 0.765941 0.421526 -0.197225
C81   C     C_R   0.466635 0.394794 0.288305 -0.105386
C82   C     C_R   0.278364 0.327173 0.581589 -0.193004
C83   C     C_R   0.837439 0.265931 0.578487 -0.197237
C84   C     C_R   0.221634 0.827169 0.418413 -0.193003
C85   C     C_R   0.165092 0.266456 0.426862 -0.170656
C86   C     C_R   0.776110 0.825993 0.575494 -0.163920
C87   C     C_R   0.315629 0.804486 0.500355 0.071030
C88   C     C_R   0.775252 0.344254 0.489721 0.066395
C89   C     C_R   0.681871 0.804740 0.493419 0.085639
C90   C     C_R   0.226743 0.344923 0.516768 0.089257
C91   C     C_R   0.818134 0.304736 0.506604 0.085616
C92   C     C_R   0.455879 0.580862 0.257322 -0.121989
C93   C     C_R   0.273256 0.844919 0.483236 0.089248
C94   C     C_R   0.184369 0.304491 0.499649 0.071034
C95   C     C_R   0.724751 0.844262 0.510298 0.066413
C96   C     C_R   0.371235 0.614265 0.112129 0.077473
C97   C     C_R   0.627417 0.381664 0.883956 0.076996
C98   C     C_R   0.608425 0.671280 0.829252 0.077190
C99   C     C_R   0.404976 0.305488 0.210256 0.074520
C100  C     C_R   0.891564 0.171240 0.170701 0.077167
C101  C     C_R   0.095028 0.805499 0.789763 0.074510
C102  C     C_R   0.128765 0.114263 0.887874 0.077466
C103  C     C_R   0.543260 0.417069 0.740772 -0.105471
C104  C     C_R   0.872590 0.881671 0.116031 0.076983
C105  C     C_R   0.365232 0.644018 0.977018 0.395850
C106  C     C_R   0.634217 0.350877 0.019055 0.399840
C107  C     C_R   0.597063 0.746571 0.914046 0.386934
C108  C     C_R   0.415294 0.232134 0.121624 0.385334
C109  C     C_R   0.902874 0.246449 0.085751 0.386960
C110  C     C_R   0.084719 0.732159 0.878420 0.385340
C111  C     C_R   0.134762 0.144025 0.022979 0.395848
C112  C     C_R   0.865838 0.850794 0.981001 0.399798
C113  C     C_R   0.394466 0.622374 0.063863 -0.232471
C114  C     C_R   0.044121 0.080861 0.742679 -0.121986
C115  C     C_R   0.604894 0.374750 0.933589 -0.238131
C116  C     C_R   0.581915 0.693103 0.867100 -0.236316
C117  C     C_R   0.432072 0.283469 0.173476 -0.237540
C118  C     C_R   0.918032 0.193003 0.132747 -0.236321
C119  C     C_R   0.067939 0.783489 0.826560 -0.237534
C120  C     C_R   0.105530 0.122381 0.936134 -0.232463
C121  C     C_R   0.895145 0.874687 0.066456 -0.238134
C122  C     C_R   0.317316 0.625301 0.070821 -0.208656
C123  C     C_R   0.680901 0.369543 0.923525 -0.208326
C124  C     C_R   0.650315 0.703493 0.838028 -0.208421
C125  C     C_R   0.956740 0.917072 0.259226 -0.105474
C126  C     C_R   0.361839 0.273752 0.198370 -0.197535
C127  C     C_R   0.849708 0.203490 0.161986 -0.208383
C128  C     C_R   0.138161 0.773758 0.801642 -0.197528
C129  C     C_R   0.182685 0.125292 0.929189 -0.208650
C130  C     C_R   0.819091 0.869606 0.076404 -0.208280
C131  C     C_R   0.285985 0.644811 0.983041 0.045272
C132  C     C_R   0.711805 0.346827 0.008997 0.044099
C133  C     C_R   0.665873 0.758189 0.881551 0.046221
C134  C     C_R   0.343136 0.222134 0.146303 0.049883
C135  C     C_R   0.834131 0.258158 0.118388 0.046236
C136  C     C_R   0.959897 0.092825 0.268399 -0.115797
C137  C     C_R   0.156867 0.722145 0.853717 0.049888
C138  C     C_R   0.214014 0.144804 0.016970 0.045274
C139  C     C_R   0.788207 0.846848 0.990951 0.044108
C140  C     C_R   0.310250 0.657993 0.935626 -0.089617
C141  C     C_R   0.687373 0.331419 0.055229 -0.090284
C142  C     C_R   0.639285 0.780779 0.921481 -0.101302
C143  C     C_R   0.369649 0.200749 0.105614 -0.102623
C144  C     C_R   0.860682 0.280691 0.078362 -0.101305
C145  C     C_R   0.130359 0.700767 0.894418 -0.102635
C146  C     C_R   0.189747 0.157994 0.064378 -0.089624
C147  C     C_R   0.033365 0.894798 0.711700 -0.105390
C148  C     C_R   0.812667 0.831377 0.944782 -0.090308
C149  C     C_R   0.231597 0.656943 0.945725 0.052470
C150  C     C_R   0.765037 0.331748 0.042646 0.055360
C151  C     C_R   0.710660 0.787960 0.892483 0.066053
C152  C     C_R   0.295191 0.195166 0.126901 0.058401
C153  C     C_R   0.789357 0.287952 0.107473 0.066089
C154  C     C_R   0.204809 0.695174 0.873115 0.058403
C155  C     C_R   0.268405 0.156932 0.054293 0.052471
C156  C     C_R   0.734965 0.831787 0.957266 0.055385
C157  C     C_R   0.630511 0.605126 0.571052 0.527452
C158  C     C_R   0.357592 0.712530 0.574715 -0.119044
C159  C     C_R   0.355693 0.418246 0.429570 0.504797
C160  C     C_R   0.369307 0.604781 0.427395 0.539907
C161  C     C_R   0.643789 0.416547 0.571541 0.534694
C162  C     C_R   0.130691 0.104783 0.572605 0.539906
C163  C     C_R   0.856211 0.916547 0.428460 0.534690
C164  C     C_R   0.869493 0.105128 0.428950 0.527462
C165  C     C_R   0.144306 0.918246 0.570429 0.504804
C166  C     C_R   0.794025 0.358313 0.011377 -0.284121
C167  C     C_R   0.203187 0.631554 0.978831 -0.277932
C168  C     C_R   0.272596 0.205900 0.176327 -0.274813
H1    H     H_    0.512991 0.596700 0.752666 0.106366
H2    H     H_    0.300237 0.623072 0.109746 0.133618
H3    H     H_    0.340754 0.291963 0.225515 0.122926
H4    H     H_    0.671669 0.684406 0.812045 0.138095
H5    H     H_    0.159241 0.791963 0.774483 0.122924
H6    H     H_    0.828399 0.184451 0.188080 0.138080
H7    H     H_    0.802146 0.872554 0.115431 0.131608
H8    H     H_    0.199768 0.123055 0.890271 0.133614
H9    H     H_    0.564110 0.387244 0.905936 0.159390
H10   H     H_    0.436210 0.613535 0.094393 0.160494
H11   H     H_    0.465494 0.307623 0.181697 0.164857
H12   H     H_    0.497742 0.384288 0.277936 0.109512
H13   H     H_    0.549646 0.667987 0.861651 0.166724
H14   H     H_    0.034521 0.807648 0.818348 0.164865
H15   H     H_    0.950272 0.167854 0.138149 0.166736
H16   H     H_    0.935943 0.887133 0.094150 0.159390
H17   H     H_    0.063785 0.113548 0.905598 0.160501
H18   H     H_    0.779910 0.398723 0.972657 0.177894
H19   H     H_    0.219461 0.594478 0.024270 0.176900
H20   H     H_    0.294994 0.227980 0.239625 0.168465
H21   H     H_    0.713538 0.745008 0.787169 0.157920
H22   H     H_    0.205004 0.727981 0.760384 0.168464
H23   H     H_    0.482189 0.577442 0.234340 0.106713
H24   H     H_    0.786504 0.245064 0.212853 0.157882
H25   H     H_    0.720059 0.898822 0.027138 0.177885
H26   H     H_    0.280542 0.094462 0.975754 0.176900
H27   H     H_    0.558138 0.619574 0.355462 0.139350
H28   H     H_    0.418416 0.418431 0.644503 0.139523
H29   H     H_    0.436139 0.617761 0.642188 0.138365
H30   H     H_    0.583962 0.420495 0.357500 0.148342
H31   H     H_    0.063855 0.117765 0.357813 0.138372
H32   H     H_    0.916039 0.920496 0.642501 0.148319
H33   H     H_    0.941863 0.119572 0.644541 0.139359
H34   H     H_    0.516401 0.418826 0.762797 0.103074
H35   H     H_    0.081584 0.918430 0.355497 0.139523
H36   H     H_    0.340791 0.574080 0.231599 0.165995
H37   H     H_    0.658604 0.420784 0.764409 0.164333
H38   H     H_    0.656134 0.594118 0.759266 0.181429
H39   H     H_    0.353791 0.382492 0.274718 0.161624
H40   H     H_    0.843863 0.094107 0.240718 0.181440
H41   H     H_    0.146212 0.882497 0.725292 0.161630
H42   H     H_    0.159209 0.074081 0.768402 0.165993
H43   H     H_    0.841396 0.920771 0.235595 0.164330
H44   H     H_    0.355482 0.727088 0.385133 0.157838
H45   H     H_    0.017811 0.077440 0.765660 0.106711
H46   H     H_    0.744932 0.444321 0.596452 0.177850
H47   H     H_    0.642981 0.728991 0.611487 0.143004
H48   H     H_    0.255311 0.446081 0.409041 0.176217
H49   H     H_    0.857036 0.229003 0.388541 0.142997
H50   H     H_    0.244690 0.946080 0.590961 0.176219
H51   H     H_    0.144519 0.227091 0.614873 0.157839
H52   H     H_    0.755065 0.944313 0.403543 0.177844
H53   H     H_    0.368599 0.681887 0.628330 0.164542
H54   H     H_    0.641975 0.328903 0.378022 0.159094
H55   H     H_    0.628576 0.681142 0.368127 0.143136
H56   H     H_    0.983601 0.918834 0.237205 0.103065
H57   H     H_    0.359863 0.330151 0.625583 0.146025
H58   H     H_    0.871415 0.181128 0.631872 0.143150
H59   H     H_    0.140135 0.830149 0.374416 0.146028
H60   H     H_    0.131395 0.181892 0.371670 0.164540
H61   H     H_    0.858028 0.828921 0.621999 0.159101
H62   H     H_    0.829869 0.274235 0.629747 0.167617
H63   H     H_    0.214685 0.792448 0.371634 0.163081
H64   H     H_    0.172616 0.275660 0.375754 0.191803
H65   H     H_    0.782434 0.790929 0.621269 0.198166
H66   H     H_    0.327378 0.775654 0.624246 0.191803
H67   H     H_    0.987008 0.096685 0.247324 0.106372
H68   H     H_    0.717573 0.290903 0.378770 0.198151
H69   H     H_    0.670123 0.774251 0.370261 0.167596
H70   H     H_    0.285314 0.292453 0.628368 0.163078
H71   H     H_    0.698497 0.641268 0.651503 0.333413
H72   H     H_    0.286103 0.392634 0.338235 0.320795
H73   H     H_    0.302082 0.640557 0.342552 0.324461
H74   H     H_    0.712010 0.387128 0.662867 0.319668
H75   H     H_    0.197917 0.140562 0.657448 0.324459
H76   H     H_    0.787990 0.887125 0.337134 0.319655
H77   H     H_    0.801513 0.141281 0.348494 0.333408
H78   H     H_    0.002259 0.884292 0.722071 0.109509
H79   H     H_    0.213895 0.892633 0.661764 0.320796
H80   H     H_    0.315290 0.814779 0.322081 0.327243
H81   H     H_    0.832926 0.437088 0.651586 0.340895
H82   H     H_    0.678159 0.820333 0.667130 0.323367
H83   H     H_    0.167634 0.438060 0.355504 0.339010
H84   H     H_    0.821867 0.320351 0.332917 0.323363
H85   H     H_    0.332366 0.938057 0.644501 0.339016
H86   H     H_    0.184713 0.314782 0.677928 0.327242
H87   H     H_    0.667072 0.937077 0.348412 0.340885
H88   H     H_    0.697816 0.372416 0.884445 0.131641
N1    N     N_R   0.532910 0.558440 0.665240 -0.048444
N2    N     N_R   0.402970 0.441090 0.454460 -0.075455
N3    N     N_R   0.402970 0.558910 0.454460 -0.074447
N4    N     N_R   0.597030 0.441090 0.545540 -0.074911
N5    N     N_R   0.097030 0.058910 0.545540 -0.074447
N6    N     N_R   0.902970 0.941090 0.454460 -0.074911
N7    N     N_R   0.902970 0.058910 0.454460 -0.073626
N8    N     N_R   0.097030 0.941090 0.545540 -0.075454
N9    N     N_R   0.566200 0.559270 0.454460 -0.071774
N10   N     N_R   0.433800 0.440730 0.545540 -0.070670
N11   N     N_R   0.433800 0.559270 0.545540 -0.072830
N12   N     N_R   0.467090 0.441560 0.334760 -0.047999
N13   N     N_R   0.566200 0.440730 0.454460 -0.071788
N14   N     N_R   0.066200 0.059270 0.454460 -0.072830
N15   N     N_R   0.933800 0.940730 0.545540 -0.071785
N16   N     N_R   0.933800 0.059270 0.545540 -0.071775
N17   N     N_R   0.066200 0.940730 0.454460 -0.070670
N18   N     N_R   0.421050 0.559750 0.334770 -0.049514
N19   N     N_R   0.578950 0.440250 0.665230 -0.045685
N20   N     N_R   0.578950 0.559750 0.665230 -0.047560
N21   N     N_R   0.421050 0.440250 0.334770 -0.042529
N22   N     N_R   0.921050 0.059750 0.334770 -0.047558
N23   N     N_R   0.467090 0.558440 0.334760 -0.051130
N24   N     N_R   0.078950 0.940250 0.665230 -0.042529
N25   N     N_R   0.078950 0.059750 0.665230 -0.049515
N26   N     N_R   0.921050 0.940250 0.334770 -0.045685
N27   N     N_R   0.532910 0.441560 0.665240 -0.048725
N28   N     N_R   0.032910 0.058440 0.665240 -0.051130
N29   N     N_R   0.967090 0.941560 0.334760 -0.048723
N30   N     N_R   0.967090 0.058440 0.334760 -0.048446
N31   N     N_R   0.032910 0.941560 0.665240 -0.047998
N32   N     N_R   0.597030 0.558910 0.545540 -0.073625
Ni1   Ni    Ni4+2 0.483090 0.500000 0.604440 0.207795
Ni2   Ni    Ni4+2 0.516910 0.500000 0.395560 0.208115
Ni3   Ni    Ni4+2 0.983090 0.000000 0.604440 0.208107
Ni4   Ni    Ni4+2 0.016910 0.000000 0.395560 0.207792
Ni5   Ni    Ni4+2 0.586780 0.500000 0.604440 0.283875
Ni6   Ni    Ni4+2 0.413220 0.500000 0.395560 0.288190
Ni7   Ni    Ni4+2 0.086780 0.000000 0.604440 0.288189
Ni8   Ni    Ni4+2 0.913220 0.000000 0.395560 0.283871
O1    O     O_3   0.675871 0.610451 0.653872 -0.779458
O2    O     O_3   0.834299 0.406645 0.613187 -0.716633
O3    O     O_3   0.689700 0.833895 0.628013 -0.720194
O4    O     O_3   0.166783 0.407417 0.394167 -0.716476
O5    O     O_3   0.810321 0.333908 0.372030 -0.720136
O6    O     O_3   0.333217 0.907413 0.605839 -0.716454
O7    O     O_3   0.193505 0.330836 0.636308 -0.730668
O8    O     O_3   0.665701 0.906640 0.386819 -0.716663
O9    O     O_3   0.311976 0.422730 0.344797 -0.769250
O10   O     O_3   0.326813 0.611912 0.341993 -0.779731
O11   O     O_3   0.686136 0.416612 0.657865 -0.775679
O12   O     O_3   0.173186 0.111916 0.658008 -0.779730
O13   O     O_3   0.813863 0.916611 0.342136 -0.775685
O14   O     O_3   0.824137 0.110460 0.346126 -0.779468
O15   O     O_3   0.188024 0.922729 0.655203 -0.769252
O16   O     O_3   0.306496 0.830832 0.363700 -0.730666

loop_
_geom_bond_atom_site_label_1
_geom_bond_atom_site_label_2
_ccdc_geom_bond_type
N24   N31   A    
C4    C154  A    
C26   N18   A    
C104  C130  A    
C168  H20   S    
C14   C141  A    
H75   O12   S    
N2    N10   A    
N7    Ni8   S    
C25   C51   A    
C125  N29   A    
C108  C117  A    
C26   H36   S    
C92   H23   S    
C24   C82   A    
C128  H5    S    
C41   C136  A    
N30   Ni4   S    
C30   H40   S    
H81   O2    S    
H76   O13   S    
C13   C72   A    
N26   Ni8   S    
C159  O9    S    
C96   C113  A    
C57   C85   A    
C84   C93   A    
C17   C43   A    
C18   C44   A    
C86   C95   A    
C3    C151  A    
C54   O3    S    
C41   C100  S    
N4    N13   A    
H80   O16   S    
N6    N15   A    
C121  H16   S    
C149  C167  A    
C96   C122  A    
C111  C120  A    
N10   Ni1   S    
C105  C113  A    
C4    C12   A    
C114  H45   S    
C85   C94   A    
C66   C75   A    
C114  N28   A    
C70   C158  A    
C32   H42   S    
C27   C38   A    
C134  C152  A    
C83   H62   S    
C63   H47   S    
C18   H28   S    
C40   C125  A    
Br6   C14   S    
C67   H51   S    
C18   N10   A    
C65   H49   S    
C35   H58   S    
C101  C119  A    
C102  C120  A    
C36   C99   S    
C28   C34   A    
C52   C61   A    
C122  H2    S    
C54   C63   A    
Br3   C10   S    
C65   C74   A    
C54   C89   A    
C79   H68   S    
C1    N1    A    
N8    N17   A    
C82   C90   A    
H82   O3    S    
C84   H63   S    
H79   O15   S    
C37   C92   A    
C68   C77   A    
N23   Ni2   S    
C7    C155  A    
C61   H44   S    
C55   C90   A    
C85   H64   S    
C60   C69   A    
C88   C91   S    
C161  N4    A    
C62   C71   A    
C105  C140  A    
C107  C116  A    
C68   C86   A    
Br11  C108  S    
C150  C166  A    
C52   C87   A    
C136  N30   A    
C109  C144  A    
C46   H59   S    
N8    Ni7   S    
C126  H3    S    
C35   C74   A    
C100  C127  A    
C112  C148  A    
C131  C149  A    
C20   H30   S    
C69   C77   A    
C152  C155  A    
C9    C145  A    
C27   N19   A    
C137  C154  A    
C97   C123  A    
C98   C124  A    
C24   C73   A    
N3    N11   A    
C133  C142  A    
N24   Ni7   S    
C49   C77   S    
C38   C103  A    
C2    C79   A    
C115  H9    S    
C64   H48   S    
C78   H66   S    
C120  H17   S    
C92   N23   A    
C118  H15   S    
C123  C132  A    
C101  C128  A    
H74   O11   S    
C158  H53   S    
N5    Ni7   S    
N27   Ni1   S    
N6    Ni8   S    
C29   C36   A    
C42   C101  S    
H77   O14   S    
C22   C49   A    
C39   C114  A    
C46   C75   A    
H73   O10   S    
C19   C45   A    
C129  C138  A    
N28   Ni3   S    
C111  C146  A    
C129  H8    S    
C130  H7    S    
C28   H38   S    
C160  N3    A    
C106  C115  A    
Br4   C11   S    
C37   C96   S    
C59   C94   A    
C49   C163  A    
C23   H33   S    
C102  C129  A    
C24   H57   S    
C57   C76   A    
C103  N27   A    
C13   C80   A    
C7    H26   S    
C123  H88   S    
C135  C153  A    
C57   H60   S    
C60   C95   A    
C5    C153  A    
C127  C135  A    
C19   N11   A    
C138  C155  A    
C132  C141  A    
Br1   C105  S    
C108  C143  A    
N2    Ni6   S    
C157  N32   A    
C30   N22   A    
C58   O6    S    
C124  C133  A    
C2    H54   S    
C109  C118  A    
C32   C39   A    
C80   C89   A    
N19   Ni5   S    
C86   H65   S    
C132  C150  A    
C133  C151  A    
C52   O16   S    
C113  H10   S    
C50   C74   S    
C5    H24   S    
C27   H37   S    
C100  C118  A    
C64   C73   A    
N20   Ni5   S    
C51   C165  A    
C160  O10   S    
C139  C156  A    
C130  C139  A    
C163  N6    A    
C1    H1    S    
C103  H34   S    
C33   H43   S    
C110  C145  A    
C97   C115  A    
C56   C65   A    
C55   O4    S    
N13   Ni2   S    
C16   C143  A    
C89   C95   S    
C99   C126  A    
C45   C160  A    
C29   N21   A    
C20   N13   A    
C58   C66   A    
C42   C147  A    
C63   C72   A    
C25   H35   S    
C138  C146  A    
N32   Ni5   S    
C124  H4    S    
Br10  C107  S    
C134  C143  A    
Br12  C109  S    
C99   C117  A    
C50   C164  A    
C10   C146  A    
Br14  C111  S    
N26   N29   A    
C29   H39   S    
C48   C162  A    
C31   H41   S    
C117  H11   S    
C51   C75   S    
Br9   C106  S    
C131  C140  A    
C19   H29   S    
N9    N32   A    
C46   C84   A    
Br13  C110  S    
C110  C119  A    
N18   Ni6   S    
C125  H56   S    
Br15  C112  S    
C66   H50   S    
C23   C50   A    
C81   N12   A    
C48   C76   S    
H83   O4    S    
C21   C48   A    
C149  C154  A    
N14   Ni4   S    
C166  H18   S    
N15   Ni3   S    
C21   N14   A    
C165  N8    A    
C151  C156  A    
C23   N16   A    
C62   H46   S    
C83   C91   A    
C5    C14   A    
C87   C93   S    
C7    C16   A    
C126  C134  A    
C26   C37   A    
N7    N16   A    
C162  N5    A    
C59   C67   A    
C147  H78   S    
C116  H13   S    
C106  C141  A    
Br2   C9    S    
C33   N26   A    
N22   N30   A    
C15   C142  A    
C45   C70   S    
C56   O5    S    
N22   Ni8   S    
C137  C145  A    
C44   C159  A    
C104  C121  A    
C34   C98   S    
C21   H31   S    
C39   C102  S    
C6    H25   S    
C69   H52   S    
C4    H22   S    
C119  H14   S    
C44   C73   S    
N17   Ni4   S    
C67   C76   A    
C81   H12   S    
C80   H69   S    
C164  O14   S    
C38   C97   S    
C36   C81   A    
C128  C137  A    
N9    Ni2   S    
N25   Ni7   S    
C43   C72   S    
C162  O12   S    
H85   O6    S    
C58   C93   A    
C152  C168  A    
H87   O8    S    
N1    N20   A    
C20   C47   A    
N19   N27   A    
C147  N31   A    
Br16  C8    S    
C40   C104  S    
C157  O1    S    
C53   C62   A    
N12   Ni2   S    
C164  N7    A    
C55   C64   A    
H71   O1    S    
C22   N15   A    
C35   C83   A    
C17   N9    A    
Br7   C15   S    
C6    C15   A    
C8    C166  A    
N18   N23   A    
Br8   C16   S    
C163  O13   S    
N1    Ni1   S    
N31   Ni3   S    
N29   Ni4   S    
C68   H61   S    
C112  C121  A    
N16   Ni3   S    
C11   C148  A    
Br5   C12   S    
C56   C91   A    
C122  C131  A    
C31   N24   A    
C9    C167  A    
C78   C158  A    
N3    Ni6   S    
C61   C70   A    
C30   C41   A    
N25   N28   A    
N21   Ni6   S    
C82   H70   S    
C3    C11   A    
C79   C88   A    
C12   C140  A    
C90   C94   S    
C53   C88   A    
C28   N20   A    
C47   C71   S    
C98   C116  A    
C53   O2    S    
C22   H32   S    
N4    Ni5   S    
C43   C157  A    
C1    C34   A    
C78   C87   A    
C59   O7    S    
C8    C144  A    
C60   O8    S    
C107  C142  A    
C25   N17   A    
C139  C148  A    
C33   C40   A    
N5    N14   A    
C2    C71   A    
C47   C161  A    
C167  H19   S    
C135  C144  A    
C159  N2    A    
C31   C42   A    
H84   O5    S    
C17   H27   S    
N12   N21   A    
H86   O7    S    
C127  H6    S    
C165  O15   S    
N11   Ni1   S    
H72   O9    S    
C150  C153  A    
C3    H21   S    
C161  O11   S    
C13   H55   S    
C136  H67   S    
C6    C156  A    
C32   N25   A    
C10   C168  A    
