data_mof_unit_7215.cif
_audit_creation_date              2012-12-11T16:44:19-0500
_audit_creation_method            fapswitch 2.2
_symmetry_space_group_name_H-M    P1
_symmetry_Int_Tables_number       1
_space_group_crystal_system       triclinic
_cell_length_a                    27.191371
_cell_length_b                    7.19092
_cell_length_c                    22.808944
_cell_angle_alpha                 90.000015
_cell_angle_beta                  101.623196
_cell_angle_gamma                 89.999036
_cell_volume                      4368.40018396

loop_
_atom_site_label
_atom_site_type_symbol
_atom_type_description
_atom_site_fract_x
_atom_site_fract_y
_atom_site_fract_z
_atom_type_partial_charge
O1    O     O_R   0.707300 0.594030 0.176840 -0.533419
O2    O     O_R   0.292700 0.405970 0.823160 -0.533667
O3    O     O_R   0.792700 0.094030 0.323160 -0.533421
O4    O     O_R   0.207300 0.905970 0.676840 -0.533666
O5    O     O_R   0.697330 0.262360 0.295660 -0.539881
O6    O     O_R   0.302670 0.737640 0.704340 -0.539889
O7    O     O_R   0.802670 0.762360 0.204340 -0.539880
O8    O     O_R   0.197330 0.237640 0.795660 -0.539891
C1    C     C_R   0.684761 0.432509 0.311762 0.674789
C2    C     C_R   0.315212 0.567497 0.688201 0.675085
C3    C     C_R   0.815239 0.932507 0.188238 0.674805
C4    C     C_R   0.184788 0.067498 0.811799 0.675076
O9    O     O_R   0.701410 0.264250 0.175600 -0.534424
O10   O     O_R   0.298590 0.735750 0.824400 -0.534563
O11   O     O_R   0.798590 0.764250 0.324400 -0.534430
O12   O     O_R   0.201410 0.235750 0.675600 -0.534571
O13   O     O_R   0.796800 0.094950 0.202240 -0.539397
O14   O     O_R   0.203200 0.905050 0.797760 -0.539175
O15   O     O_R   0.703200 0.594950 0.297760 -0.539400
O16   O     O_R   0.296800 0.405050 0.702240 -0.539174
C5    C     C_R   0.690057 0.431601 0.152942 0.686902
C6    C     C_R   0.309981 0.568386 0.847020 0.686189
C7    C     C_R   0.809943 0.931597 0.347060 0.686898
C8    C     C_R   0.190018 0.068389 0.652981 0.686167
O17   O     O_3   0.781290 0.427390 0.258880 -0.372277
O18   O     O_3   0.218710 0.572610 0.741120 -0.372258
O19   O     O_3   0.718710 0.927390 0.241120 -0.372275
O20   O     O_3   0.281290 0.072610 0.758880 -0.372250
V1    V     V_3+5 0.744190 0.152150 0.248350 1.403941
V2    V     V_3+5 0.255810 0.847850 0.751650 1.402672
V3    V     V_3+5 0.755810 0.652150 0.251650 1.403935
V4    V     V_3+5 0.244190 0.347850 0.748350 1.402658
C9    C     C_R   0.154918 0.072697 0.594197 -0.047693
C10   C     C_R   0.844807 0.927199 0.406036 -0.050251
C11   C     C_R   0.345077 0.572681 0.905807 -0.047714
C12   C     C_R   0.655190 0.427229 0.093969 -0.050221
C13   C     C_R   0.130300 0.241151 0.501008 -0.176005
C14   C     C_R   0.869381 0.757371 0.498978 -0.167521
C15   C     C_R   0.369682 0.741069 0.999008 -0.176036
C16   C     C_R   0.630633 0.257583 0.000990 -0.167400
C17   C     C_R   0.166729 0.189637 0.550153 -0.156583
C18   C     C_R   0.833155 0.807671 0.449513 -0.158753
C19   C     C_R   0.333259 0.689592 0.949853 -0.156594
C20   C     C_R   0.666856 0.307832 0.050466 -0.158791
C21   C     C_R   0.106457 0.995960 0.586016 -0.214524
C22   C     C_R   0.893040 0.006121 0.414812 -0.206780
C23   C     C_R   0.393538 0.495940 0.913992 -0.214455
C24   C     C_R   0.606948 0.506073 0.085213 -0.206758
C25   C     C_R   0.068462 0.043296 0.535098 0.070314
C26   C     C_R   0.930876 0.960036 0.466064 0.085897
C27   C     C_R   0.431528 0.543252 0.964917 0.070430
C28   C     C_R   0.569115 0.460026 0.033955 0.085818
C29   C     C_R   0.080476 0.177817 0.494385 0.075605
C30   C     C_R   0.918750 0.826649 0.507063 0.093508
C31   C     C_R   0.419506 0.677737 0.005637 0.075665
C32   C     C_R   0.581254 0.326749 0.992934 0.093396
C33   C     C_R   0.018570 0.967764 0.524738 0.026024
C34   C     C_R   0.980858 0.034794 0.476246 0.039345
C35   C     C_R   0.481423 0.467744 0.975274 0.026076
C36   C     C_R   0.519128 0.534736 0.023781 0.039171
C37   C     C_R   0.993822 0.177837 0.440123 -0.236387
C38   C     C_R   0.005578 0.824743 0.560871 -0.251012
C39   C     C_R   0.506155 0.677723 0.059917 -0.236501
C40   C     C_R   0.494428 0.324794 0.939122 -0.250824
C41   C     C_R   0.042493 0.248280 0.448216 -0.033313
C42   C     C_R   0.956634 0.757837 0.553607 -0.025355
C43   C     C_R   0.457484 0.748174 0.051817 -0.033225
C44   C     C_R   0.543377 0.257959 0.946383 -0.025582
H1    H     H_    0.900933 0.090159 0.378691 0.103460
H2    H     H_    0.098606 0.912221 0.622223 0.104878
H3    H     H_    0.599046 0.590019 0.121350 0.103448
H4    H     H_    0.401392 0.412213 0.877784 0.104887
H5    H     H_    0.796380 0.743564 0.443240 0.113254
H6    H     H_    0.203875 0.250265 0.555615 0.112141
H7    H     H_    0.703640 0.243802 0.056721 0.113231
H8    H     H_    0.296113 0.750219 0.944388 0.112144
H9    H     H_    0.141322 0.335839 0.469111 0.131706
H10   H     H_    0.858666 0.657225 0.529497 0.132075
H11   H     H_    0.358654 0.835728 0.030909 0.131706
H12   H     H_    0.641357 0.157577 0.970432 0.132092
H13   H     H_    0.966078 0.243513 0.405999 0.135961
H14   H     H_    0.033128 0.760016 0.595441 0.135202
H15   H     H_    0.533895 0.743373 0.094051 0.135965
H16   H     H_    0.466886 0.260074 0.904543 0.135251
C45   C     C_R   0.867631 0.117503 0.129757 -0.162260
C46   C     C_R   0.132527 0.882502 0.870441 -0.160386
C47   C     C_R   0.632367 0.617506 0.370242 -0.162265
C48   C     C_R   0.367475 0.382498 0.629561 -0.160384
H17   H     H_    0.850341 0.244773 0.140971 0.124620
H18   H     H_    0.149783 0.755231 0.859166 0.124619
H19   H     H_    0.649656 0.744777 0.359027 0.124619
H20   H     H_    0.350221 0.255227 0.640837 0.124620
C49   C     C_R   0.903432 0.130065 0.093677 -0.150058
C50   C     C_R   0.096815 0.869929 0.906638 -0.147435
C51   C     C_R   0.596566 0.630069 0.406322 -0.150061
C52   C     C_R   0.403187 0.369924 0.593364 -0.147437
H21   H     H_    0.912052 0.265820 0.077838 0.101165
H22   H     H_    0.088222 0.734162 0.922493 0.101303
H23   H     H_    0.587944 0.765825 0.422161 0.101164
H24   H     H_    0.411782 0.234158 0.577510 0.101302
C53   C     C_R   0.926911 0.969716 0.077150 0.094912
C54   C     C_R   0.073376 0.030267 0.923242 0.094289
C55   C     C_R   0.573089 0.469720 0.422851 0.094911
C56   C     C_R   0.426624 0.530264 0.576758 0.094287
C57   C     C_R   0.913583 0.796042 0.097909 -0.147689
C58   C     C_R   0.086681 0.203959 0.902471 -0.144893
C59   C     C_R   0.586419 0.296045 0.402092 -0.147692
C60   C     C_R   0.413317 0.703956 0.597528 -0.144899
H25   H     H_    0.931348 0.669743 0.086752 0.099604
H26   H     H_    0.068955 0.330259 0.913696 0.100494
H27   H     H_    0.568656 0.169746 0.413251 0.099605
H28   H     H_    0.431041 0.830256 0.586302 0.100490
C61   C     C_R   0.877633 0.783284 0.134054 -0.160888
C62   C     C_R   0.122546 0.216728 0.866209 -0.159681
C63   C     C_R   0.622369 0.283288 0.365947 -0.160887
C64   C     C_R   0.377452 0.716725 0.633791 -0.159667
H29   H     H_    0.868414 0.647256 0.149126 0.121583
H30   H     H_    0.131747 0.352767 0.851128 0.122031
H31   H     H_    0.631590 0.147259 0.350876 0.121585
H32   H     H_    0.368249 0.852764 0.648870 0.122032
C65   C     C_R   0.854048 0.943977 0.150441 -0.049801
C66   C     C_R   0.146064 0.056031 0.849713 -0.050797
C67   C     C_R   0.645952 0.443980 0.349559 -0.049800
C68   C     C_R   0.353936 0.556028 0.650287 -0.050791
C69   C     C_R   0.966534 0.850795 0.993433 -0.153658
C70   C     C_R   0.033792 0.149126 0.007009 -0.152485
C71   C     C_R   0.533469 0.350799 0.506568 -0.153666
C72   C     C_R   0.466206 0.649122 0.492990 -0.152490
H33   H     H_    0.940298 0.735809 0.986541 0.108998
H34   H     H_    0.060024 0.264123 0.013896 0.109057
H35   H     H_    0.559707 0.235816 0.513462 0.108991
H36   H     H_    0.439972 0.764117 0.486103 0.109059
C73   C     C_R   0.001444 0.866290 0.956144 -0.154816
C74   C     C_R   0.998880 0.133633 0.044299 -0.155001
C75   C     C_R   0.498559 0.366291 0.543858 -0.154826
C76   C     C_R   0.501119 0.633632 0.455701 -0.155004
H37   H     H_    0.001131 0.762429 0.921706 0.107891
H38   H     H_    0.999184 0.237506 0.078732 0.105916
H39   H     H_    0.498873 0.262432 0.578296 0.107879
H40   H     H_    0.500813 0.737503 0.421267 0.105917
C77   C     C_R   0.035605 0.015612 0.962417 0.082412
C78   C     C_R   0.964716 0.984317 0.038019 0.082317
C79   C     C_R   0.464395 0.515610 0.537583 0.082415
C80   C     C_R   0.535284 0.484320 0.461981 0.082320
C81   C     C_R   0.051114 0.405860 0.409538 0.095445
C82   C     C_R   0.043425 0.382753 0.347200 -0.137576
C83   C     C_R   0.049366 0.533396 0.310476 -0.115014
C84   C     C_R   0.062776 0.707926 0.335674 -0.098184
C85   C     C_R   0.070214 0.732150 0.397619 -0.109478
C86   C     C_R   0.064153 0.582158 0.434519 -0.129026
H41   H     H_    0.032787 0.248325 0.327162 0.107293
H42   H     H_    0.043443 0.514943 0.262466 0.109237
H43   H     H_    0.067308 0.824487 0.307206 0.104985
H44   H     H_    0.080565 0.867274 0.416946 0.126303
H45   H     H_    0.069359 0.603288 0.482401 0.122275
C87   C     C_R   0.947219 0.606730 0.594010 0.092636
C88   C     C_R   0.965207 0.426613 0.587134 -0.120880
C89   C     C_R   0.956686 0.283865 0.625499 -0.117189
C90   C     C_R   0.930489 0.320361 0.671045 -0.097395
C91   C     C_R   0.912880 0.499854 0.678411 -0.115552
C92   C     C_R   0.921294 0.643058 0.640116 -0.146446
H46   H     H_    0.985676 0.397145 0.552088 0.125605
H47   H     H_    0.970446 0.145124 0.620068 0.125463
H48   H     H_    0.923949 0.209671 0.700712 0.104349
H49   H     H_    0.892757 0.528033 0.713833 0.108575
H50   H     H_    0.907638 0.781801 0.646234 0.107473
C93   C     C_R   0.448859 0.905758 0.090492 0.095420
C94   C     C_R   0.456548 0.882670 0.152828 -0.137585
C95   C     C_R   0.450604 0.033320 0.189548 -0.115016
C96   C     C_R   0.437189 0.207838 0.164347 -0.098179
C97   C     C_R   0.429750 0.232043 0.102404 -0.109486
C98   C     C_R   0.435816 0.082046 0.065509 -0.129029
H51   H     H_    0.467190 0.748252 0.172869 0.107301
H52   H     H_    0.456528 0.014882 0.237556 0.109241
H53   H     H_    0.432654 0.324403 0.192812 0.104987
H54   H     H_    0.419395 0.367158 0.083074 0.126294
H55   H     H_    0.430611 0.103166 0.017627 0.122303
C99   C     C_R   0.552816 0.106950 0.905966 0.092553
C100  C     C_R   0.535099 0.926540 0.913033 -0.120852
C101  C     C_R   0.543661 0.783857 0.874666 -0.117263
C102  C     C_R   0.569625 0.820719 0.828927 -0.097424
C103  C     C_R   0.586965 0.000504 0.821375 -0.115523
C104  C     C_R   0.578518 0.143635 0.859679 -0.146281
H56   H     H_    0.514812 0.896799 0.948230 0.125686
H57   H     H_    0.530116 0.644879 0.880248 0.125438
H58   H     H_    0.576194 0.710082 0.799256 0.104309
H59   H     H_    0.606908 0.028963 0.785807 0.108560
H60   H     H_    0.591970 0.282598 0.853426 0.107378

loop_
_geom_bond_atom_site_label_1
_geom_bond_atom_site_label_2
_ccdc_geom_bond_type
C98   H55   S    
O17   V3    S    
C42   C87   S    
C97   C98   A    
C48   C52   A    
O1    C5    A    
C88   C89   A    
C47   H19   S    
O19   V1    S    
C9    C21   A    
C95   C96   A    
O3    C7    A    
C83   C84   A    
C10   C18   A    
C73   H37   S    
C48   C68   A    
C11   C23   A    
C55   C80   S    
C99   C100  A    
C25   C33   A    
C33   C38   A    
C5    C12   S    
C102  C103  A    
C75   H39   S    
C6    C11   S    
C35   C40   A    
C26   C30   A    
C58   C62   A    
C36   C39   A    
C40   C44   A    
C57   C61   A    
C87   C88   A    
C71   C75   A    
C14   C18   A    
C2    C68   S    
C72   C76   A    
C58   H26   S    
O4    C8    A    
C51   H23   S    
C96   C97   A    
C70   H34   S    
C43   C93   S    
O1    V3    S    
O13   V1    S    
O2    V4    S    
O3    V1    S    
C103  C104  A    
C40   H16   S    
C22   H1    S    
C46   C50   A    
C17   H6    S    
C81   C86   A    
C45   C49   A    
C1    O15   A    
C15   C31   A    
C48   H20   S    
C2    O16   A    
C16   C32   A    
C47   C51   A    
O2    C6    A    
C95   H52   S    
C16   H12   S    
C45   C65   A    
C10   C22   A    
C54   C77   S    
C11   C19   A    
C16   C20   A    
C92   H50   S    
C76   H40   S    
C103  H59   S    
C13   C29   A    
C34   C37   A    
O11   C7    A    
C38   H14   S    
O15   V3    S    
C35   C36   A    
O12   C8    A    
C3    C65   S    
O10   V2    S    
C72   H36   S    
C51   C55   A    
C81   C82   A    
O5    V1    S    
C96   H53   S    
C53   C57   A    
C94   H51   S    
C39   C43   A    
O7    V3    S    
C38   C42   A    
C101  H57   S    
C26   C34   A    
C63   C67   A    
C84   C85   A    
C4    C66   S    
C46   H18   S    
C49   C53   A    
C93   C94   A    
C45   H17   S    
O18   V4    S    
C23   C27   A    
C14   H10   S    
C32   C44   A    
C13   H9    S    
C64   H32   S    
C39   H15   S    
O8    V4    S    
C20   H7    S    
O7    C3    A    
C85   H44   S    
O5    C1    A    
C37   C41   A    
C74   C78   A    
C53   C78   S    
C31   C43   A    
C90   C91   A    
C14   C30   A    
C21   C25   A    
C69   C78   A    
O8    C4    A    
C7    C10   S    
C56   C79   S    
O9    C5    A    
C91   H49   S    
C59   C63   A    
C62   H30   S    
C89   H47   S    
C61   H29   S    
C94   C95   A    
O6    V2    S    
C87   C92   A    
C63   H31   S    
C86   H45   S    
C52   C56   A    
C69   H33   S    
C89   C90   A    
C12   C20   A    
C27   C35   A    
C84   H43   S    
O9    V1    S    
C24   H3    S    
C41   C81   S    
C49   H21   S    
C56   C60   A    
C29   C41   A    
C101  C102  A    
C82   C83   A    
O16   V4    S    
C69   C73   A    
C19   H8    S    
C57   H25   S    
C3    O13   A    
C18   H5    S    
C64   C68   A    
C21   H2    S    
C59   H27   S    
C99   C104  A    
C74   H38   S    
C15   C19   A    
C102  H58   S    
O11   V3    S    
C93   C98   A    
C30   C42   A    
C100  C101  A    
O12   V4    S    
C97   H54   S    
C22   C26   A    
C70   C77   A    
C73   C77   A    
C8    C9    S    
C9    C17   A    
C91   C92   A    
C60   C64   A    
O20   V2    S    
C83   H42   S    
C76   C80   A    
C37   H13   S    
C104  H60   S    
C47   C67   A    
O10   C6    A    
C33   C34   A    
C25   C29   A    
C52   H24   S    
C44   C99   S    
C75   C79   A    
C1    C67   S    
C12   C24   A    
C27   C31   A    
C71   C80   A    
C13   C17   A    
C46   C66   A    
C72   C79   A    
C71   H35   S    
C23   H4    S    
O6    C2    A    
O14   V2    S    
C82   H41   S    
C62   C66   A    
C100  H56   S    
C60   H28   S    
C24   C28   A    
C61   C65   A    
C70   C74   A    
C28   C36   A    
C54   C58   A    
C4    O14   A    
C50   H22   S    
C90   H48   S    
C55   C59   A    
C85   C86   A    
C88   H46   S    
O4    V2    S    
C28   C32   A    
C50   C54   A    
C15   H11   S    
