data_mof_unit_14959.cif
_audit_creation_date              2012-12-11T14:30:03-0500
_audit_creation_method            fapswitch 2.2
_symmetry_space_group_name_H-M    P1
_symmetry_Int_Tables_number       1
_space_group_crystal_system       triclinic
_cell_length_a                    13.22139
_cell_length_b                    13.150033
_cell_length_c                    27.072909
_cell_angle_alpha                 90.010711
_cell_angle_beta                  89.714624
_cell_angle_gamma                 120.132255
_cell_volume                      4070.82328255

loop_
_atom_site_label
_atom_site_type_symbol
_atom_type_description
_atom_site_fract_x
_atom_site_fract_y
_atom_site_fract_z
_atom_type_partial_charge
C1    C     C_R   0.561362 0.455410 0.822875 0.557964
C2    C     C_R   0.457375 0.556764 0.179319 0.551116
C3    C     C_R   0.014990 0.315776 0.477896 0.284720
C4    C     C_R   0.349376 0.060425 0.036637 0.322839
C5    C     C_R   0.684129 0.699649 0.477253 0.285016
C6    C     C_R   0.310284 0.997174 0.530259 0.289908
C7    C     C_R   0.974996 0.296673 0.979151 0.303813
C8    C     C_R   0.688144 0.690690 0.529225 0.289704
C9    C     C_R   0.340288 0.053111 0.984609 0.291081
C10   C     C_R   0.002392 0.312282 0.529915 0.290603
C11   C     C_R   0.709773 0.667908 0.980591 0.300990
C12   C     C_3   0.994584 0.721252 0.152116 -0.089081
C13   C     C_R   0.438427 0.894265 0.322305 0.534385
C14   C     C_3   0.722110 0.039715 0.350029 -0.079893
C15   C     C_3   0.204499 0.305094 0.135595 -0.083017
C16   C     C_3   0.957523 0.679750 0.349379 -0.084570
C17   C     C_3   0.693497 0.895942 0.136805 -0.098761
C18   C     C_3   0.315381 0.276804 0.350751 -0.081209
C19   C     C_3   0.740158 0.017448 0.648189 -0.037245
C20   C     C_3   0.022968 0.728226 0.853723 -0.089928
C21   C     C_3   0.275155 0.266132 0.650195 -0.043482
C22   C     C_3   0.693752 0.970866 0.854265 -0.089751
C23   C     C_3   0.986165 0.724660 0.649863 -0.040177
C24   C     C_R   0.102616 0.543824 0.178688 0.543550
C25   C     C_3   0.275214 0.310791 0.852219 -0.097486
C26   C     C_2   0.938061 0.305028 0.140058 0.288692
C27   C     C_2   0.323470 0.014062 0.368084 0.295276
C28   C     C_2   0.696825 0.632525 0.144064 0.294784
C29   C     C_2   0.985487 0.307977 0.367654 0.295881
C30   C     C_2   0.418515 0.110400 0.146351 0.297557
C31   C     C_2   0.690599 0.675842 0.367113 0.296949
C32   C     C_2   0.307870 0.942096 0.638204 0.268903
C33   C     C_2   0.005124 0.316625 0.868987 0.267965
C34   C     C_2   0.637255 0.693743 0.637497 0.269487
C35   C     C_R   0.981072 0.484868 0.976727 -0.050079
C36   C     C_2   0.314747 0.007332 0.874317 0.274702
C37   C     C_2   0.058084 0.366420 0.637782 0.267365
C38   C     C_2   0.686314 0.688147 0.869899 0.267129
C39   C     C_3   0.931037 0.125017 0.064646 -0.150985
C40   C     C_3   0.193204 0.061089 0.447919 -0.088564
C41   C     C_3   0.869805 0.824719 0.060406 -0.154914
C42   C     C_3   0.939316 0.130418 0.447253 -0.087703
C43   C     C_3   0.190164 0.005839 0.088348 -0.115322
C44   C     C_3   0.869175 0.808443 0.446254 -0.088068
C45   C     C_3   0.130808 0.944220 0.563202 -0.089560
C46   C     C_R   0.495456 0.000639 0.527406 -0.056725
C47   C     C_3   0.045830 0.182232 0.949022 -0.151937
C48   C     C_3   0.814993 0.870549 0.561925 -0.091047
C49   C     C_3   0.151744 0.963262 0.960552 -0.167004
C50   C     C_3   0.055744 0.185938 0.562639 -0.091525
C51   C     C_3   0.808677 0.853590 0.948343 -0.170068
C52   C     C_R   0.515784 0.494948 0.978090 -0.048829
C53   C     C_R   0.998989 0.495001 0.527359 -0.057084
C54   C     C_R   0.510226 0.029773 0.979716 -0.047885
C55   C     C_R   0.505303 0.505008 0.527528 -0.057102
C56   C     C_R   0.483980 0.981981 0.475849 -0.056801
C57   C     C_R   0.896312 0.440907 0.678354 0.553439
C58   C     C_R   0.997415 0.494982 0.028494 -0.041880
C59   C     C_R   0.497892 0.516204 0.475942 -0.056458
C60   C     C_R   0.506214 0.015658 0.031876 -0.046247
C61   C     C_R   0.016870 0.501678 0.475708 -0.056962
C62   C     C_R   0.507844 0.497854 0.030427 -0.051413
C63   C     C_R   0.991087 0.673646 0.975721 -0.085610
C64   C     C_R   0.685847 0.017682 0.523617 -0.136644
C65   C     C_R   0.328574 0.316723 0.977154 -0.088975
C66   C     C_R   0.982169 0.669395 0.523959 -0.134274
C67   C     C_R   0.683220 0.012784 0.976867 -0.105805
C68   C     C_R   0.545159 0.108084 0.823360 0.556354
C69   C     C_R   0.330775 0.313906 0.524879 -0.136353
C70   C     C_R   0.665505 0.979958 0.475112 -0.130636
C71   C     C_R   0.021100 0.689557 0.025161 -0.076507
C72   C     C_R   0.313321 0.334081 0.476382 -0.131699
C73   C     C_R   0.668618 0.981778 0.026353 -0.142973
C74   C     C_R   0.018913 0.686225 0.475244 -0.128219
C75   C     C_R   0.315844 0.323326 0.027648 -0.054348
C76   C     C_R   0.948238 0.561968 0.899868 0.234547
C77   C     C_R   0.617859 0.054926 0.601115 0.232428
C78   C     C_R   0.436700 0.388677 0.900430 0.233727
C79   C     C_R   0.559675 0.455731 0.678351 0.552287
C80   C     C_R   0.946602 0.564796 0.601550 0.232437
C81   C     C_R   0.614430 0.056043 0.901294 0.234035
C82   C     C_R   0.436094 0.382893 0.601928 0.233966
C83   C     C_R   0.560081 0.948387 0.398855 0.247022
C84   C     C_R   0.047468 0.615244 0.103128 0.245229
C85   C     C_R   0.387374 0.439172 0.399486 0.246209
C86   C     C_R   0.579762 0.970313 0.106861 0.263700
C87   C     C_R   0.049054 0.611151 0.398689 0.248020
C88   C     C_R   0.394203 0.418525 0.107019 0.277747
C89   C     C_R   0.041695 0.521756 0.130654 0.008739
C90   C     C_R   0.893502 0.438491 0.822699 0.562055
C91   C     C_R   0.466977 0.945000 0.372900 -0.049136
C92   C     C_R   0.483672 0.512523 0.132836 0.040018
C93   C     C_R   0.053347 0.521302 0.372715 -0.049031
C94   C     C_R   0.489812 0.971961 0.133660 0.000345
C95   C     C_R   0.477409 0.532328 0.372960 -0.049823
C96   C     C_R   0.524281 0.047291 0.629373 -0.040595
C97   C     C_R   0.943704 0.467628 0.873598 0.014908
C98   C     C_R   0.523647 0.476588 0.629517 -0.040689
C99   C     C_R   0.525180 0.061622 0.875539 0.011907
C100  C     C_R   0.953565 0.477923 0.629474 -0.041117
C101  C     C_R   0.544677 0.104110 0.678323 0.551017
C102  C     C_R   0.531777 0.477448 0.874089 0.015329
C103  C     C_R   0.973533 0.573695 0.950579 0.032716
C104  C     C_R   0.599818 0.023639 0.551009 0.032196
C105  C     C_R   0.426345 0.400785 0.951653 0.026428
C106  C     C_R   0.976677 0.577260 0.551247 0.031837
C107  C     C_R   0.602745 0.032871 0.952414 0.040001
C108  C     C_R   0.423239 0.400508 0.551736 0.032129
C109  C     C_R   0.569571 0.969401 0.449799 0.032300
C110  C     C_R   0.020798 0.599861 0.052544 0.051031
C111  C     C_R   0.399080 0.430133 0.450461 0.032706
C112  C     C_R   0.455502 0.561035 0.322336 0.546292
C113  C     C_R   0.585485 0.989201 0.055264 0.037896
C114  C     C_R   0.028892 0.600066 0.449731 0.032309
C115  C     C_R   0.405174 0.412540 0.055275 0.045091
C116  C     C_R   0.969683 0.388221 0.898797 0.011677
C117  C     C_R   0.414040 0.005095 0.606982 0.029249
C118  C     C_R   0.611509 0.581970 0.899683 0.010621
C119  C     C_R   0.995154 0.409230 0.606798 0.030739
C120  C     C_R   0.422966 0.040747 0.902371 0.009440
C121  C     C_R   0.592770 0.587015 0.606599 0.029770
C122  C     C_R   0.388597 0.971956 0.398096 0.009240
C123  C     C_R   0.443506 0.900854 0.179604 0.521527
C124  C     C_R   0.997137 0.410840 0.108217 -0.018323
C125  C     C_R   0.583317 0.611121 0.397610 0.008616
C126  C     C_R   0.435640 0.030644 0.113122 -0.018544
C127  C     C_R   0.026774 0.415570 0.397803 0.008393
C128  C     C_R   0.595253 0.576144 0.110605 -0.007140
C129  C     C_R   0.973412 0.387644 0.951332 -0.042346
C130  C     C_R   0.405119 0.999920 0.555015 -0.030426
C131  C     C_R   0.612867 0.584395 0.952456 -0.047273
C132  C     C_R   0.999967 0.405103 0.554816 -0.029053
C133  C     C_R   0.422933 0.040990 0.955227 -0.051130
C134  C     C_R   0.105086 0.543956 0.322251 0.539616
C135  C     C_R   0.595745 0.595760 0.554578 -0.030975
C136  C     C_R   0.389253 0.978029 0.450539 -0.031097
C137  C     C_R   0.992592 0.402073 0.056080 -0.033175
C138  C     C_R   0.589088 0.611047 0.450045 -0.030761
C139  C     C_R   0.430163 0.037107 0.060895 -0.013448
C140  C     C_R   0.020782 0.410288 0.450247 -0.030381
C141  C     C_R   0.605988 0.577654 0.058146 -0.051159
C142  C     C_R   0.987025 0.305394 0.031092 0.289614
C143  C     C_R   0.301184 0.984258 0.478308 0.284950
C144  C     C_R   0.710483 0.654723 0.032526 0.303318
Cr1   Cr    Cr6+3 0.487630 0.241180 0.750000 1.084175
Cr2   Cr    Cr6+3 0.753550 0.512370 0.750000 1.080295
Cr3   Cr    Cr6+3 0.758820 0.246450 0.750000 1.081015
Cr4   Cr    Cr6+3 0.241180 0.487630 0.250000 1.059141
Cr5   Cr    Cr6+3 0.512370 0.753550 0.250000 1.061283
Cr6   Cr    Cr6+3 0.246450 0.758820 0.250000 1.069410
H1    H     H_    0.041058 0.771072 0.042346 0.143251
H2    H     H_    0.755426 0.017026 0.957041 0.188716
H3    H     H_    0.961087 0.730336 0.540679 0.185914
H4    H     H_    0.261204 0.245244 0.957385 0.195869
H5    H     H_    0.914119 0.685099 0.130057 0.190718
H6    H     H_    0.019822 0.812165 0.163118 0.100725
H7    H     H_    0.975426 0.667882 0.186281 0.157547
H8    H     H_    0.806696 0.042681 0.344386 0.168624
H9    H     H_    0.739023 0.118940 0.371455 0.049181
H10   H     H_    0.688133 0.043660 0.313123 0.138651
H11   H     H_    0.143049 0.216605 0.121256 0.149940
H12   H     H_    0.727303 0.963605 0.456447 0.204716
H13   H     H_    0.194765 0.373140 0.115018 0.129479
H14   H     H_    0.179000 0.304195 0.174698 0.161685
H15   H     H_    0.953432 0.760987 0.343244 0.165678
H16   H     H_    0.878367 0.616782 0.370731 0.052726
H17   H     H_    0.955481 0.641350 0.312653 0.130794
H18   H     H_    0.785171 0.923905 0.127929 0.073343
H19   H     H_    0.633726 0.819876 0.113200 0.091937
H20   H     H_    0.684394 0.868935 0.175978 0.192337
H21   H     H_    0.233761 0.191180 0.346069 0.166610
H22   H     H_    0.378990 0.261009 0.371260 0.049432
H23   H     H_    0.235835 0.256865 0.044570 0.201914
H24   H     H_    0.351232 0.310695 0.313384 0.138759
H25   H     H_    0.822966 0.021569 0.637518 0.156729
H26   H     H_    0.666900 0.925892 0.643328 0.053744
H27   H     H_    0.748191 0.038835 0.688055 0.162412
H28   H     H_    0.096489 0.770107 0.880108 0.143735
H29   H     H_    0.005137 0.797092 0.839933 0.136403
H30   H     H_    0.048714 0.693210 0.821657 0.151532
H31   H     H_    0.195407 0.180888 0.642703 0.158954
H32   H     H_    0.256702 0.338010 0.642057 0.056961
H33   H     H_    0.291815 0.266997 0.690279 0.154809
H34   H     H_    0.035286 0.764686 0.456611 0.205170
H35   H     H_    0.644418 0.893497 0.878873 0.143395
H36   H     H_    0.778824 0.977715 0.845086 0.139982
H37   H     H_    0.644589 0.956175 0.819366 0.155969
H38   H     H_    0.982936 0.804859 0.640611 0.155463
H39   H     H_    0.076898 0.742291 0.644209 0.056068
H40   H     H_    0.964930 0.709194 0.689745 0.159695
H41   H     H_    0.253168 0.368659 0.874164 0.147111
H42   H     H_    0.193279 0.226318 0.845863 0.140399
H43   H     H_    0.310296 0.352231 0.815699 0.155859
H44   H     H_    0.976077 0.250238 0.146432 0.116204
H45   H     H_    0.722651 0.951954 0.042000 0.091724
H46   H     H_    0.372418 0.095631 0.347879 0.037977
H47   H     H_    0.758092 0.725405 0.142103 0.085811
H48   H     H_    0.905017 0.275754 0.347308 0.045201
H49   H     H_    0.387726 0.084970 0.183970 0.110667
H50   H     H_    0.721982 0.626059 0.346972 0.047711
H51   H     H_    0.277680 0.851573 0.648358 0.042819
H52   H     H_    0.956167 0.221635 0.870368 0.187697
H53   H     H_    0.578112 0.724984 0.647472 0.043382
H54   H     H_    0.271045 0.058025 0.876527 0.195314
H55   H     H_    0.147652 0.427701 0.648017 0.044090
H56   H     H_    0.234841 0.271915 0.458177 0.204220
H57   H     H_    0.780342 0.727215 0.869678 0.191967
H58   H     H_    0.956596 0.083866 0.094016 0.095858
H59   H     H_    0.912083 0.069486 0.031724 0.147201
H60   H     H_    0.852525 0.126906 0.077820 0.197689
H61   H     H_    0.279184 0.134963 0.435822 0.106965
H62   H     H_    0.161999 0.084571 0.481217 0.121657
H63   H     H_    0.128893 0.044797 0.418474 0.163060
H64   H     H_    0.807568 0.856533 0.057764 0.077260
H65   H     H_    0.937289 0.865877 0.031671 0.145991
H66   H     H_    0.914918 0.854179 0.096280 0.080718
H67   H     H_    0.767720 0.039224 0.540111 0.183201
H68   H     H_    0.866543 0.142844 0.434645 0.105741
H69   H     H_    0.914541 0.076172 0.480715 0.122293
H70   H     H_    0.956408 0.081582 0.418148 0.163908
H71   H     H_    0.186317 0.919923 0.084912 0.141579
H72   H     H_    0.107608 0.998232 0.075409 0.092491
H73   H     H_    0.196009 0.028559 0.128038 0.151755
H74   H     H_    0.856439 0.721881 0.434624 0.107163
H75   H     H_    0.924296 0.840960 0.479289 0.122846
H76   H     H_    0.917189 0.872388 0.416271 0.163904
H77   H     H_    0.129759 0.862774 0.574543 0.114028
H78   H     H_    0.985708 0.742013 0.956549 0.189508
H79   H     H_    0.075835 0.928472 0.530524 0.118293
H80   H     H_    0.091690 0.970411 0.593301 0.137643
H81   H     H_    0.071291 0.153277 0.982743 0.172162
H82   H     H_    0.118982 0.266431 0.935015 0.108302
H83   H     H_    0.026272 0.114668 0.920378 0.112644
H84   H     H_    0.734845 0.871043 0.573631 0.112130
H85   H     H_    0.854019 0.925997 0.529162 0.118382
H86   H     H_    0.880310 0.909697 0.591786 0.137539
H87   H     H_    0.107351 0.943634 0.996447 0.123644
H88   H     H_    0.166103 0.890320 0.949079 0.101893
H89   H     H_    0.270143 0.231638 0.541787 0.185583
H90   H     H_    0.093617 0.970140 0.933043 0.125888
H91   H     H_    0.030447 0.120858 0.592881 0.136615
H92   H     H_    0.136452 0.266987 0.573706 0.115105
H93   H     H_    0.071367 0.146428 0.529847 0.117890
H94   H     H_    0.849689 0.917623 0.978201 0.107022
H95   H     H_    0.718528 0.836797 0.942162 0.106277
H96   H     H_    0.861693 0.897229 0.914923 0.123369
O1    O     O_R   0.460870 0.120930 0.805240 -0.476873
O2    O     O_R   0.120930 0.460870 0.194760 -0.558352
O3    O     O_R   0.539130 0.660060 0.305240 -0.464826
O4    O     O_R   0.339940 0.879070 0.194760 -0.526846
O5    O     O_R   0.498910 0.350470 0.801870 -0.484655
O6    O     O_R   0.851560 0.501090 0.698130 -0.482538
O7    O     O_R   0.649530 0.148440 0.801870 -0.483697
O8    O     O_R   0.498910 0.350470 0.698130 -0.479975
O9    O     O_R   0.851560 0.501090 0.801870 -0.483705
O10   O     O_R   0.649530 0.148440 0.698130 -0.482722
O11   O     O_R   0.350470 0.498910 0.301870 -0.452580
O12   O     O_R   0.660060 0.539130 0.694760 -0.440334
O13   O     O_R   0.501090 0.851560 0.198130 -0.496245
O14   O     O_R   0.148440 0.649530 0.301870 -0.455778
O15   O     O_R   0.350470 0.498910 0.198130 -0.499638
O16   O     O_R   0.501090 0.851560 0.301870 -0.453072
O17   O     O_R   0.148440 0.649530 0.198130 -0.464226
O18   O     O_3   0.666667 0.333333 0.750000 -0.307349
O19   O     O_3   0.333333 0.666667 0.250000 -0.292471
O20   O     O_3   0.086697 0.724358 0.124441 -0.588582
O21   O     O_3   0.644419 0.933865 0.374616 -0.492635
O22   O     O_3   0.317289 0.319829 0.133996 -0.512601
O23   O     O_R   0.879070 0.339940 0.805240 -0.478856
O24   O     O_3   0.062299 0.709841 0.374422 -0.493097
O25   O     O_3   0.679888 0.994995 0.132633 -0.554771
O26   O     O_3   0.288092 0.354321 0.375787 -0.492264
O27   O     O_3   0.729617 0.102894 0.620502 -0.498804
O28   O     O_3   0.921309 0.639476 0.876999 -0.568496
O29   O     O_3   0.368565 0.271574 0.622319 -0.497597
O30   O     O_3   0.715397 0.076077 0.877179 -0.569040
O31   O     O_3   0.900696 0.630487 0.621508 -0.498412
O32   O     O_3   0.354921 0.287242 0.876858 -0.578237
O33   O     O_2   0.846874 0.281106 0.161105 -0.463230
O34   O     O_R   0.460870 0.120930 0.694760 -0.438642
O35   O     O_2   0.218969 0.951725 0.360379 -0.424125
O36   O     O_2   0.708364 0.574775 0.176556 -0.498117
O37   O     O_2   0.047614 0.265524 0.359808 -0.424046
O38   O     O_2   0.447703 0.210015 0.132953 -0.398653
O39   O     O_2   0.734160 0.780942 0.358963 -0.425298
O40   O     O_2   0.257296 0.991405 0.654338 -0.461050
O41   O     O_2   0.083063 0.364559 0.838295 -0.558148
O42   O     O_2   0.736815 0.743635 0.653548 -0.463299
O43   O     O_2   0.278613 0.926196 0.844976 -0.555295
O44   O     O_2   0.009481 0.266150 0.653971 -0.466830
O45   O     O_R   0.660060 0.539130 0.805240 -0.482684
O46   O     O_2   0.641495 0.724113 0.840640 -0.560781
O47   O     O_3   0.024853 0.238396 0.055493 -0.646762
O48   O     O_3   0.197313 0.957888 0.455928 -0.563519
O49   O     O_3   0.815867 0.701703 0.057097 -0.573217
O50   O     O_3   0.041769 0.238118 0.455289 -0.562429
O51   O     O_3   0.283615 0.098568 0.062287 -0.515557
O52   O     O_3   0.762197 0.804039 0.454360 -0.563388
O53   O     O_3   0.245146 0.036822 0.555152 -0.544296
O54   O     O_3   0.945270 0.190729 0.956973 -0.606124
O55   O     O_3   0.793067 0.756086 0.553623 -0.546361
O56   O     O_R   0.879070 0.339940 0.694760 -0.439777
O57   O     O_3   0.257041 0.070801 0.962597 -0.591949
O58   O     O_3   0.963255 0.207226 0.554915 -0.545647
O59   O     O_3   0.812039 0.749603 0.957494 -0.585782
O60   O     O_R   0.120930 0.460870 0.305240 -0.469769
O61   O     O_R   0.539130 0.660060 0.194760 -0.547457
O62   O     O_R   0.339940 0.879070 0.305240 -0.475846

loop_
_geom_bond_atom_site_label_1
_geom_bond_atom_site_label_2
_ccdc_geom_bond_type
C98   C121  A    
C55   C59   A    
C51   H94   S    
Cr5   O19   S    
C28   O36   D    
C54   C107  A    
C14   H8    S    
C15   H13   S    
C3    O50   S    
C9    O57   S    
C42   H70   S    
C10   O58   S    
C23   H38   S    
C74   C114  A    
C39   H59   S    
C120  C133  A    
C32   H51   S    
C19   H26   S    
C118  C131  A    
C51   O59   S    
C53   C106  A    
C37   O44   D    
C91   C122  A    
C59   C111  A    
C12   H7    S    
C44   H75   S    
Cr6   O17   S    
C76   C103  A    
C43   O51   S    
C13   C91   S    
C8    C135  A    
C82   C98   A    
C36   O43   D    
C70   H12   S    
C31   H50   S    
C2    O61   A    
C77   O27   S    
C124  C137  A    
C43   H72   S    
C78   O32   S    
C49   H87   S    
C15   O22   S    
C141  C144  A    
C88   O22   S    
C72   H56   S    
C81   C99   A    
C123  O13   A    
C7    O54   S    
Cr4   O19   S    
C5    O52   S    
C66   H3    S    
C101  O10   A    
Cr1   O18   S    
C53   C132  A    
C121  C135  A    
C69   H89   S    
Cr6   O19   S    
C122  C136  A    
C42   O50   S    
C50   H93   S    
C80   O31   S    
C44   O52   S    
Cr1   O8    S    
C75   C115  A    
C57   O56   A    
C26   H44   S    
C33   C116  S    
C58   C110  A    
C15   H11   S    
C42   H68   S    
C25   H42   S    
C5    C8    A    
C125  C138  A    
C83   C91   A    
C28   H47   S    
C47   O54   S    
C12   O20   S    
Cr5   O61   S    
C27   H46   S    
C47   H83   S    
C9    C133  A    
C137  C142  A    
C13   O62   A    
C101  O34   A    
C40   O48   S    
C32   C117  S    
C17   O25   S    
C18   O26   S    
C112  O3    A    
C40   H61   S    
C64   H67   S    
C35   C58   A    
C85   O26   S    
C51   H95   S    
C86   O25   S    
C136  C143  A    
C32   O40   D    
C6    O53   S    
C41   H65   S    
C74   H34   S    
C66   C74   A    
C80   C106  A    
C1    O45   A    
C45   H77   S    
C53   C61   A    
C68   O7    A    
C33   O41   D    
C34   O42   D    
C82   C108  A    
C19   H27   S    
C12   H6    S    
C65   C105  A    
C56   C136  A    
Cr6   O4    S    
C20   H29   S    
C21   H32   S    
C126  C139  A    
C38   H57   S    
Cr1   O1    S    
C96   C117  A    
C50   O58   S    
C48   O55   S    
C17   H20   S    
C47   H82   S    
C59   C138  A    
C14   H9    S    
Cr3   O7    S    
C22   H36   S    
C69   C72   A    
C43   H73   S    
Cr2   O45   S    
C37   C119  S    
C16   H15   S    
C39   H58   S    
C84   O20   S    
C100  C119  A    
C44   H74   S    
C18   H24   S    
C52   C105  A    
C29   C127  S    
Cr2   O12   S    
C45   H80   S    
C31   C125  S    
C41   O49   S    
C56   C109  A    
C14   O21   S    
C13   O16   A    
C64   C104  A    
C8    O55   S    
C67   H2    S    
C37   H55   S    
Cr1   O5    S    
C25   O32   S    
C17   H18   S    
C46   C130  A    
C16   O24   S    
C1    O5    A    
C61   C140  A    
C89   C124  A    
C77   C96   A    
C55   C108  A    
C81   O30   S    
C88   C115  A    
C82   O29   S    
C62   C115  A    
C52   C62   A    
C134  O60   A    
C4    C139  A    
C85   C95   A    
C87   C93   A    
C24   O17   A    
C19   H25   S    
C48   H85   S    
Cr6   O62   S    
C29   H48   S    
C127  C140  A    
C46   C56   A    
C61   C114  A    
C62   C141  A    
C4    C9    A    
C44   H76   S    
C23   H40   S    
C81   C107  A    
C11   O59   S    
Cr2   O9    S    
C78   C102  A    
Cr4   O11   S    
C50   H91   S    
C23   O31   S    
C18   H21   S    
C86   C113  A    
C43   H71   S    
C35   C103  A    
C95   C112  S    
C87   O24   S    
C16   H17   S    
C71   C110  A    
C33   H52   S    
C73   C113  A    
Cr5   O13   S    
C71   H1    S    
C39   O47   S    
Cr2   O18   S    
C67   C73   A    
C128  C141  A    
C90   C97   S    
C6    C130  A    
C94   C123  S    
C72   C111  A    
C96   C101  S    
C31   O39   D    
C26   C124  S    
C21   O29   S    
C26   O33   D    
C27   C122  S    
C22   O30   S    
Cr5   O3    S    
C15   H14   S    
C49   O57   S    
C123  O4    A    
C63   C103  A    
C42   H69   S    
C25   H41   S    
Cr4   O60   S    
C76   C97   A    
C54   C133  A    
C46   C104  A    
C39   H60   S    
Cr2   O6    S    
C38   O46   D    
C76   O28   S    
C97   C116  A    
C73   H45   S    
C90   O23   A    
C4    O51   S    
Cr5   O16   S    
C25   H43   S    
C52   C131  A    
C49   H88   S    
C85   C111  A    
C20   H28   S    
C63   H78   S    
C40   H62   S    
Cr3   O23   S    
C41   H64   S    
C79   O8    A    
C36   C120  S    
C7    C129  A    
C38   C118  S    
C77   C104  A    
Cr3   O18   S    
C1    C102  S    
C48   H84   S    
C28   C128  S    
C90   O9    A    
C30   C126  S    
C75   H23   S    
C79   C98   S    
C24   C89   S    
C5    C138  A    
C20   H30   S    
C54   C60   A    
C142  O47   S    
C21   H31   S    
C78   C105  A    
C45   O53   S    
C17   H19   S    
C2    O15   A    
C47   H81   S    
C144  O49   S    
Cr3   O10   S    
Cr4   O2    S    
C22   H37   S    
C87   C114  A    
C86   C94   A    
Cr6   O14   S    
C99   C120  A    
C116  C129  A    
C88   C92   A    
C16   H16   S    
C40   H63   S    
C83   C109  A    
C64   C70   A    
Cr4   O15   S    
C11   C144  A    
C35   C129  A    
C102  C118  A    
C30   H49   S    
Cr3   O56   S    
C80   C100  A    
C60   C113  A    
C45   H79   S    
C66   C106  A    
C49   H90   S    
C92   C128  A    
C69   C108  A    
C10   C132  A    
C94   C126  A    
C68   O1    A    
C51   H96   S    
C93   C134  S    
C41   H66   S    
C57   C100  S    
C84   C110  A    
C14   H10   S    
C93   C127  A    
C65   H4    S    
C70   C109  A    
C112  O11   A    
C95   C125  A    
C34   H53   S    
C29   O37   D    
C30   O38   D    
C119  C132  A    
C57   O6    A    
C2    C92   S    
C117  C130  A    
C48   H86   S    
C58   C137  A    
C34   C121  S    
C24   O2    A    
Cr1   O34   S    
C84   C89   A    
C12   H5    S    
C23   H39   S    
C21   H33   S    
C79   O12   A    
C63   C71   A    
C50   H92   S    
C11   C131  A    
C27   O35   D    
C143  O48   S    
C18   H22   S    
C65   C75   A    
C22   H35   S    
C83   O21   S    
C68   C99   S    
C3    C10   A    
C67   C107  A    
C19   O27   S    
C55   C135  A    
C20   O28   S    
C60   C139  A    
C134  O14   A    
C3    C140  A    
C36   H54   S    
C6    C143  A    
C7    C142  A    
