data_mof_unit_49461.cif
_audit_creation_date              2012-12-11T17:12:43-0500
_audit_creation_method            fapswitch 2.2
_symmetry_space_group_name_H-M    P1
_symmetry_Int_Tables_number       1
_space_group_crystal_system       triclinic
_cell_length_a                    17.218218
_cell_length_b                    6.883395
_cell_length_c                    14.404361
_cell_angle_alpha                 88.782523
_cell_angle_beta                  110.064774
_cell_angle_gamma                 91.506469
_cell_volume                      1602.89372902

loop_
_atom_site_label
_atom_site_type_symbol
_atom_type_description
_atom_site_fract_x
_atom_site_fract_y
_atom_site_fract_z
_atom_type_partial_charge
O1    O     O_R   0.314130 0.635770 0.168990 -0.541979
O2    O     O_R   0.685870 0.364230 0.831010 -0.541149
O3    O     O_R   0.185870 0.135770 0.331010 -0.541265
O4    O     O_R   0.814130 0.864230 0.668990 -0.541758
O5    O     O_R   0.146800 0.302460 0.139760 -0.537886
O6    O     O_R   0.853200 0.697540 0.860240 -0.538108
O7    O     O_R   0.353200 0.802460 0.360240 -0.536763
O8    O     O_R   0.646800 0.197540 0.639760 -0.536945
C1    C     C_R   0.113987 0.475356 0.112776 0.724280
C2    C     C_R   0.886016 0.524646 0.887219 0.722816
C3    C     C_R   0.385998 0.976354 0.387212 0.725640
C4    C     C_R   0.614004 0.023646 0.612784 0.726851
O9    O     O_R   0.311100 0.305780 0.157130 -0.544095
O10   O     O_R   0.688900 0.694220 0.842870 -0.543563
O11   O     O_R   0.188900 0.805780 0.342870 -0.543983
O12   O     O_R   0.811100 0.194220 0.657130 -0.544515
O13   O     O_R   0.351340 0.139640 0.348510 -0.535976
O14   O     O_R   0.648660 0.860360 0.651490 -0.535651
O15   O     O_R   0.148660 0.639640 0.151490 -0.534413
O16   O     O_R   0.851340 0.360360 0.848510 -0.534371
C5    C     C_R   0.333240 0.478444 0.136206 0.715445
C6    C     C_R   0.666819 0.521532 0.863876 0.719160
C7    C     C_R   0.166475 0.971189 0.363849 0.719619
C8    C     C_R   0.833579 0.028807 0.636229 0.715793
C9    C     C_1   0.533593 0.008272 0.533076 -0.183944
C10   C     C_1   0.466410 0.991729 0.466917 -0.184277
C11   C     C_1   0.966462 0.509494 0.966988 -0.183086
C12   C     C_1   0.033543 0.490509 0.033003 -0.182448
O17   O     O_3   0.263010 0.470920 0.312770 -0.367870
O18   O     O_3   0.736990 0.529080 0.687230 -0.368360
O19   O     O_3   0.236990 0.970920 0.187230 -0.369066
O20   O     O_3   0.763010 0.029080 0.812770 -0.368575
V1    V     V_3+5 0.247590 0.194450 0.238360 1.424093
V2    V     V_3+5 0.752410 0.805550 0.761640 1.425074
V3    V     V_3+5 0.252410 0.694450 0.261640 1.428981
V4    V     V_3+5 0.747590 0.305550 0.738360 1.428754
C13   C     C_R   0.114500 0.964555 0.427394 -0.126035
C14   C     C_R   0.885859 0.035388 0.573082 -0.109241
C15   C     C_R   0.384931 0.503666 0.073132 -0.104466
C16   C     C_R   0.615436 0.496155 0.927348 -0.127049
C17   C     C_R   0.935945 0.219426 0.457089 0.214916
C18   C     C_R   0.064828 0.779819 0.543946 0.198505
C19   C     C_R   0.568426 0.283926 0.036868 0.206894
C20   C     C_R   0.432284 0.714956 0.964006 0.216384
C21   C     C_R   0.881028 0.195460 0.509298 -0.206804
C22   C     C_R   0.119303 0.803903 0.490885 -0.187391
C23   C     C_R   0.622652 0.325951 0.984998 -0.190327
C24   C     C_R   0.377580 0.673100 0.014979 -0.215853
C25   C     C_R   0.945859 0.895477 0.582847 -0.230873
C26   C     C_R   0.054807 0.104834 0.418210 -0.214199
C27   C     C_R   0.553563 0.627692 0.922625 -0.213903
C28   C     C_R   0.447196 0.372612 0.078601 -0.240065
C29   C     C_R   0.002943 0.918053 0.532376 0.078940
C30   C     C_R   0.998170 0.082374 0.469168 0.111913
C31   C     C_R   0.496933 0.586983 0.972063 0.117369
C32   C     C_R   0.504197 0.413250 0.029529 0.080865
H1    H     H_    0.050768 0.227279 0.368364 0.168660
H2    H     H_    0.949494 0.772941 0.632495 0.159374
H3    H     H_    0.452664 0.242870 0.124117 0.157203
H4    H     H_    0.547762 0.757468 0.877029 0.168899
H5    H     H_    0.165561 0.695106 0.498692 0.128737
H6    H     H_    0.834679 0.304568 0.500441 0.131087
H7    H     H_    0.329414 0.775401 0.009787 0.129844
H8    H     H_    0.670636 0.223983 0.989011 0.126977
N1    N     N_3   0.928253 0.383890 0.392017 -0.685764
H9    H     H_    0.932173 0.509825 0.432788 0.256086
H10   H     H_    0.869297 0.377605 0.338141 0.221976
N2    N     N_3   0.071152 0.613180 0.607912 -0.682431
H11   H     H_    0.095735 0.661636 0.680712 0.219057
H12   H     H_    0.112921 0.514042 0.598882 0.233773
N3    N     N_3   0.577503 0.108489 0.095376 -0.679795
H13   H     H_    0.600851 0.148238 0.169660 0.218208
H14   H     H_    0.621247 0.018752 0.083647 0.233638
N4    N     N_3   0.421889 0.888166 0.904305 -0.679564
H15   H     H_    0.423190 0.006819 0.948925 0.256861
H16   H     H_    0.363216 0.881065 0.849882 0.221136

loop_
_geom_bond_atom_site_label_1
_geom_bond_atom_site_label_2
_ccdc_geom_bond_type
C2    C11   S    
C16   C23   A    
C31   C32   A    
O1    C5    A    
O3    C7    A    
C14   C25   A    
C29   C30   A    
O5    C1    A    
C26   C30   A    
N4    H16   S    
O20   V4    S    
C18   C29   A    
O8    V4    S    
O4    C8    A    
O3    V1    S    
O17   V1    S    
C21   H6    S    
C18   C22   A    
C14   C21   A    
C1    O15   A    
C2    O16   A    
N2    H11   S    
N1    H10   S    
O5    V1    S    
O2    C6    A    
C8    C14   S    
O19   V1    S    
O11   C7    A    
C15   C28   A    
O12   C8    A    
C18   N2    S    
O13   V1    S    
O11   V3    S    
O4    V2    S    
N4    H15   S    
O18   V2    S    
C22   H5    S    
C23   H8    S    
N3    H14   S    
C24   H7    S    
C17   N1    S    
C3    C10   S    
C9    C10   T    
C7    C13   S    
C25   H2    S    
O6    V2    S    
O20   V2    S    
O7    C3    A    
O9    V1    S    
C28   H3    S    
C5    C15   S    
O8    C4    A    
C6    C16   S    
O9    C5    A    
C20   N4    S    
O14   V2    S    
O19   V3    S    
O1    V3    S    
O2    V4    S    
C3    O13   A    
C19   N3    S    
C26   H1    S    
O7    V3    S    
O10   V2    S    
O6    C2    A    
C16   C27   A    
O17   V3    S    
O18   V4    S    
C4    C9    S    
O10   C6    A    
N3    H13   S    
O15   V3    S    
O12   V4    S    
C13   C26   A    
C20   C31   A    
C25   C29   A    
C27   C31   A    
C17   C30   A    
O16   V4    S    
C28   C32   A    
C19   C32   A    
N2    H12   S    
N1    H9    S    
C4    O14   A    
C11   C12   T    
C17   C21   A    
C27   H4    S    
C13   C22   A    
C19   C23   A    
C20   C24   A    
C1    C12   S    
C15   C24   A    
