data_mof_unit_68051.cif
_audit_creation_date              2012-12-11T14:39:19-0500
_audit_creation_method            fapswitch 2.2
_symmetry_space_group_name_H-M    P1
_symmetry_Int_Tables_number       1
_space_group_crystal_system       triclinic
_cell_length_a                    7.281068
_cell_length_b                    13.968587
_cell_length_c                    16.394663
_cell_angle_alpha                 90.057267
_cell_angle_beta                  97.197071
_cell_angle_gamma                 90.117088
_cell_volume                      1654.2970402

loop_
_atom_site_label
_atom_site_type_symbol
_atom_type_description
_atom_site_fract_x
_atom_site_fract_y
_atom_site_fract_z
_atom_type_partial_charge
O1    O     O_R   0.525340 0.338340 0.164530 -0.551043
O2    O     O_R   0.474660 0.661660 0.835470 -0.552592
O3    O     O_R   0.974660 0.838340 0.835470 -0.550980
O4    O     O_R   0.025340 0.161660 0.164530 -0.554574
O5    O     O_R   0.253520 0.352000 0.336710 -0.544307
O6    O     O_R   0.746480 0.648000 0.663290 -0.540567
O7    O     O_R   0.246480 0.852000 0.663290 -0.539914
O8    O     O_R   0.753520 0.148000 0.336710 -0.549208
O9    O     O_R   0.083330 0.168380 0.337300 -0.534086
O10   O     O_R   0.916670 0.831620 0.662700 -0.536801
O11   O     O_R   0.416670 0.668380 0.662700 -0.534356
O12   O     O_R   0.583330 0.331620 0.337300 -0.534026
C1    C     C_R   0.432481 0.366441 0.365239 0.753458
C2    C     C_R   0.567656 0.633968 0.634636 0.752371
C3    C     C_R   0.067762 0.865095 0.633873 0.749429
C4    C     C_R   0.932228 0.134176 0.365669 0.744018
O13   O     O_R   0.195840 0.349670 0.165140 -0.537300
O14   O     O_R   0.804160 0.650330 0.834860 -0.536261
O15   O     O_R   0.304160 0.849670 0.834860 -0.538970
O16   O     O_R   0.695840 0.150330 0.165140 -0.530278
C5    C     C_R   0.357850 0.373378 0.139154 0.655651
C6    C     C_R   0.642475 0.627165 0.861385 0.649968
C7    C     C_R   0.142759 0.873299 0.861328 0.647060
C8    C     C_R   0.858110 0.124300 0.140914 0.680070
O17   O     O_3   0.387830 0.193120 0.250910 -0.375457
O18   O     O_3   0.612170 0.806880 0.749090 -0.375074
O19   O     O_3   0.112170 0.693120 0.749090 -0.372052
O20   O     O_3   0.887830 0.306880 0.250910 -0.373142
V1    V     V_3+5 0.113010 0.264540 0.250910 1.398208
V2    V     V_3+5 0.886990 0.735460 0.749090 1.399031
V3    V     V_3+5 0.386990 0.764540 0.749090 1.395782
V4    V     V_3+5 0.613010 0.235460 0.250910 1.392913
C9    C     C_R   0.938521 0.197743 0.541245 0.205945
C10   C     C_R   0.025662 0.800182 0.458349 0.203905
C11   C     C_R   0.525602 0.699701 0.460532 0.209815
C12   C     C_R   0.437536 0.301571 0.539955 0.197021
C13   C     C_R   0.935063 0.222808 0.624847 0.230903
C14   C     C_R   0.044876 0.774957 0.375688 0.269216
C15   C     C_R   0.547208 0.725989 0.378611 0.249569
C16   C     C_R   0.432916 0.275863 0.623185 0.247463
C17   C     C_R   0.945468 0.151857 0.685358 0.137979
C18   C     C_R   0.048791 0.846316 0.316216 0.138547
C19   C     C_R   0.557942 0.655271 0.318783 0.147745
C20   C     C_R   0.450693 0.345818 0.684329 0.118543
C21   C     C_R   0.978265 0.057466 0.664254 -0.237818
C22   C     C_R   0.025174 0.941635 0.336743 -0.264568
C23   C     C_R   0.532458 0.559396 0.338223 -0.242884
C24   C     C_R   0.484750 0.440306 0.664527 -0.250351
C25   C     C_R   0.992993 0.029617 0.582393 0.004852
C26   C     C_R   0.006813 0.970197 0.417990 0.001141
C27   C     C_R   0.509225 0.530151 0.418756 -0.007931
C28   C     C_R   0.495480 0.469251 0.582648 0.008478
C29   C     C_R   0.965449 0.099129 0.518751 -0.051649
C30   C     C_R   0.023154 0.900132 0.481119 -0.069869
C31   C     C_R   0.523571 0.599650 0.482332 -0.071382
C32   C     C_R   0.466440 0.400327 0.518367 -0.051029
C33   C     C_R   0.028398 0.932271 0.564304 -0.128532
C34   C     C_R   0.969049 0.067480 0.435684 -0.115621
C35   C     C_R   0.470076 0.432716 0.435589 -0.117969
C36   C     C_R   0.528503 0.566933 0.565094 -0.125277
H1    H     H_    0.992199 0.005860 0.713682 0.123546
H2    H     H_    0.020865 0.992888 0.287164 0.130868
H3    H     H_    0.531353 0.507876 0.288917 0.126500
H4    H     H_    0.501240 0.490749 0.715029 0.126717
H5    H     H_    0.092964 0.094711 0.034391 0.160399
H6    H     H_    0.888796 0.911315 0.957158 0.122205
H7    H     H_    0.369100 0.569570 0.944445 0.161559
H8    H     H_    0.620998 0.418953 0.047166 0.158664
C37   C     C_2   0.148201 0.950266 0.925088 0.112300
C38   C     C_2   0.854526 0.043026 0.081171 0.126246
C39   C     C_2   0.352614 0.449805 0.075724 0.098618
C40   C     C_2   0.650089 0.552995 0.926968 0.103623
C41   C     C_2   0.002438 0.961497 0.968463 -0.137073
C42   C     C_2   0.988920 0.038655 0.030416 -0.184319
C43   C     C_2   0.498600 0.462879 0.032731 -0.133738
C44   C     C_2   0.498118 0.532751 0.964256 -0.141908
N1    N     N_3   0.064302 0.820586 0.232642 -0.687475
H9    H     H_    0.172662 0.859918 0.212821 0.222961
H10   H     H_    0.942246 0.840818 0.196451 0.268755
N2    N     N_3   0.928657 0.177035 0.769260 -0.684798
H11   H     H_    0.933861 0.115708 0.805915 0.227983
H12   H     H_    0.796317 0.204922 0.771167 0.227613
N3    N     N_3   0.435175 0.319947 0.767678 -0.690393
H13   H     H_    0.332172 0.362124 0.788619 0.239945
H14   H     H_    0.560332 0.336492 0.802890 0.224256
N4    N     N_3   0.588511 0.682387 0.236944 -0.690558
H15   H     H_    0.604437 0.621963 0.200809 0.237106
H16   H     H_    0.470551 0.718271 0.210042 0.226178
N5    N     N_2   0.885884 0.267689 0.479362 -0.528129
H17   H     H_    0.747247 0.265485 0.458860 0.290249
C45   C     C_3   0.961932 0.363761 0.485099 -0.465218
H18   H     H_    0.984805 0.388470 0.422976 0.207517
H19   H     H_    0.094620 0.366714 0.525806 0.202163
H20   H     H_    0.862817 0.413686 0.508888 0.206499
N6    N     N_2   0.982441 0.729071 0.516271 -0.533417
H21   H     H_    0.857251 0.739554 0.537373 0.282270
C46   C     C_3   0.030726 0.628968 0.511652 -0.461318
H22   H     H_    0.032505 0.596004 0.573305 0.198481
H23   H     H_    0.169758 0.620324 0.492893 0.215386
H24   H     H_    0.925935 0.590594 0.468526 0.207079
N7    N     N_2   0.479065 0.770021 0.518397 -0.530979
H25   H     H_    0.351966 0.759750 0.537734 0.284432
C47   C     C_3   0.533823 0.869567 0.517084 -0.450996
H26   H     H_    0.539213 0.899947 0.579893 0.199690
H27   H     H_    0.430804 0.910894 0.475670 0.202992
H28   H     H_    0.672566 0.877258 0.497835 0.213282
N8    N     N_2   0.384048 0.232130 0.477642 -0.525018
H29   H     H_    0.244876 0.233715 0.458498 0.292228
C48   C     C_3   0.460608 0.136315 0.482913 -0.467988
H30   H     H_    0.484571 0.112182 0.420763 0.209383
H31   H     H_    0.361268 0.085771 0.505943 0.206586
H32   H     H_    0.592650 0.133538 0.524124 0.195893
N9    N     N_3   0.921707 0.321204 0.648404 -0.668462
H33   H     H_    0.807932 0.329759 0.680209 0.237680
H34   H     H_    0.039985 0.338683 0.688558 0.248137
N10   N     N_3   0.051344 0.676852 0.350429 -0.672326
H35   H     H_    0.173987 0.665783 0.324983 0.239437
H36   H     H_    0.941412 0.663781 0.304501 0.274550
N11   N     N_3   0.550342 0.824645 0.354753 -0.680959
H37   H     H_    0.437786 0.837784 0.310338 0.234287
H38   H     H_    0.671157 0.837850 0.328469 0.248246
N12   N     N_3   0.408136 0.177904 0.645629 -0.664207
H39   H     H_    0.529047 0.155183 0.681301 0.229567
H40   H     H_    0.301870 0.173889 0.682459 0.264542
N13   N     N_2   0.723160 0.966107 0.081904 -0.529242
H41   H     H_    0.665135 0.939330 0.026281 0.253705
C49   C     C_3   0.609959 0.955825 0.147985 -0.494485
H42   H     H_    0.556272 0.881415 0.148264 0.184595
H43   H     H_    0.489571 0.004995 0.138276 0.220123
H44   H     H_    0.692438 0.969306 0.208571 0.186938
N14   N     N_2   0.308760 0.009460 0.941115 -0.517580
H45   H     H_    0.428818 0.973156 0.934770 0.259435
C50   C     C_3   0.301097 0.097969 0.895123 -0.521209
H46   H     H_    0.431201 0.138965 0.912047 0.199751
H47   H     H_    0.184512 0.143075 0.909834 0.212788
H48   H     H_    0.286353 0.082862 0.828023 0.201677
N15   N     N_2   0.822137 0.507112 0.952657 -0.517733
H49   H     H_    0.933881 0.551706 0.949651 0.291924
C51   C     C_3   0.847159 0.416456 0.912871 -0.561615
H50   H     H_    0.739819 0.364452 0.926504 0.196445
H51   H     H_    0.984421 0.386220 0.936597 0.208465
H52   H     H_    0.841724 0.426496 0.845339 0.192692
N16   N     N_2   0.193357 0.509557 0.061763 -0.526404
H53   H     H_    0.073669 0.476311 0.074288 0.294204
C52   C     C_3   0.213993 0.602190 0.101323 -0.564533
H54   H     H_    0.086810 0.645098 0.084141 0.212703
H55   H     H_    0.332606 0.641913 0.081234 0.205814
H56   H     H_    0.234440 0.593383 0.169231 0.200992

loop_
_geom_bond_atom_site_label_1
_geom_bond_atom_site_label_2
_ccdc_geom_bond_type
C25   C29   A    
O1    C5    A    
N7    H25   S    
O13   V1    S    
C41   C42   S    
C7    C37   S    
O3    C7    A    
N6    H21   S    
C40   C44   D    
C20   N3    S    
O15   V3    S    
C46   H24   S    
C17   N2    S    
C46   H22   S    
C8    C38   S    
N1    H9    S    
H8    C43   S    
N15   C51   S    
C26   C30   A    
C22   H2    S    
O20   V1    S    
O9    C4    A    
C14   C18   A    
O10   C3    A    
C48   H31   S    
C23   H3    S    
O4    C8    A    
C51   H52   S    
N4    H16   S    
C24   H4    S    
C13   N9    S    
N16   H53   S    
C25   C33   A    
N10   H35   S    
C18   C22   A    
C28   C36   A    
C46   H23   S    
O16   C8    A    
C38   C42   D    
C50   H48   S    
N8    H29   S    
C37   C41   D    
O14   V2    S    
N5    C45   S    
C16   C20   A    
O5    C1    A    
O4    V1    S    
O9    V1    S    
O17   V4    S    
O7    C3    A    
N13   H41   S    
O11   V3    S    
O18   V3    S    
N7    C47   S    
C10   C14   A    
C31   C36   A    
O12   V4    S    
C12   N8    S    
C3    C33   S    
C6    C40   S    
C52   H55   S    
C52   H54   S    
O5    V1    S    
N1    H10   S    
C9    C29   A    
C51   H50   S    
O7    V3    S    
C11   C31   A    
C26   C34   A    
C12   C16   A    
C10   N6    S    
N2    H12   S    
C48   H32   S    
C45   H18   S    
O19   V2    S    
N4    H15   S    
C23   C27   A    
N14   C50   S    
H6    C41   S    
O1    V4    S    
C9    C13   A    
H5    C42   S    
O2    V3    S    
O8    V4    S    
O3    V2    S    
C11   C15   A    
C43   C44   S    
C49   H43   S    
O2    C6    A    
C12   C32   A    
C9    N5    S    
C45   H19   S    
C14   N10   S    
O10   V2    S    
N3    H13   S    
C21   C25   A    
C37   N14   S    
C47   H27   S    
C4    C34   S    
N11   H37   S    
N13   C49   S    
N11   H38   S    
C38   N13   S    
C40   N15   S    
N3    H14   S    
C5    C39   S    
C10   C30   A    
C50   H46   S    
C27   C35   A    
N12   H40   S    
N14   H45   S    
C52   H56   S    
C16   N12   S    
O15   C7    A    
C39   N16   S    
N9    H33   S    
O16   V4    S    
N16   C52   S    
O6    V2    S    
O14   C6    A    
C19   N4    S    
N2    H11   S    
C11   N7    S    
C15   C19   A    
C29   C34   A    
N6    C46   S    
C49   H42   S    
C1    C35   S    
C2    C36   S    
N15   H49   S    
C22   C26   A    
C32   C35   A    
N5    H17   S    
C49   H44   S    
O6    C2    A    
C48   H30   S    
C45   H20   S    
C39   C43   D    
C51   H51   S    
N8    C48   S    
C15   N11   S    
C21   H1    S    
O11   C2    A    
N10   H36   S    
C47   H28   S    
C27   C31   A    
C13   C17   A    
O13   C5    A    
C28   C32   A    
C24   C28   A    
O12   C1    A    
C18   N1    S    
O8    C4    A    
C47   H26   S    
C50   H47   S    
C17   C21   A    
H7    C44   S    
N12   H39   S    
C19   C23   A    
C20   C24   A    
N9    H34   S    
C30   C33   A    
