data_mof_unit_58155.cif
_audit_creation_date              2013-03-05T16:08:21-0500
_audit_creation_method            fapswitch 2.2
_symmetry_space_group_name_H-M    P1
_symmetry_Int_Tables_number       1
_space_group_crystal_system       triclinic
_cell_length_a                    6.973529
_cell_length_b                    14.568416
_cell_length_c                    16.064756
_cell_angle_alpha                 90.103024
_cell_angle_beta                  89.935845
_cell_angle_gamma                 89.930581
_cell_volume                      1632.06625385

loop_
_atom_site_label
_atom_site_type_symbol
_atom_site_description
_atom_site_fract_x
_atom_site_fract_y
_atom_site_fract_z
_atom_type_partial_charge
O1    O     O_R   0.505700 0.583890 0.413310 -0.594259
O2    O     O_R   0.175960 0.594920 0.586080 -0.594901
O3    O     O_R   0.005660 0.416110 0.586690 -0.584646
C1    C     C_R   0.344867 0.618487 0.613416 1.002736
O4    O     O_R   0.175980 0.594920 0.413930 -0.599091
O5    O     O_R   0.005680 0.416110 0.413310 -0.577880
C2    C     C_R   0.344805 0.617663 0.385887 0.977121
O6    O     O_R   0.505680 0.583890 0.586690 -0.586047
O7    O     O_3   0.339200 0.441330 0.500000 -0.267146
V1    V     V_3+5 0.064350 0.510880 0.500000 1.184701
O8    O     O_R   0.675960 0.405080 0.413920 -0.600086
C3    C     C_R   0.845057 0.382966 0.385333 0.968495
O9    O     O_R   0.675940 0.405080 0.586070 -0.579474
C4    C     C_R   0.844461 0.384433 0.615873 0.934719
V2    V     V_3+5 0.564340 0.489120 0.500000 1.195133
O10   O     O_3   0.839360 0.558670 0.500000 -0.292911
C5    C     C_R   0.015027 0.259995 0.694227 0.073063
C6    C     C_R   0.853475 0.315127 0.683464 -0.202610
C7    C     C_R   0.703145 0.303359 0.740374 -0.059893
H1    H     H_    0.581819 0.348189 0.737506 0.143143
C8    C     C_R   0.715459 0.238752 0.805335 -0.093721
H2    H     H_    0.601123 0.235825 0.850749 0.114857
C9    C     C_R   0.877738 0.181887 0.814210 -0.181602
C10   C     C_R   0.023568 0.190229 0.754142 0.116221
C11   C     C_3   0.232814 0.205919 0.768297 -0.365886
C12   C     C_3   0.215148 0.290218 0.711966 -0.393609
H3    H     H_    0.268122 0.220632 0.834443 0.159926
H4    H     H_    0.305126 0.290854 0.654828 0.191997
C13   C     C_R   0.735183 0.251960 0.186221 0.145326
C14   C     C_R   0.882308 0.186673 0.181873 -0.194307
C15   C     C_R   0.029327 0.193116 0.241870 -0.141929
H5    H     H_    0.148807 0.145718 0.240203 0.109356
C16   C     C_R   0.016897 0.256810 0.308056 -0.069806
H6    H     H_    0.127691 0.256883 0.355169 0.113880
C17   C     C_R   0.858091 0.316431 0.315629 -0.256714
C18   C     C_R   0.724454 0.315636 0.250597 0.151936
C19   C     C_3   0.510007 0.312944 0.251051 0.176743
C20   C     C_3   0.522705 0.242393 0.180770 -0.575509
H7    H     H_    0.448482 0.286439 0.310091 0.053314
H8    H     H_    0.466219 0.266838 0.120007 0.238642
H9    H     H_    0.473926 0.172847 0.199466 0.171700
C21   C     C_R   0.503533 0.682454 0.741030 0.170948
C22   C     C_R   0.352936 0.684489 0.683555 -0.233232
C23   C     C_R   0.204023 0.747922 0.698194 -0.193649
H10   H     H_    0.083136 0.751386 0.656238 0.126949
C24   C     C_R   0.216042 0.811820 0.764015 -0.027270
H11   H     H_    0.104035 0.862793 0.770477 0.139415
C25   C     C_R   0.375793 0.813246 0.817971 -0.284940
C26   C     C_R   0.513791 0.744439 0.807037 0.106259
C27   C     C_3   0.726331 0.751466 0.798810 0.172768
C28   C     C_3   0.714657 0.683806 0.726562 -0.580482
H12   H     H_    0.775269 0.821369 0.781029 0.057925
H13   H     H_    0.782188 0.615916 0.738471 0.237161
H14   H     H_    0.751688 0.714970 0.665551 0.169257
C29   C     C_R   0.502245 0.682056 0.258118 0.339139
C30   C     C_R   0.352873 0.684177 0.316176 -0.240788
C31   C     C_R   0.205387 0.748626 0.302607 -0.198769
H15   H     H_    0.084962 0.752383 0.344944 0.133729
C32   C     C_R   0.218379 0.813156 0.237387 -0.082752
H16   H     H_    0.107373 0.864735 0.231736 0.120693
C33   C     C_R   0.376834 0.813771 0.182433 -0.220571
C34   C     C_R   0.512421 0.743268 0.191727 0.129505
C35   C     C_3   0.726815 0.746245 0.196666 -0.425657
C36   C     C_3   0.713609 0.681410 0.270983 -0.538719
H17   H     H_    0.782690 0.815367 0.212979 0.148814
H18   H     H_    0.754023 0.714453 0.330832 0.178891
H19   H     H_    0.777264 0.612222 0.260972 0.239520
O11   O     O_R   0.229000 0.916070 0.913330 -0.542054
O12   O     O_R   0.558770 0.905070 0.086080 -0.611199
O13   O     O_R   0.729000 0.083900 0.086690 -0.602565
C37   C     C_R   0.389924 0.883173 0.114971 0.942832
O14   O     O_R   0.558720 0.905070 0.913930 -0.600468
O15   O     O_R   0.728960 0.083900 0.913310 -0.598028
C38   C     C_R   0.389646 0.882420 0.885675 1.036434
O16   O     O_R   0.229050 0.916070 0.086710 -0.568746
O17   O     O_3   0.395460 0.058650 0.000020 -0.282372
V3    V     V_3+5 0.670340 0.989120 0.000000 1.203663
O18   O     O_R   0.058670 0.094960 0.913900 -0.577524
C39   C     C_R   0.889965 0.116028 0.884481 0.945058
O19   O     O_R   0.058720 0.094960 0.086050 -0.602680
C40   C     C_R   0.889940 0.116725 0.114899 0.930618
V4    V     V_3+5 0.170330 0.010930 0.999970 1.222176
O20   O     O_3   0.895340 0.941350 0.999980 -0.228397
N1    N     N_R   0.824893 0.714064 0.871473 0.258735
O21   O     O_R   0.781558 0.633397 0.900725 -0.339102
O22   O     O_R   0.952757 0.763468 0.909406 -0.394703
C41   C     C_2   0.824164 0.702442 0.122727 1.189371
O23   O     O_2   0.759585 0.632289 0.091540 -0.550075
O24   O     O_R   0.993321 0.740641 0.092077 -0.774082
H20   H     H_    0.057582 0.700203 0.048890 0.362097
C42   C     C_2   0.348784 0.127722 0.732101 1.043924
O25   O     O_2   0.453318 0.139456 0.671832 -0.663114
O26   O     O_R   0.336163 0.041114 0.768394 -0.813761
H21   H     H_    0.420149 0.994345 0.738977 0.291743
C43   C     C_2   0.217998 0.380021 0.760139 1.057038
O27   O     O_2   0.137035 0.386546 0.827581 -0.601308
O28   O     O_R   0.310963 0.456060 0.726523 -0.808700
H22   H     H_    0.305339 0.511062 0.765144 0.320615
N2    N     N_R   0.423114 0.399272 0.223640 0.264300
O29   O     O_R   0.240782 0.402360 0.207003 -0.369600
O30   O     O_R   0.524399 0.473960 0.217866 -0.395257

loop_
_geom_bond_atom_site_label_1
_geom_bond_atom_site_label_2
_geom_bond_distance
_ccdc_geom_bond_type
C37   O16   1.301922 A    
C41   O23   1.223981 D    
C35   H17   1.111201 S    
O26   H21   1.013830 S    
C4    C6    1.485380 S    
O12   V3    2.005729 S    
C43   O27   1.224651 D    
C1    O6    1.301065 A    
O28   H22   1.013221 S    
C27   N1    1.461199 S    
C13   C18   1.389935 A    
C13   C14   1.399790 A    
C5    C12   1.491499 S    
C18   C19   1.496024 S    
C7    C8    1.409220 A    
C19   C20   1.527863 S    
N1    O22   1.298324 A    
O5    C3    1.300558 A    
C14   C15   1.411035 A    
C31   C32   1.411844 A    
V3    O20   1.715684 S    
O11   C38   1.299801 A    
V2    O10   2.170147 S    
C29   C34   1.393281 A    
C30   C31   1.409179 A    
C6    C7    1.401090 A    
O12   C37   1.305292 A    
O13   C40   1.302045 A    
O8    V2    2.001587 S    
C34   C35   1.497954 S    
C7    H1    1.069282 S    
C13   C20   1.491085 S    
C27   H12   1.112120 S    
C9    C10   1.406644 A    
C15   C16   1.412481 A    
O1    V2    2.004924 S    
O7    V1    2.166929 S    
C21   C28   1.490412 S    
C33   C37   1.486303 S    
C32   H16   1.082181 S    
O9    C4    1.304493 A    
O13   V3    2.002283 S    
C2    C30   1.483302 S    
C23   C24   1.410146 A    
C16   H6    1.082173 S    
O17   V3    2.166977 S    
C24   C25   1.412432 A    
C11   C42   1.511385 S    
C5    C10   1.402331 A    
C32   C33   1.413618 A    
C36   H19   1.112236 S    
C25   C38   1.484719 S    
C10   C11   1.494845 S    
C20   H9    1.110916 S    
O14   C38   1.306392 A    
O17   V4    1.717761 S    
C42   O25   1.223672 D    
O4    C2    1.303490 A    
O18   C39   1.304815 A    
C27   C28   1.523702 S    
C11   C12   1.531743 S    
C28   H13   1.111914 S    
C17   C18   1.400787 A    
C36   H18   1.111239 S    
O2    C1    1.303738 A    
C22   C23   1.408559 A    
O14   V3    2.003921 S    
C42   O26   1.393718 S    
O18   V4    2.005736 S    
N2    O29   1.300320 A    
C29   C36   1.488623 S    
C29   C30   1.397680 A    
C5    C6    1.393898 A    
O15   C39   1.301951 A    
N1    O21   1.302210 A    
C3    C17   1.482359 S    
O3    C4    1.302797 A    
O19   V4    2.001468 S    
C25   C26   1.399437 A    
N2    O30   1.301333 A    
V4    O20   2.170166 S    
O6    V2    2.000861 S    
O9    V2    2.005661 S    
C21   C22   1.399457 A    
O2    V1    2.003914 S    
C19   N2    1.464094 S    
C23   H10   1.081111 S    
C12   C43   1.519004 S    
C24   H11   1.081881 S    
C35   C41   1.507782 S    
O1    C2    1.302156 A    
C15   H5    1.081777 S    
O19   C40   1.303067 A    
O5    V1    2.002200 S    
O8    C3    1.304815 A    
C43   O28   1.393629 S    
O16   V4    2.006501 S    
C1    C22   1.481114 S    
C11   H3    1.111580 S    
C12   H4    1.111351 S    
C28   H14   1.111206 S    
O11   V4    2.001223 S    
C14   C40   1.481437 S    
C8    C9    1.409182 A    
O7    V2    1.718238 S    
O4    V1    2.005693 S    
C19   H7    1.110658 S    
O3    V1    2.005041 S    
V1    O10   1.715739 S    
C20   H8    1.112042 S    
C31   H15   1.081338 S    
C16   C17   1.411619 A    
C33   C34   1.403496 A    
C21   C26   1.393519 A    
C35   C36   1.526441 S    
C26   C27   1.491547 S    
C41   O24   1.394602 S    
O15   V3    2.005043 S    
C9    C39   1.485297 S    
O24   H20   1.013112 S    
C8    H2    1.081066 S    
