data_mof_unit_41698.cif
_audit_creation_date              2013-03-05T16:03:27-0500
_audit_creation_method            fapswitch 2.2
_symmetry_space_group_name_H-M    P1
_symmetry_Int_Tables_number       1
_space_group_crystal_system       triclinic
_cell_length_a                    6.953894
_cell_length_b                    18.227578
_cell_length_c                    20.300452
_cell_angle_alpha                 68.595507
_cell_angle_beta                  90.498008
_cell_angle_gamma                 90.401119
_cell_volume                      2395.54884594

loop_
_atom_site_label
_atom_site_type_symbol
_atom_site_description
_atom_site_fract_x
_atom_site_fract_y
_atom_site_fract_z
_atom_type_partial_charge
O1    O     O_R   0.488960 0.443750 0.941980 -0.560114
O2    O     O_R   0.823890 0.406510 0.087590 -0.568840
O3    O     O_R   0.999680 0.556250 0.058020 -0.537054
C1    C     C_R   0.655212 0.381381 0.113528 1.077869
O4    O     O_R   0.818360 0.434410 0.944340 -0.547025
O5    O     O_R   0.994110 0.584350 0.913750 -0.551501
C2    C     C_R   0.650022 0.423303 0.921540 1.029159
O6    O     O_R   0.494530 0.415650 0.086250 -0.590265
O7    O     O_3   0.662590 0.549160 0.990130 -0.226959
V1    V     V_3+5 0.935320 0.490880 0.001830 1.358189
O8    O     O_R   0.324180 0.593490 0.912410 -0.592007
C3    C     C_R   0.153226 0.620164 0.887565 1.054782
O9    O     O_R   0.329720 0.565590 0.055660 -0.562200
C4    C     C_R   0.162063 0.579294 0.076421 1.001341
V2    V     V_3+5 0.435990 0.509120 0.998170 1.333138
O10   O     O_3   0.158850 0.450840 0.009870 -0.250939
C5    C     C_3   0.035738 0.711376 0.306437 -0.253559
C6    C     C_3   0.225011 0.687603 0.279765 0.540386
H1    H     H_    0.958560 0.675874 0.355484 0.251826
H2    H     H_    0.455466 0.785920 0.276955 0.236432
C7    C     C_1   0.155852 0.626144 0.120838 -0.112465
C8    C     C_1   0.109231 0.878289 0.375157 -0.125646
C9    C     C_3   0.953439 0.736850 0.229943 0.395493
C10   C     C_3   0.141650 0.712397 0.204161 -0.324599
C11   C     C_3   0.035659 0.820081 0.213276 0.165544
C12   C     C_3   0.118743 0.795685 0.288633 -0.200116
C13   C     C_3   0.222949 0.796284 0.186970 0.433719
C14   C     C_3   0.309041 0.771557 0.262923 -0.240225
C15   C     C_1   0.150602 0.665177 0.158178 0.391616
C16   C     C_1   0.112709 0.841112 0.336183 0.335031
C17   C     C_R   0.021250 0.780502 0.875461 0.203388
C18   C     C_R   0.018243 0.857332 0.874960 0.346424
C19   C     C_R   0.056279 0.920541 0.813237 0.165961
C20   C     C_R   0.092615 0.908859 0.750170 0.181983
C21   C     C_R   0.099723 0.830512 0.748764 -0.078839
C22   C     C_R   0.083483 0.764729 0.814667 -0.095243
C23   C     C_R   0.119375 0.815869 0.684497 -0.120480
C24   C     C_R   0.154836 0.737622 0.687432 -0.100626
C25   C     C_R   0.177594 0.674184 0.754083 -0.099693
C26   C     C_R   0.135465 0.687054 0.817927 -0.108113
C27   C     C_R   0.173145 0.720195 0.624827 0.201268
C28   C     C_R   0.275472 0.654006 0.626382 0.375612
C29   C     C_R   0.315617 0.594906 0.691112 0.355754
C30   C     C_R   0.239521 0.599441 0.753112 0.213692
C31   C     C_R   0.537811 0.096672 0.251472 0.235880
C32   C     C_R   0.480577 0.088970 0.187831 0.357770
C33   C     C_R   0.519336 0.149226 0.123542 0.180760
C34   C     C_R   0.606636 0.218466 0.123579 0.204334
C35   C     C_R   0.614125 0.236419 0.186323 -0.081855
C36   C     C_R   0.589872 0.172991 0.252914 -0.088897
C37   C     C_R   0.648770 0.315004 0.183328 -0.125219
C38   C     C_R   0.680412 0.330248 0.246729 -0.093232
C39   C     C_R   0.677518 0.265657 0.313701 -0.097436
C40   C     C_R   0.623481 0.187358 0.317138 -0.142738
C41   C     C_R   0.720173 0.408515 0.245780 0.223200
C42   C     C_R   0.795226 0.419314 0.305635 0.363523
C43   C     C_R   0.800863 0.356883 0.369859 0.143936
C44   C     C_R   0.729309 0.282679 0.375250 0.134870
O11   O     O_R   0.770540 0.084530 0.414050 -0.583223
O12   O     O_R   0.445710 0.065660 0.555720 -0.542120
O13   O     O_R   0.270420 0.915650 0.586190 -0.593666
C45   C     C_R   0.613253 0.074841 0.580240 1.045373
O14   O     O_R   0.441140 0.093540 0.412470 -0.571372
O15   O     O_R   0.265820 0.943740 0.441930 -0.564755
C46   C     C_R   0.610857 0.119660 0.386842 1.065026
O16   O     O_R   0.775150 0.056440 0.558310 -0.548990
O17   O     O_3   0.602370 0.950960 0.510050 -0.262624
V3    V     V_3+5 0.329450 0.009140 0.498150 1.339674
O18   O     O_R   0.935790 0.934280 0.444060 -0.549133
C47   C     C_R   0.103391 0.922930 0.421537 1.044031
O19   O     O_R   0.940370 0.906390 0.587310 -0.574653
C48   C     C_R   0.109702 0.882382 0.614383 1.089874
V4    V     V_3+5 0.828810 0.990710 0.501460 1.337887
O20   O     O_3   0.105780 0.049100 0.489960 -0.239900
C49   C     C_3   0.720037 0.318542 0.712480 0.357036
C50   C     C_3   0.530656 0.288573 0.691044 0.143284
C51   C     C_1   0.617518 0.119065 0.626976 -0.080079
C52   C     C_1   0.644111 0.379913 0.874326 -0.093461
C53   C     C_3   0.806247 0.234576 0.732607 0.373524
C54   C     C_3   0.615840 0.205282 0.710466 -0.265815
C55   C     C_3   0.727184 0.212367 0.808461 0.215740
C56   C     C_3   0.644007 0.295855 0.789206 -0.358062
C57   C     C_3   0.537658 0.181579 0.787366 -0.234002
C58   C     C_3   0.456635 0.266084 0.767013 0.264354
C59   C     C_1   0.614939 0.157048 0.665241 0.405185
C60   C     C_1   0.644964 0.343113 0.835147 0.413933
H3    H     H_    0.462919 0.125977 0.818595 0.263316
Cl1   Cl    Cl    0.352068 0.598663 0.325044 -0.361980
N1    N     N_R   0.041568 0.998678 0.813162 0.318769
O21   O     O_R   0.169590 0.025343 0.845936 -0.258172
O22   O     O_R   0.895931 0.042170 0.781934 -0.326603
Cl2   Cl    Cl    0.146689 0.997065 0.678097 -0.577853
Cl3   Cl    Cl    0.028586 0.765316 0.549412 -0.591423
Cl4   Cl    Cl    0.336349 0.641532 0.546719 -0.348578
Cl5   Cl    Cl    0.196434 0.506933 0.821132 -0.533660
N2    N     N_R   0.864521 0.370570 0.431921 0.312925
O23   O     O_R   0.041653 0.391465 0.437003 -0.210541
O24   O     O_R   0.743687 0.365728 0.481932 -0.207575
Cl6   Cl    Cl    0.564350 0.005426 0.322960 -0.569993
Cl7   Cl    Cl    0.369696 0.000991 0.188388 -0.427881
N3    N     N_R   0.485376 0.138109 0.057796 0.311328
O25   O     O_R   0.547667 0.075348 0.048676 -0.171309
O26   O     O_R   0.407897 0.194177 0.004581 -0.273042
Cl8   Cl    Cl    0.757073 0.265813 0.050732 -0.556429
Cl9   Cl    Cl    0.659427 0.497677 0.175732 -0.528622
Cl10  Cl    Cl    0.867782 0.513897 0.302586 -0.417809
N4    N     N_R   0.701210 0.227484 0.444895 0.208001
O27   O     O_R   0.849628 0.206549 0.486991 -0.347974
O28   O     O_R   0.530530 0.223347 0.471726 -0.368891
N5    N     N_R   0.419302 0.329984 0.627080 0.316719
O29   O     O_R   0.358102 0.401009 0.614588 -0.154689
O30   O     O_R   0.381015 0.296399 0.581891 -0.235370
Cl11  Cl    Cl    0.837371 0.408074 0.660934 -0.294816
N6    N     N_R   0.271609 0.284567 0.789705 0.280437
O31   O     O_R   0.196486 0.353502 0.756923 -0.250668
O32   O     O_R   0.214437 0.243492 0.853379 -0.270356
N7    N     N_R   0.828657 0.169614 0.874458 0.314674
O33   O     O_R   0.858673 0.094537 0.892784 -0.189270
O34   O     O_R   0.857755 0.202384 0.920844 -0.243278
Cl12  Cl    Cl    0.033268 0.211586 0.705225 -0.438465
Cl13  Cl    Cl    0.344711 0.853047 0.107686 -0.313713
N8    N     N_R   0.929086 0.892000 0.175492 0.304228
O35   O     O_R   0.867251 0.905650 0.111495 -0.172220
O36   O     O_R   0.890825 0.941774 0.205920 -0.300475
Cl14  Cl    Cl    0.720475 0.714357 0.205548 -0.453640
Cl15  Cl    Cl    0.446977 0.511427 0.694010 -0.403625
Cl16  Cl    Cl    0.903998 0.711398 0.948560 -0.560713
Cl17  Cl    Cl    0.956274 0.876291 0.951836 -0.320829

loop_
_geom_bond_atom_site_label_1
_geom_bond_atom_site_label_2
_geom_bond_distance
_ccdc_geom_bond_type
C57   H3    1.108404 S    
C41   C42   1.396289 A    
O14   C46   1.308518 A    
N3    O25   1.301356 A    
C33   N3    1.438561 S    
V4    O20   2.166693 S    
C45   C51   1.451973 S    
C21   C22   1.438844 A    
C10   C13   1.543136 S    
C17   Cl16  1.759491 S    
C1    O6    1.300722 A    
C50   C58   1.536485 S    
C55   C56   1.541879 S    
C13   Cl13  1.781538 S    
C40   C46   1.502950 S    
C31   C32   1.403512 A    
C36   C40   1.437368 A    
C41   Cl9   1.775990 S    
C57   C58   1.550590 S    
C6    C10   1.542018 S    
C5    C12   1.552803 S    
O15   V3    1.973896 S    
C4    C7    1.451663 S    
C21   C23   1.431702 A    
C23   C24   1.428715 A    
C44   N4    1.418825 S    
N7    O34   1.300002 A    
O5    C3    1.296080 A    
C24   C25   1.431688 A    
V3    O20   1.703041 S    
V2    O10   2.166597 S    
C34   Cl8   1.763186 S    
C55   N7    1.459240 S    
C42   C43   1.383164 A    
O12   C45   1.296595 A    
C20   C21   1.439929 A    
C27   C28   1.395253 A    
C10   C15   1.484675 S    
N5    O29   1.299112 A    
O8    V2    2.009854 S    
C27   Cl3   1.759702 S    
C17   C18   1.397054 A    
C35   C37   1.430175 A    
C43   N2    1.436565 S    
N2    O24   1.301136 A    
C5    C6    1.550776 S    
N4    O27   1.301255 A    
O18   V4    1.967184 S    
O1    V2    1.965221 S    
O15   C47   1.300603 A    
N1    O22   1.299716 A    
C11   N8    1.458030 S    
O11   V4    2.004915 S    
C38   C41   1.444500 A    
C9    Cl14  1.778405 S    
C52   C60   1.213300 T    
C51   C59   1.214920 T    
N3    O26   1.301345 A    
C28   Cl4   1.768577 S    
O9    C4    1.299515 A    
N2    O23   1.301088 A    
N4    O28   1.300419 A    
C54   C57   1.561566 S    
C29   Cl15  1.762509 S    
C55   C57   1.546138 S    
N6    O31   1.299002 A    
N5    O30   1.300203 A    
N8    O35   1.300190 A    
C45   O16   1.304275 A    
C1    C37   1.490872 S    
C37   C38   1.427377 A    
C22   C26   1.441511 A    
C6    C14   1.552150 S    
C24   C27   1.424917 A    
C31   Cl6   1.773198 S    
C25   C26   1.431820 A    
O19   V4    2.009844 S    
H2    C14   1.110012 S    
C11   C12   1.537376 S    
C56   C60   1.482572 S    
O16   V4    1.982312 S    
C7    C15   1.215167 T    
C6    Cl1   1.781011 S    
O17   V3    2.148967 S    
C3    C26   1.497103 S    
O2    C1    1.300031 A    
C49   C50   1.541285 S    
C54   C59   1.484883 S    
C19   N1    1.428076 S    
C33   C34   1.396896 A    
C9    C10   1.541397 S    
C53   Cl12  1.780843 S    
C19   C20   1.397759 A    
C5    C9    1.554504 S    
C42   Cl10  1.772320 S    
O3    C4    1.300623 A    
C2    C52   1.448462 S    
C49   Cl11  1.781493 S    
O17   V4    1.712147 S    
O13   C48   1.301017 A    
C34   C35   1.426551 A    
C12   C16   1.484488 S    
O6    V2    2.009750 S    
C56   C58   1.534118 S    
O9    V2    1.967258 S    
C29   C30   1.399690 A    
C28   C29   1.389144 A    
N8    O36   1.300296 A    
O2    V1    2.012205 S    
C38   C39   1.437630 A    
O4    C2    1.296606 A    
O7    V1    2.148945 S    
C32   Cl7   1.770866 S    
C32   C33   1.392109 A    
C58   N6    1.452874 S    
C8    C16   1.215596 T    
O1    C2    1.300881 A    
C12   C14   1.550711 S    
C50   C54   1.543653 S    
O5    V1    2.011569 S    
N6    O32   1.299180 A    
C39   C44   1.435519 A    
C49   C56   1.554882 S    
C39   C40   1.450266 A    
C25   C30   1.438709 A    
C11   C13   1.535780 S    
O14   V3    2.012193 S    
C53   C55   1.547241 S    
C18   C19   1.383909 A    
C18   Cl17  1.774281 S    
O7    V2    1.715725 S    
O19   C48   1.304041 A    
C30   Cl5   1.772108 S    
V1    O10   1.702938 S    
N7    O33   1.298352 A    
O11   C46   1.299720 A    
O13   V3    2.011630 S    
C43   C44   1.404451 A    
C31   C36   1.445561 A    
C5    H1    1.110100 S    
C9    C11   1.536058 S    
O18   C47   1.300723 A    
C20   Cl2   1.775155 S    
C53   C54   1.547653 S    
O4    V1    1.982836 S    
O12   V3    1.982815 S    
C50   N5    1.459710 S    
C35   C36   1.432832 A    
C23   C48   1.496737 S    
C13   C14   1.555451 S    
O3    V1    1.974063 S    
C17   C22   1.436339 A    
N1    O21   1.300434 A    
C49   C53   1.555927 S    
C8    C47   1.452773 S    
O8    C3    1.312513 A    
