data_mof_unit_55161.cif
_audit_creation_date              2012-10-26T19:57:53-0400
_audit_creation_method            fapswitch 2.2
_symmetry_space_group_name_H-M    P1
_symmetry_Int_Tables_number       1
_space_group_crystal_system       triclinic
_cell_length_a                    7.506715
_cell_length_b                    8.662416
_cell_length_c                    12.955577
_cell_angle_alpha                 88.307546
_cell_angle_beta                  79.461543
_cell_angle_gamma                 103.062607
_cell_volume                      804.598774498

loop_
_atom_site_label
_atom_site_type_symbol
_atom_type_description
_atom_site_fract_x
_atom_site_fract_y
_atom_site_fract_z
_atom_type_partial_charge
C1    C     C_R   0.452466 0.199739 0.505237 0.525167
C2    C     C_R   0.716911 0.549997 0.113385 -0.026907
C3    C     C_R   0.594390 0.437352 0.859258 -0.016246
C4    C     C_R   0.386816 0.400015 0.143471 -0.024504
C5    C     C_R   0.575261 0.459084 0.966720 0.018169
C6    C     C_R   0.398110 0.409074 0.033022 0.025853
C7    C     C_2   0.426057 0.031359 0.509681 -0.171113
C8    C     C_2   0.573611 0.968462 0.495571 -0.168087
C9    C     C_3   0.222509 0.282436 0.214710 -0.243161
C10   C     C_3   0.285245 0.139876 0.256540 -0.283348
C11   C     C_3   0.122977 0.022575 0.327286 -0.430887
C12   C     C_R   0.547278 0.800181 0.497130 0.552665
C13   C     C_3   0.728214 0.338430 0.812631 -0.255592
C14   C     C_3   0.624630 0.178768 0.777151 -0.301613
C15   C     C_3   0.748907 0.064468 0.744895 -0.455652
C16   C     C_3   0.888514 0.645623 0.147603 -0.380161
C17   C     C_3   0.131717 0.241390 0.828007 -0.402857
C18   C     C_R   0.464246 0.478267 0.700747 0.544674
C19   C     C_R   0.531675 0.498166 0.298326 0.542285
C20   C     C_R   0.544809 0.483655 0.183874 0.017132
C21   C     C_R   0.439872 0.436533 0.814034 0.025568
C22   C     C_R   0.242980 0.356288 0.984839 -0.125147
C23   C     C_R   0.731814 0.526323 0.006999 -0.131673
C24   C     C_R   0.266505 0.359531 0.875330 -0.025372
Cu1   Cu    Cu3+1 0.686350 0.517570 0.488220 0.918339
Cu2   Cu    Cu3+1 0.313650 0.482430 0.511780 0.911492
H1    H     H_    0.102790 0.313283 0.028383 0.105195
H2    H     H_    0.341790 0.077359 0.188917 0.153134
H3    H     H_    0.397703 0.179501 0.301221 0.178394
H4    H     H_    0.149530 0.340673 0.278472 0.184119
H5    H     H_    0.109317 0.229766 0.174324 0.118846
H6    H     H_    0.871364 0.122201 0.683456 0.148263
H7    H     H_    0.794203 0.019718 0.814368 0.151852
H8    H     H_    0.668128 0.960233 0.712074 0.157248
H9    H     H_    0.510046 0.117879 0.842498 0.166183
H10   H     H_    0.561906 0.201031 0.708813 0.174374
H11   H     H_    0.832790 0.409223 0.747051 0.160250
H12   H     H_    0.864985 0.568349 0.953579 0.118224
H13   H     H_    0.801248 0.308704 0.874499 0.141371
H14   H     H_    0.997970 0.704618 0.079398 0.111962
H15   H     H_    0.851927 0.741159 0.196537 0.139096
H16   H     H_    0.951043 0.566838 0.191718 0.155070
H17   H     H_    0.205107 0.157723 0.784868 0.123959
H18   H     H_    0.019266 0.169234 0.889883 0.112276
H19   H     H_    0.072012 0.301355 0.771822 0.164124
H20   H     H_    0.934747 0.367920 0.576520 0.230110
H21   H     H_    0.065399 0.628427 0.420298 0.232629
H22   H     H_    0.284136 0.958893 0.523877 0.132721
H23   H     H_    0.715516 0.040904 0.482329 0.124760
H24   H     H_    0.067900 0.080033 0.397699 0.174520
H25   H     H_    0.009019 0.979410 0.283814 0.141345
H26   H     H_    0.171613 0.918807 0.353365 0.135754
N1    N     N_2   0.033570 0.455950 0.529530 -0.269749
N2    N     N_2   0.966430 0.544050 0.470470 -0.263776
O1    O     O_R   0.621060 0.286250 0.492350 -0.508500
O2    O     O_R   0.378940 0.713750 0.507650 -0.496310
O3    O     O_R   0.306310 0.256580 0.512240 -0.511754
O4    O     O_R   0.693690 0.743420 0.487760 -0.498502
O5    O     O_R   0.631800 0.512400 0.642670 -0.501730
O6    O     O_R   0.368200 0.487600 0.357330 -0.513539
O7    O     O_R   0.317060 0.482730 0.662570 -0.504921
O8    O     O_R   0.682940 0.517270 0.337430 -0.506021

loop_
_geom_bond_atom_site_label_1
_geom_bond_atom_site_label_2
_ccdc_geom_bond_type
C17   H17   S    
C18   O7    A    
C4    C20   A    
C1    O3    A    
C19   O6    A    
C18   C21   S    
C2    C16   S    
C9    C10   S    
C15   H8    S    
C13   H11   S    
C19   C20   S    
C3    C13   S    
C4    C9    S    
C8    C12   S    
C12   O4    A    
C7    H22   S    
C6    C22   A    
C1    O1    A    
C17   H18   S    
C7    C8    D    
C11   H24   S    
N1    N2    D    
C10   H3    S    
C12   O2    A    
C9    H4    S    
C16   H14   S    
H21   N2    S    
C16   H15   S    
H20   N1    S    
Cu2   O7    S    
C17   H19   S    
Cu1   O8    S    
C14   H10   S    
C5    C6    A    
Cu2   O3    S    
C22   C24   A    
C3    C21   A    
C17   C24   S    
C11   H25   S    
Cu1   O4    S    
C9    H5    S    
C19   O8    A    
C2    C20   A    
C23   H12   S    
Cu2   N1    S    
C16   H16   S    
C18   O5    A    
C14   H9    S    
Cu1   N2    S    
C4    C6    A    
C10   C11   S    
C21   C24   A    
C10   H2    S    
C2    C23   A    
C22   H1    S    
C14   C15   S    
C11   H26   S    
Cu1   O5    S    
C13   C14   S    
Cu1   Cu2   S    
C1    C7    S    
Cu2   O6    S    
C8    H23   S    
C15   H7    S    
C13   H13   S    
Cu1   O1    S    
Cu2   O2    S    
C15   H6    S    
C3    C5    A    
C5    C23   A    
