data_mof_unit_41788.cif
_audit_creation_date              2012-12-10T17:49:32-0500
_audit_creation_method            fapswitch 2.2
_symmetry_space_group_name_H-M    P1
_symmetry_Int_Tables_number       1
_space_group_crystal_system       triclinic
_cell_length_a                    14.748206
_cell_length_b                    14.835272
_cell_length_c                    15.871958
_cell_angle_alpha                 75.864697
_cell_angle_beta                  102.605571
_cell_angle_gamma                 115.527008
_cell_volume                      3013.36278579

loop_
_atom_site_label
_atom_site_type_symbol
_atom_type_description
_atom_site_fract_x
_atom_site_fract_y
_atom_site_fract_z
_atom_type_partial_charge
C1    C     C_R   0.880086 0.312377 0.515777 0.793364
C2    C     C_3   0.028810 0.413404 0.075257 -0.393034
C3    C     C_3   0.000171 0.499579 0.083195 0.189706
C4    C     C_3   0.078864 0.601637 0.042132 -0.384092
C5    C     C_3   0.075918 0.603733 0.943449 0.147436
C6    C     C_1   0.000495 0.499797 0.175380 -0.046786
C7    C     C_1   0.999378 0.499712 0.824596 0.032139
C8    C     C_1   0.999376 0.499888 0.749027 -0.091157
C9    C     C_R   0.811968 0.204578 0.531557 -0.047311
C10   C     C_R   0.187558 0.794867 0.487911 -0.054140
C11   C     C_R   0.784443 0.027041 0.577879 0.009495
C12   C     C_R   0.999756 0.499876 0.659518 0.812494
C13   C     C_R   0.849934 0.129307 0.561694 -0.276978
C14   C     C_R   0.707667 0.177825 0.518532 -0.244250
C15   C     C_R   0.639234 0.077183 0.539775 0.062798
C16   C     C_R   0.678161 0.000353 0.569021 0.131157
C17   C     C_R   0.532840 0.051109 0.530208 0.076555
C18   C     C_R   0.465718 0.947340 0.540691 0.072576
C19   C     C_R   0.506515 0.873632 0.575862 -0.232111
C20   C     C_R   0.610174 0.899859 0.591038 -0.166163
C21   C     C_R   0.491144 0.125046 0.511614 -0.209788
C22   C     C_R   0.387084 0.098022 0.495300 -0.215661
C23   C     C_R   0.119816 0.687588 0.487450 0.821971
C24   C     C_R   0.321020 0.997021 0.495017 0.156897
C25   C     C_R   0.359747 0.920736 0.517237 0.089685
C26   C     C_R   0.216480 0.971351 0.472153 -0.184393
C27   C     C_R   0.150038 0.870769 0.468858 -0.181888
C28   C     C_R   0.291521 0.820541 0.511548 -0.211545
C29   C     C_R   0.699654 0.637828 0.334710 -0.290563
C30   C     C_R   0.789384 0.625058 0.367567 0.092142
C31   C     C_R   0.716298 0.510062 0.491714 0.030169
C32   C     C_R   0.622897 0.520587 0.462433 -0.019222
C33   C     C_R   0.615842 0.584567 0.380902 0.165859
C34   C     C_R   0.000209 0.500081 0.340460 0.851166
C35   C     C_R   0.536450 0.469875 0.509562 0.077433
C36   C     C_R   0.447674 0.489901 0.476062 0.059014
C37   C     C_R   0.440513 0.541798 0.389302 -0.228065
C38   C     C_R   0.523878 0.591304 0.343990 -0.178351
C39   C     C_R   0.533869 0.398154 0.587122 -0.209119
C40   C     C_R   0.447626 0.349046 0.630104 -0.159531
C41   C     C_R   0.364293 0.375704 0.601887 0.142600
C42   C     C_R   0.365975 0.451583 0.527921 -0.086166
C43   C     C_R   0.280062 0.328812 0.647951 -0.294855
C44   C     C_R   0.199538 0.359516 0.622289 0.070003
C45   C     C_3   0.024632 0.409965 0.977625 0.154080
C46   C     C_R   0.287817 0.488638 0.511407 0.135440
C47   C     C_3   0.892824 0.485928 0.932946 -0.247268
C48   C     C_3   0.893392 0.483164 0.031856 -0.455164
C49   C     C_1   0.000527 0.499939 0.250909 -0.148572
C50   C     C_3   0.999572 0.499175 0.917120 0.090413
Cu1   Cu    Cu3+1 0.081750 0.475690 0.522550 0.989636
Cu2   Cu    Cu3+1 0.918250 0.524310 0.477450 0.954557
H1    H     H_    0.975621 0.339195 0.107093 0.151067
H2    H     H_    0.105953 0.425397 0.110729 0.217381
H3    H     H_    0.062516 0.665571 0.049856 0.155926
H4    H     H_    0.635593 0.839713 0.620824 0.200395
H5    H     H_    0.318192 0.761223 0.523066 0.146317
H6    H     H_    0.069667 0.852586 0.451175 0.165480
H7    H     H_    0.358342 0.156971 0.480777 0.152391
H8    H     H_    0.931040 0.150023 0.570499 0.149190
H9    H     H_    0.681323 0.237278 0.490213 0.156404
H10   H     H_    0.963430 0.336954 0.962790 0.102441
H11   H     H_    0.460008 0.794678 0.595560 0.147798
H12   H     H_    0.536727 0.204645 0.511338 0.143677
H13   H     H_    0.186255 0.029241 0.456105 0.140310
H14   H     H_    0.515755 0.633938 0.278836 0.158641
H15   H     H_    0.133648 0.321253 0.656720 0.141035
H16   H     H_    0.447477 0.291897 0.687686 0.158258
H17   H     H_    0.694979 0.687037 0.272479 0.144804
H18   H     H_    0.853212 0.663207 0.330618 0.127255
H19   H     H_    0.727264 0.460335 0.551257 0.129661
H20   H     H_    0.878457 0.553532 0.895183 0.183503
H21   H     H_    0.369464 0.542141 0.353808 0.188530
H22   H     H_    0.596194 0.375791 0.614494 0.149808
H23   H     H_    0.276268 0.268355 0.703371 0.153394
H24   H     H_    0.836929 0.409749 0.061594 0.178332
H25   H     H_    0.871032 0.543605 0.038459 0.185640
H26   H     H_    0.048479 0.662954 0.905497 0.117003
H27   H     H_    0.155802 0.612564 0.077608 0.219270
N1    N     N_R   0.795410 0.560790 0.443550 -0.182073
N2    N     N_R   0.204590 0.439170 0.556520 -0.196777
O1    O     O_R   0.977910 0.338120 0.529720 -0.596468
O2    O     O_R   0.839850 0.379180 0.491640 -0.592782
O3    O     O_R   0.069060 0.479460 0.639610 -0.567909
O4    O     O_R   0.931000 0.520530 0.601530 -0.577225
O5    O     O_R   0.160150 0.620820 0.508360 -0.562026
O6    O     O_R   0.022090 0.661880 0.470280 -0.589940
O7    O     O_R   0.069000 0.479470 0.398470 -0.520170
O8    O     O_R   0.930940 0.520540 0.360390 -0.593913
Br1   Br    Br    0.146041 0.400508 0.957430 -0.457464
C51   C     C_2   0.831976 0.952487 0.601668 0.329454
H28   H     H_    0.907737 0.973173 0.637532 0.075144
O9    O     O_2   0.790943 0.870750 0.576784 -0.541377
C52   C     C_2   0.307751 0.591274 0.460102 0.390258
H29   H     H_    0.376039 0.654224 0.479643 0.037900
O10   O     O_2   0.254525 0.605587 0.392170 -0.537564
C53   C     C_2   0.806640 0.393830 0.901390 0.382697
H30   H     H_    0.798155 0.318010 0.934589 0.070399
O11   O     O_2   0.744804 0.403955 0.838805 -0.536404
Br2   Br    Br    0.212443 0.652999 0.912440 -0.450286

loop_
_geom_bond_atom_site_label_1
_geom_bond_atom_site_label_2
_ccdc_geom_bond_type
C10   C27   A    
C41   C42   A    
C3    C48   S    
C36   C42   A    
C19   C20   A    
C9    C14   A    
C3    C6    S    
C53   H30   S    
C7    C8    T    
C13   H8    S    
C28   H5    S    
C25   C28   A    
C26   C27   A    
C29   C30   A    
C12   O4    A    
C36   C37   A    
C24   C26   A    
C15   C16   A    
C29   C33   A    
C45   H10   S    
C12   O3    A    
C18   C19   A    
C42   C46   A    
C39   H22   S    
C9    C13   A    
C21   H12   S    
C53   O11   D    
C38   H14   S    
C19   H11   S    
C23   O5    A    
C47   C48   S    
Cu1   N2    S    
C51   H28   S    
C8    C12   S    
C30   N1    A    
C31   H19   S    
C23   O6    A    
C21   C22   A    
C41   C43   A    
Cu2   O8    S    
C18   C25   A    
Cu1   O5    S    
C30   H18   S    
C47   C50   S    
C29   H17   S    
C2    C45   S    
C43   H23   S    
Cu1   Cu2   S    
C32   C35   A    
C31   N1    A    
C1    C9    S    
C24   C25   A    
C4    H27   S    
C44   N2    A    
C2    H2    S    
C22   H7    S    
C1    O1    A    
C14   H9    S    
C2    H1    S    
C17   C21   A    
C35   C36   A    
C48   H25   S    
Cu2   O2    S    
C35   C39   A    
C43   C44   A    
C37   C38   A    
C51   O9    D    
C46   N2    A    
C11   C16   A    
C31   C32   A    
C46   C52   S    
C5    Br2   S    
C16   C20   A    
C17   C18   A    
C34   O7    A    
C52   O10   D    
C45   Br1   S    
Cu1   O1    S    
C40   C41   A    
C4    H3    S    
C22   C24   A    
C5    C50   S    
C3    C4    S    
C39   C40   A    
C10   C28   A    
C15   C17   A    
C37   H21   S    
Cu2   O4    S    
C34   C49   S    
C26   H13   S    
Cu2   O6    S    
C7    C50   S    
C4    C5    S    
C27   H6    S    
Cu1   O7    S    
C10   C23   S    
C1    O2    A    
C33   C38   A    
C47   C53   S    
C32   C33   A    
C2    C3    S    
C34   O8    A    
C11   C13   A    
C45   C50   S    
C20   H4    S    
C6    C49   T    
C52   H29   S    
C47   H20   S    
C48   H24   S    
C11   C51   S    
C40   H16   S    
C14   C15   A    
C44   H15   S    
C5    H26   S    
Cu2   N1    S    
Cu1   O3    S    
