data_mof_unit_9747.cif
_audit_creation_date              2013-03-05T16:48:20-0500
_audit_creation_method            fapswitch 2.2
_symmetry_space_group_name_H-M    P1
_symmetry_Int_Tables_number       1
_space_group_crystal_system       triclinic
_cell_length_a                    15.053202
_cell_length_b                    10.88307
_cell_length_c                    13.779869
_cell_angle_alpha                 90.33073
_cell_angle_beta                  91.421214
_cell_angle_gamma                 88.015859
_cell_volume                      2255.41294375

loop_
_atom_site_label
_atom_site_type_symbol
_atom_site_description
_atom_site_fract_x
_atom_site_fract_y
_atom_site_fract_z
_atom_type_partial_charge
O1    O     O_R   0.500000 0.319630 0.582270 -0.619234
O2    O     O_R   0.500000 0.680370 0.417730 -0.611798
O3    O     O_R   0.499990 0.319660 0.417730 -0.580118
O4    O     O_R   0.500010 0.680340 0.582270 -0.569958
C1    C     C_R   0.497899 0.262426 0.499322 0.818915
C2    C     C_R   0.501032 0.737779 0.500940 0.812338
O5    O     O_R   0.370260 0.499960 0.582280 -0.608142
O6    O     O_R   0.629740 0.500040 0.417720 -0.607881
O7    O     O_R   0.370250 0.499990 0.417740 -0.585220
O8    O     O_R   0.629750 0.500010 0.582260 -0.550597
C3    C     C_R   0.328932 0.495341 0.499186 0.801573
C4    C     C_R   0.670885 0.503818 0.500664 0.795304
Cu1   Cu    Cu3+1 0.500010 0.499980 0.597420 0.972866
Cu2   Cu    Cu3+1 0.499990 0.500020 0.402580 0.956146
C5    C     C_R   0.811329 0.591174 0.442588 -0.057835
C6    C     C_R   0.188849 0.410660 0.564364 -0.044246
C7    C     C_R   0.767367 0.506421 0.500349 -0.104125
C8    C     C_R   0.232331 0.485086 0.497393 -0.090878
C9    C     C_R   0.815129 0.417832 0.554252 -0.108716
C10   C     C_R   0.183673 0.554088 0.428534 -0.106993
C11   C     C_R   0.907285 0.412752 0.553994 0.061338
C12   C     C_R   0.091571 0.557342 0.428126 0.068642
C13   C     C_R   0.952777 0.491580 0.493341 0.007225
C14   C     C_R   0.046470 0.484184 0.493507 0.010522
C15   C     C_R   0.904654 0.576396 0.431768 0.018093
C16   C     C_R   0.094775 0.402997 0.557984 0.024576
C17   C     C_R   0.953916 0.324642 0.609942 -0.167497
C18   C     C_R   0.044314 0.630794 0.360673 -0.186864
C19   C     C_R   0.046358 0.316735 0.611122 0.407934
C20   C     C_R   0.951905 0.639040 0.360158 0.407355
H1    H     H_    0.780085 0.351626 0.596001 0.157239
H2    H     H_    0.217902 0.610221 0.377551 0.126779
H3    H     H_    0.917983 0.259251 0.651714 0.204567
H4    H     H_    0.079545 0.680504 0.306419 0.196592
C21   C     C_R   0.335685 0.223812 0.213399 -0.181515
C22   C     C_R   0.629965 0.788781 0.812312 -0.230338
C23   C     C_R   0.363635 0.179389 0.306419 0.416314
C24   C     C_R   0.615150 0.830275 0.715407 0.395255
C25   C     C_R   0.446863 0.116600 0.318411 -0.045212
C26   C     C_R   0.532176 0.884801 0.687326 -0.052833
C27   C     C_R   0.499212 0.093125 0.237517 -0.317372
C28   C     C_R   0.465249 0.899539 0.755413 -0.346586
H5    H     H_    0.561946 0.041883 0.245902 0.215236
H6    H     H_    0.401959 0.943209 0.734259 0.220529
C29   C     C_R   0.469864 0.129330 0.145233 0.437679
C30   C     C_R   0.479848 0.863128 0.851267 0.418401
C31   C     C_R   0.388875 0.195653 0.132377 0.247861
C32   C     C_R   0.561950 0.808372 0.880580 0.254324
C33   C     C_R   0.481794 0.933536 0.416349 -0.201269
C34   C     C_R   0.514298 0.067251 0.585445 -0.207410
H7    H     H_    0.468154 0.882362 0.350530 0.209533
H8    H     H_    0.528188 0.118484 0.651557 0.159359
C35   C     C_R   0.501064 0.871788 0.503292 -0.075268
C36   C     C_R   0.495336 0.128759 0.498166 -0.064985
C37   C     C_R   0.516198 0.939867 0.589822 0.123548
C38   C     C_R   0.476052 0.060921 0.412702 0.106180
C39   C     C_R   0.565303 0.433867 0.795499 0.112679
C40   C     C_R   0.437006 0.568331 0.203424 0.125787
N1    N     N_R   0.499960 0.499900 0.743810 -0.213503
N2    N     N_R   0.500040 0.500100 0.256190 -0.216828
C41   C     C_R   0.430578 0.553053 0.791595 0.014416
C42   C     C_R   0.561122 0.428695 0.209250 0.008246
C43   C     C_R   0.424974 0.546520 0.894299 -0.057017
C44   C     C_R   0.562742 0.424102 0.106266 -0.078625
C45   C     C_R   0.494283 0.485249 0.948420 0.137991
C46   C     C_R   0.493926 0.485526 0.051760 0.136944
C47   C     C_R   0.562657 0.421213 0.899012 -0.099824
C48   C     C_R   0.425608 0.549607 0.100983 -0.057038
C49   C     C_R   0.349129 0.592513 0.943317 -0.016903
C50   C     C_R   0.629481 0.355892 0.057299 -0.035351
C51   C     C_R   0.348688 0.592786 0.046646 -0.000596
C52   C     C_R   0.625174 0.345645 0.954471 0.006700
H9    H     H_    0.379473 0.600373 0.748543 0.127348
H10   H     H_    0.609668 0.377616 0.253301 0.129474
C53   C     C_2   0.760747 0.702540 0.406903 0.540887
H11   H     H_    0.694399 0.696291 0.375428 0.082589
O9    O     O_2   0.791641 0.804244 0.417051 -0.440953
C54   C     C_2   0.242409 0.349050 0.642931 0.527474
H12   H     H_    0.300177 0.291371 0.625426 0.100399
O10   O     O_2   0.224938 0.367866 0.727969 -0.454393
C55   C     C_2   0.642421 0.382777 0.743916 0.402221
H13   H     H_    0.634271 0.312642 0.688688 0.058995
O11   O     O_2   0.716751 0.418423 0.763849 -0.487487
C56   C     C_2   0.392879 0.676936 0.249182 0.368264
H14   H     H_    0.363464 0.672634 0.319334 0.093954
O12   O     O_2   0.389687 0.775715 0.207328 -0.485602
C57   C     C_2   0.268398 0.632727 0.885953 0.544934
H15   H     H_    0.272469 0.702217 0.830285 0.067661
O13   O     O_2   0.197190 0.585741 0.898901 -0.437908
C58   C     C_2   0.700731 0.289239 0.114420 0.494627
H16   H     H_    0.683731 0.223118 0.169004 0.057761
O14   O     O_2   0.778701 0.311533 0.103134 -0.423395
C59   C     C_2   0.265521 0.628021 0.097947 0.519133
H17   H     H_    0.247477 0.577318 0.161690 0.025983
O15   O     O_2   0.218820 0.716526 0.072354 -0.427325
C60   C     C_2   0.672456 0.238722 0.908018 0.516712
H18   H     H_    0.636983 0.183215 0.855128 0.039574
O16   O     O_2   0.750742 0.213402 0.925814 -0.427994
Cl1   Cl    Cl    0.093910 0.184893 0.669112 -0.460574
Cl2   Cl    Cl    0.901108 0.712485 0.258030 -0.475351
Cl3   Cl    Cl    0.354806 0.241113 0.013770 -0.522336
Cl4   Cl    Cl    0.578535 0.766285 0.003641 -0.518250
C61   C     C_2   0.250822 0.296448 0.198729 0.487571
H19   H     H_    0.218799 0.302246 0.127515 0.145925
O17   O     O_2   0.216512 0.354020 0.265012 -0.507279
C62   C     C_2   0.715804 0.727774 0.844421 0.586348
H20   H     H_    0.734329 0.723000 0.920829 0.132935
O18   O     O_2   0.766401 0.679169 0.786760 -0.417416
Cl5   Cl    Cl    0.291749 0.188724 0.406109 -0.579256
Cl6   Cl    Cl    0.700971 0.824561 0.630048 -0.521820
Cl7   Cl    Cl    0.535141 0.085259 0.046281 -0.531660
Cl8   Cl    Cl    0.393906 0.890961 0.933763 -0.428176

loop_
_geom_bond_atom_site_label_1
_geom_bond_atom_site_label_2
_geom_bond_distance
_ccdc_geom_bond_type
C46   C48   1.408372 A    
C57   H15   1.084599 S    
C43   C45   1.417152 A    
C3    C8    1.461867 S    
C59   H17   1.085177 S    
C31   Cl3   1.768952 S    
C30   Cl8   1.760556 S    
C17   C19   1.390924 A    
C5    C53   1.488268 S    
C53   H11   1.083099 S    
C21   C31   1.415955 A    
C33   H7    1.080647 S    
C55   H13   1.082589 S    
C25   C27   1.398267 A    
C50   C58   1.485580 S    
C17   H3    1.084983 S    
O5    C3    1.291046 A    
C34   C36   1.398250 A    
O1    C1    1.298611 A    
C9    C11   1.386509 A    
C56   O12   1.221807 D    
C21   C61   1.488878 S    
C54   O10   1.221887 D    
C5    C15   1.419904 A    
C62   H20   1.083558 S    
C40   N2    1.379730 A    
C20   Cl2   1.766748 S    
N2    C42   1.357175 A    
C47   C52   1.436676 A    
C28   C30   1.391261 A    
O4    Cu1   1.975140 S    
C49   C51   1.424028 A    
C42   C44   1.420489 A    
C43   C49   1.416016 A    
C45   C47   1.410029 A    
C60   O16   1.220157 D    
C4    C7    1.453741 S    
C34   H8    1.085036 S    
C13   C14   1.409831 A    
C44   C50   1.411326 A    
C24   Cl6   1.767842 S    
C23   Cl5   1.769998 S    
C49   C57   1.487529 S    
C29   C31   1.403034 A    
C11   C17   1.393445 A    
C9    H1    1.083769 S    
C59   O15   1.221099 D    
C12   C18   1.394780 A    
Cu1   Cu2   2.684866 S    
C27   H5    1.083980 S    
O2    C2    1.302637 A    
C28   H6    1.083960 S    
C39   C47   1.435479 A    
C55   O11   1.221256 D    
C36   C38   1.415659 A    
C35   C37   1.417956 A    
C6    C16   1.421968 A    
C30   C32   1.404536 A    
N1    C41   1.359009 A    
C19   Cl1   1.767329 S    
C22   C62   1.490591 S    
C1    C36   1.456540 S    
C56   H14   1.075137 S    
O4    C2    1.287092 A    
C54   H12   1.085949 S    
C41   H9    1.078155 S    
C44   C46   1.415384 A    
O7    Cu2   1.969298 S    
C40   C56   1.481094 S    
O7    C3    1.298635 A    
C58   O14   1.220589 D    
C25   C38   1.486881 S    
O6    C4    1.287539 A    
C26   C37   1.485098 S    
C32   Cl4   1.768557 S    
C60   H18   1.085903 S    
C41   C43   1.422182 A    
C61   O17   1.219817 D    
C53   O9    1.221306 D    
O3    Cu2   1.975140 S    
O8    C4    1.298551 A    
C51   C59   1.490514 S    
C40   C48   1.432043 A    
C10   C12   1.385538 A    
C11   C13   1.407428 A    
C12   C14   1.408037 A    
O1    Cu1   1.972638 S    
C2    C35   1.458628 S    
C22   C24   1.421979 A    
C6    C54   1.483033 S    
C10   H2    1.084872 S    
C15   C20   1.421483 A    
C5    C7    1.413888 A    
O6    Cu2   1.959119 S    
C21   C23   1.421295 A    
C14   C16   1.425266 A    
O3    C1    1.290073 A    
O8    Cu1   1.969299 S    
C29   Cl7   1.755319 S    
Cu1   N1    2.017258 S    
C33   C38   1.387169 A    
Cu2   N2    2.017259 S    
C34   C37   1.387264 A    
C18   C20   1.390687 A    
C23   C25   1.412673 A    
C24   C26   1.410427 A    
C58   H16   1.085172 S    
C62   O18   1.220051 D    
C48   C51   1.430230 A    
C33   C35   1.396296 A    
C26   C28   1.398194 A    
C7    C9    1.389944 A    
C22   C32   1.417387 A    
C8    C10   1.391562 A    
C13   C15   1.424413 A    
O2    Cu2   1.972638 S    
C39   C55   1.467549 S    
C39   N1    1.383294 A    
C18   H4    1.084925 S    
C52   C60   1.492337 S    
O5    Cu1   1.959119 S    
C16   C19   1.424950 A    
C6    C8    1.418255 A    
C45   C46   1.424143 A    
C61   H19   1.083730 S    
C57   O13   1.220979 D    
C27   C29   1.390464 A    
C42   H10   1.079482 S    
C50   C52   1.420738 A    
