data_mof_unit_65286.cif
_audit_creation_date              2013-03-05T16:13:09-0500
_audit_creation_method            fapswitch 2.2
_symmetry_space_group_name_H-M    P1
_symmetry_Int_Tables_number       1
_space_group_crystal_system       triclinic
_cell_length_a                    15.919318
_cell_length_b                    15.939816
_cell_length_c                    14.694532
_cell_angle_alpha                 90.231003
_cell_angle_beta                  90.388023
_cell_angle_gamma                 90.077184
_cell_volume                      3728.63285224

loop_
_atom_site_label
_atom_site_type_symbol
_atom_site_description
_atom_site_fract_x
_atom_site_fract_y
_atom_site_fract_z
_atom_type_partial_charge
O1    O     O_R   0.499910 0.379360 0.575970 -0.548295
O2    O     O_R   0.500090 0.379510 0.424100 -0.544724
C1    C     C_R   0.500031 0.340054 0.499881 0.810565
O3    O     O_R   0.378990 0.499920 0.575920 -0.544490
O4    O     O_R   0.379170 0.500070 0.424050 -0.560518
C2    C     C_R   0.339637 0.499995 0.499690 0.817125
Cu1   Cu    Cu3+1 0.499890 0.499910 0.589920 1.162159
Cu2   Cu    Cu3+1 0.500110 0.500090 0.410080 1.138936
O5    O     O_R   0.499910 0.620490 0.575900 -0.547366
O6    O     O_R   0.500090 0.620640 0.424030 -0.559786
O7    O     O_R   0.620830 0.499930 0.575950 -0.552513
O8    O     O_R   0.621010 0.500080 0.424080 -0.560784
C3    C     C_R   0.499954 0.659953 0.500204 0.805392
C4    C     C_R   0.660374 0.499976 0.500330 0.817003
C5    C     C_3   0.972696 0.422407 0.516385 0.184223
C6    C     C_3   0.027591 0.448455 0.435382 0.333754
H1    H     H_    0.946694 0.548718 0.352242 0.245989
C7    C     C_1   0.250388 0.500066 0.499239 -0.011692
C8    C     C_1   0.749647 0.499760 0.500983 -0.032208
C9    C     C_3   0.028377 0.473783 0.581234 0.123944
C10   C     C_3   0.083897 0.500173 0.500892 -0.209912
C11   C     C_3   0.971785 0.551159 0.567189 0.303667
C12   C     C_3   0.916118 0.499231 0.501363 -0.173519
C13   C     C_3   0.026692 0.576684 0.485933 0.214550
C14   C     C_3   0.970414 0.526294 0.419048 -0.274323
C15   C     C_1   0.175190 0.500151 0.499694 0.232290
C16   C     C_1   0.824861 0.499502 0.501249 0.207545
C17   C     C_3   0.520490 0.051894 0.608928 0.356306
C18   C     C_3   0.574276 0.049846 0.438921 0.399446
C19   C     C_3   0.560246 0.950136 0.427285 0.499185
C20   C     C_1   0.499597 0.749056 0.501144 0.024845
C21   C     C_3   0.501687 0.083468 0.506167 -0.438520
C22   C     C_3   0.533107 0.950386 0.604781 0.341939
C23   C     C_3   0.498884 0.916502 0.506750 -0.431016
C24   C     C_3   0.404637 0.949734 0.490429 0.379374
C25   C     C_3   0.410423 0.049273 0.474781 0.467373
C26   C     C_1   0.499188 0.824230 0.503404 0.299685
C27   C     C_1   0.501029 0.175804 0.502282 0.314429
C28   C     C_1   0.500485 0.250968 0.500072 0.039568
C29   C     C_3   0.538539 0.579113 0.056411 0.052722
C30   C     C_3   0.407537 0.488567 0.052651 0.009572
C31   C     C_3   0.404076 0.498537 0.944027 0.428396
H2    H     H_    0.376875 0.543638 0.083831 0.220740
N1    N     N_1   0.501700 0.501390 0.724970 -0.111917
C32   C     C_3   0.500157 0.493734 0.092288 -0.429253
C33   C     C_3   0.543377 0.581389 0.948571 0.523700
C34   C     C_3   0.499485 0.499357 0.907556 -0.442231
C35   C     C_3   0.549277 0.417905 0.944859 0.465499
C36   C     C_3   0.558056 0.419092 0.055384 0.341378
C37   C     C_1   0.501000 0.500827 0.804539 0.516087
C38   C     C_1   0.498820 0.496811 0.195445 0.471777
N2    N     N_1   0.498280 0.498620 0.275030 -0.116090
H3    H     H_    0.602809 0.586261 0.084808 0.223939
Cl1   Cl    Cl    0.063900 0.379679 0.348355 -0.315919
N3    N     N_R   0.658313 0.076780 0.473942 0.197364
O9    O     O_R   0.721841 0.026584 0.483635 -0.125248
O10   O     O_R   0.674798 0.156789 0.479241 -0.233048
Cl2   Cl    Cl    0.654603 0.887709 0.415498 -0.307900
Cl3   Cl    Cl    0.519954 0.924445 0.315414 -0.248911
Cl4   Cl    Cl    0.324278 0.106452 0.524649 -0.291191
Cl5   Cl    Cl    0.388347 0.078004 0.358262 -0.248441
N4    N     N_R   0.349855 0.923671 0.567177 0.183878
O11   O     O_R   0.330602 0.972267 0.634891 -0.181452
O12   O     O_R   0.318882 0.847886 0.568124 -0.188572
N5    N     N_R   0.453084 0.081944 0.671202 0.191951
O13   O     O_R   0.438078 0.044617 0.747803 -0.125242
O14   O     O_R   0.432913 0.161077 0.669531 -0.227615
N6    N     N_R   0.497285 0.907125 0.685302 0.203734
O15   O     O_R   0.532282 0.920359 0.764611 -0.110912
O16   O     O_R   0.451848 0.839642 0.677731 -0.243881
Cl6   Cl    Cl    0.352443 0.898904 0.393703 -0.264298
Cl7   Cl    Cl    0.502484 0.677562 0.901212 -0.252774
N7    N     N_R   0.945222 0.336751 0.533858 0.210886
O17   O     O_R   0.000645 0.277975 0.546234 -0.165362
O18   O     O_R   0.865681 0.318549 0.537549 -0.232117
Cl8   Cl    Cl    0.486450 0.669015 0.105718 -0.347374
N8    N     N_R   0.358892 0.416855 0.087675 0.197471
O19   O     O_R   0.301985 0.429962 0.149308 -0.228137
O20   O     O_R   0.367768 0.341109 0.055947 -0.138794
N9    N     N_R   0.359188 0.576208 0.916789 0.178710
O21   O     O_R   0.347634 0.591820 0.830611 -0.224828
O22   O     O_R   0.318796 0.622745 0.974874 -0.196940
Cl9   Cl    Cl    0.339585 0.418934 0.889445 -0.278959
N10   N     N_R   0.645210 0.433668 0.089875 0.141099
O23   O     O_R   0.701656 0.475569 0.045635 -0.211480
O24   O     O_R   0.664121 0.411233 0.172665 -0.250276
N11   N     N_R   0.534231 0.335878 0.092647 0.207673
O25   O     O_R   0.577242 0.270616 0.066776 -0.123757
O26   O     O_R   0.495140 0.329627 0.169868 -0.246266
Cl10  Cl    Cl    0.648101 0.402301 0.887843 -0.290072
Cl11  Cl    Cl    0.650446 0.592874 0.913191 -0.323420
Cl12  Cl    Cl    0.498695 0.323544 0.903698 -0.271029
N12   N     N_R   0.054362 0.662388 0.469150 0.206590
O27   O     O_R   0.999042 0.721137 0.456119 -0.184790
O28   O     O_R   0.133930 0.680727 0.466864 -0.245489
Cl13  Cl    Cl    0.935646 0.619763 0.654536 -0.294287
N13   N     N_R   0.057223 0.444216 0.669799 0.213797
O29   O     O_R   0.002756 0.422933 0.731103 -0.166195
O30   O     O_R   0.137047 0.438971 0.688186 -0.227418
Cl14  Cl    Cl    0.642865 0.921842 0.616240 -0.287865
Cl15  Cl    Cl    0.612161 0.102555 0.658464 -0.258735
Cl16  Cl    Cl    0.572084 0.102040 0.328790 -0.258099

loop_
_geom_bond_atom_site_label_1
_geom_bond_atom_site_label_2
_geom_bond_distance
_ccdc_geom_bond_type
N3    O9    1.297843 A    
C31   N9    1.485302 S    
C6    C10   1.545840 S    
C23   C26   1.471436 S    
N7    O18   1.300221 A    
C30   C31   1.605287 S    
C36   N11   1.486729 S    
C24   C25   1.606734 S    
C7    C15   1.197177 T    
C10   C15   1.453540 S    
N13   O29   1.300260 A    
Cu1   Cu2   2.642705 S    
N8    O19   1.301798 A    
Cu1   O7    1.937577 S    
N12   O27   1.300215 A    
C21   C25   1.614729 S    
C36   N10   1.491463 S    
N10   O24   1.302837 A    
C18   C21   1.616131 S    
C30   N8    1.476124 S    
O4    C2    1.281000 A    
O7    C4    1.280835 A    
C32   C38   1.516726 S    
C5    C6    1.539471 S    
C23   C24   1.608556 S    
N7    O17   1.300266 A    
O5    C3    1.280079 A    
N4    O12   1.304295 A    
C17   Cl15  1.813654 S    
C9    N13   1.457440 S    
N6    O15   1.304599 A    
N5    O14   1.302299 A    
C12   C16   1.452762 S    
C18   C19   1.612926 S    
C8    C16   1.197343 T    
Cu2   N2    1.984556 S    
C33   Cl7   1.806447 S    
C5    C12   1.536859 S    
C1    C28   1.420053 S    
N12   O28   1.300255 A    
C35   Cl10  1.804436 S    
C30   H2    1.104407 S    
C5    C9    1.531236 S    
O3    Cu1   1.934222 S    
N13   O30   1.300235 A    
C34   C37   1.514420 S    
N8    O20   1.300738 A    
C29   C32   1.584715 S    
C2    C7    1.420746 S    
C19   C23   1.619949 S    
C38   N2    1.169794 T    
C17   C21   1.619714 S    
C13   C14   1.547109 S    
N9    O22   1.302251 A    
C33   Cl11  1.794702 S    
C18   N3    1.492052 S    
C20   C26   1.198615 T    
O1    C1    1.279468 A    
C29   C33   1.587610 S    
N4    O11   1.297151 A    
C34   C35   1.617729 S    
C32   C36   1.601177 S    
Cu2   O8    1.934225 S    
C19   Cl3   1.805853 S    
C22   C23   1.626638 S    
Cu1   N1    1.984554 S    
N10   O23   1.298433 A    
O3    C2    1.279750 A    
C35   C36   1.629206 S    
C5    N7    1.457432 S    
C9    C11   1.542048 S    
C17   C22   1.631648 S    
N5    O13   1.298748 A    
C21   C27   1.473209 S    
N11   O26   1.301963 A    
C11   C13   1.540250 S    
C25   Cl5   1.806509 S    
N1    C37   1.169433 T    
C6    C14   1.558223 S    
Cu1   O5    1.933857 S    
C33   C34   1.595840 S    
O1    Cu1   1.931627 S    
C11   Cl13  1.781734 S    
C4    C8    1.421137 S    
C3    C20   1.420315 S    
O2    Cu2   1.933858 S    
C31   Cl9   1.812297 S    
O8    C4    1.280095 A    
N9    O21   1.303429 A    
C25   Cl4   1.805515 S    
O6    C3    1.280619 A    
O4    Cu2   1.937577 S    
C22   Cl14  1.813028 S    
H1    C14   1.110055 S    
N3    O10   1.303607 A    
C17   N5    1.493115 S    
C13   N12   1.457277 S    
C27   C28   1.198721 T    
C19   Cl2   1.811795 S    
C18   Cl16  1.822779 S    
O2    C1    1.281107 A    
C24   N4    1.490342 S    
C31   C34   1.614084 S    
C12   C14   1.553580 S    
C6    Cl1   1.780930 S    
C24   Cl6   1.827567 S    
C29   Cl8   1.808054 S    
C9    C10   1.539178 S    
N11   O25   1.302978 A    
Cu2   O6    1.931625 S    
C29   H3    1.107904 S    
C35   Cl12  1.805379 S    
C10   C13   1.538646 S    
N6    O16   1.299417 A    
C30   C32   1.583560 S    
C11   C12   1.544678 S    
C22   N6    1.488415 S    
