data_mof_unit_19266.cif
_audit_creation_date              2012-12-10T16:50:58-0500
_audit_creation_method            fapswitch 2.2
_symmetry_space_group_name_H-M    P1
_symmetry_Int_Tables_number       1
_space_group_crystal_system       triclinic
_cell_length_a                    8.044078
_cell_length_b                    8.522138
_cell_length_c                    10.902462
_cell_angle_alpha                 91.372055
_cell_angle_beta                  86.888503
_cell_angle_gamma                 93.272752
_cell_volume                      744.911809108

loop_
_atom_site_label
_atom_site_type_symbol
_atom_type_description
_atom_site_fract_x
_atom_site_fract_y
_atom_site_fract_z
_atom_type_partial_charge
C1    C     C_R   0.544452 0.793208 0.497257 0.969167
C2    C     C_R   0.914297 0.489587 0.065065 -0.172685
C3    C     C_R   0.081160 0.536636 0.064176 -0.222339
C4    C     C_R   0.918839 0.463364 0.935824 -0.222339
C5    C     C_R   0.195694 0.454794 0.128195 0.392392
C6    C     C_R   0.804305 0.545206 0.871805 0.392392
C7    C     C_R   0.353800 0.462859 0.069174 0.002518
C8    C     C_R   0.646200 0.537141 0.930826 0.002518
C9    C     C_R   0.360523 0.441037 0.940844 -0.019324
C10   C     C_R   0.639476 0.558963 0.059155 -0.019325
C11   C     C_R   0.494901 0.514791 0.129273 -0.177033
C12   C     C_R   0.455548 0.206791 0.502743 0.969167
C13   C     C_R   0.505099 0.485209 0.870727 -0.177034
C14   C     C_2   0.567211 0.957467 0.495835 -0.316592
C15   C     C_2   0.432789 0.042533 0.504165 -0.316592
C16   C     C_R   0.502075 0.494239 0.738146 0.902421
C17   C     C_R   0.497924 0.505761 0.261854 0.902421
C18   C     C_R   0.207504 0.410803 0.888297 0.216095
C19   C     C_R   0.792496 0.589197 0.111702 0.216095
C20   C     C_R   0.085703 0.510413 0.934935 -0.172686
Cl1   Cl    Cl    0.140657 0.272854 0.198911 -0.613727
Cl2   Cl    Cl    0.859343 0.727146 0.801089 -0.613727
H1    H     H_    0.890875 0.339721 0.914358 0.188122
H2    H     H_    0.109125 0.660279 0.085642 0.188121
H3    H     H_    0.119515 0.620452 0.888857 0.222109
H4    H     H_    0.880484 0.379548 0.111143 0.222109
H5    H     H_    0.694609 0.007722 0.487781 0.206643
H6    H     H_    0.305391 0.992278 0.512219 0.206643
H7    H     H_    0.007266 0.370428 0.416639 0.246481
H8    H     H_    0.992733 0.629572 0.583361 0.246481
I1    I     I_    0.160686 0.192235 0.793338 -0.249997
I2    I     I_    0.839314 0.807765 0.206662 -0.249998
N1    N     N_2   0.950330 0.457950 0.466250 -0.166191
N2    N     N_2   0.049670 0.542050 0.533750 -0.166191
O1    O     O_R   0.389250 0.738570 0.508280 -0.614689
O2    O     O_R   0.610750 0.261430 0.491720 -0.614689
O3    O     O_R   0.678390 0.711630 0.486650 -0.593935
O4    O     O_R   0.321610 0.288370 0.513350 -0.593935
O5    O     O_R   0.355430 0.513480 0.694040 -0.615903
O6    O     O_R   0.644570 0.486520 0.305960 -0.615903
O7    O     O_R   0.644570 0.486540 0.672410 -0.601688
O8    O     O_R   0.355430 0.513460 0.327590 -0.601688
Zn1   Zn    Zn3+2 0.306940 0.517990 0.514440 1.018158
Zn2   Zn    Zn3+2 0.693060 0.482010 0.485560 1.018158

loop_
_geom_bond_atom_site_label_1
_geom_bond_atom_site_label_2
_ccdc_geom_bond_type
C2    C4    A    
C5    C7    A    
C8    C13   A    
C1    C14   S    
C14   H5    S    
C12   O2    A    
O1    Zn1   S    
O6    Zn2   S    
C12   C15   S    
C1    O3    A    
C10   C19   A    
O3    Zn2   S    
C2    C3    A    
C15   H6    S    
C3    C20   A    
C2    H4    S    
C7    C11   A    
C3    H2    S    
C6    C8    A    
C19   I2    S    
C4    C6    A    
N1    N2    D    
C18   C20   A    
C12   O4    A    
O7    Zn2   S    
O2    Zn2   S    
O8    Zn1   S    
H8    N2    S    
C16   O5    A    
C4    C20   A    
H7    N1    S    
C9    C18   A    
O4    Zn1   S    
C5    Cl1   S    
C1    O1    A    
C8    C10   A    
C10   C11   A    
C13   C16   S    
C7    C9    A    
C4    H1    S    
C9    C13   A    
C17   O8    A    
C11   C17   S    
O5    Zn1   S    
C18   I1    S    
C2    C19   A    
C14   C15   D    
N1    Zn2   S    
C16   O7    A    
C17   O6    A    
N2    Zn1   S    
C3    C5    A    
C20   H3    S    
C6    Cl2   S    
