data_mof_unit_20712.cif
_audit_creation_date              2012-10-26T18:50:03-0400
_audit_creation_method            fapswitch 2.2
_symmetry_space_group_name_H-M    P1
_symmetry_Int_Tables_number       1
_space_group_crystal_system       triclinic
_cell_length_a                    10.713222
_cell_length_b                    13.00107
_cell_length_c                    11.662558
_cell_angle_alpha                 99.877099
_cell_angle_beta                  94.595451
_cell_angle_gamma                 90.076866
_cell_volume                      1594.99035765

loop_
_atom_site_label
_atom_site_type_symbol
_atom_type_description
_atom_site_fract_x
_atom_site_fract_y
_atom_site_fract_z
_atom_type_partial_charge
Br1   Br    Br    0.231012 0.330662 0.939360 -0.490386
Br2   Br    Br    0.768998 0.669342 0.060641 -0.490362
Br3   Br    Br    0.163614 0.648829 0.961874 -0.433327
Br4   Br    Br    0.836353 0.351164 0.038124 -0.433366
Br5   Br    Br    0.802971 0.351443 0.719476 -0.407456
Br6   Br    Br    0.196995 0.648524 0.280512 -0.407435
C1    C     C_R   0.498222 0.299007 0.478612 0.561002
C2    C     C_R   0.493808 0.860626 0.433554 -0.091109
C3    C     C_R   0.505054 0.031337 0.556076 0.049157
C4    C     C_R   0.494948 0.968663 0.443924 0.049157
C5    C     C_R   0.368026 0.414553 0.022478 0.126936
C6    C     C_R   0.631987 0.585445 0.977523 0.126930
C7    C     C_R   0.383264 0.421318 0.144457 0.103665
C8    C     C_R   0.616742 0.578680 0.855543 0.103651
C9    C     C_R   0.558603 0.534782 0.157214 0.084452
C10   C     C_R   0.441403 0.465216 0.842786 0.084460
C11   C     C_R   0.548537 0.530558 0.034235 0.023271
C12   C     C_R   0.501778 0.700993 0.521388 0.561010
C13   C     C_R   0.451474 0.469439 0.965765 0.023274
C14   C     C_R   0.262426 0.514943 0.500883 0.567618
C15   C     C_R   0.737569 0.485044 0.499115 0.567624
C16   C     C_R   0.128744 0.587939 0.713619 -0.070228
C17   C     C_R   0.871242 0.412023 0.286378 -0.070225
C18   C     C_R   0.080698 0.578892 0.818855 0.158839
C19   C     C_R   0.919279 0.421078 0.181143 0.158833
C20   C     C_R   0.977157 0.514047 0.819010 -0.020700
C21   C     C_R   0.022822 0.485917 0.180989 -0.020699
C22   C     C_R   0.913840 0.466849 0.713553 0.168632
C23   C     C_R   0.502718 0.814378 0.533765 0.007304
C24   C     C_R   0.086147 0.533108 0.286442 0.168620
C25   C     C_R   0.950311 0.490514 0.606402 0.008287
C26   C     C_R   0.049681 0.509442 0.393592 0.008285
C27   C     C_R   0.069035 0.537159 0.606653 -0.044940
C28   C     C_R   0.930956 0.462799 0.393342 -0.044940
C29   C     C_R   0.874604 0.468470 0.499522 -0.002237
C30   C     C_R   0.125387 0.531496 0.500473 -0.002235
C31   C     C_R   0.497283 0.185622 0.466235 0.007306
C32   C     C_R   0.486185 0.014978 0.343897 -0.101278
C33   C     C_R   0.513816 0.985022 0.656103 -0.101276
C34   C     C_R   0.487356 0.123104 0.354988 -0.114939
C35   C     C_R   0.512646 0.876897 0.645012 -0.114937
C36   C     C_R   0.506193 0.139374 0.566446 -0.091105
Cu1   Cu    Cu3+1 0.509250 0.507730 0.615930 0.998698
Cu2   Cu    Cu3+1 0.490750 0.492270 0.384070 0.998699
H1    H     H_    0.052589 0.501247 0.099127 0.206543
H2    H     H_    0.521581 0.032274 0.742556 0.146194
H3    H     H_    0.368929 0.418269 0.788159 0.177784
H4    H     H_    0.631075 0.581730 0.211841 0.177785
H5    H     H_    0.681063 0.620537 0.812561 0.157151
H6    H     H_    0.318941 0.379461 0.187440 0.157151
H7    H     H_    0.947379 0.498729 0.900874 0.206538
H8    H     H_    0.211623 0.636225 0.715842 0.167915
H9    H     H_    0.788358 0.363748 0.284157 0.167909
H10   H     H_    0.486033 0.812793 0.347341 0.161527
H11   H     H_    0.513968 0.187207 0.652659 0.161535
H12   H     H_    0.519616 0.842361 0.723413 0.152740
H13   H     H_    0.480386 0.157639 0.276587 0.152740
H14   H     H_    0.478420 0.967727 0.257444 0.146192
N1    N     N_R   0.523180 0.519350 0.790130 -0.255877
N2    N     N_R   0.476820 0.480650 0.209870 -0.255878
O1    O     O_R   0.506570 0.354460 0.582000 -0.480877
O2    O     O_R   0.493430 0.645540 0.418000 -0.480877
O3    O     O_R   0.490940 0.341410 0.386200 -0.518176
O4    O     O_R   0.509060 0.658590 0.613800 -0.518165
O5    O     O_R   0.327470 0.506520 0.597900 -0.519376
O6    O     O_R   0.672530 0.493480 0.402100 -0.519373
O7    O     O_R   0.311840 0.493460 0.402100 -0.476814
O8    O     O_R   0.688160 0.506540 0.597900 -0.476821

loop_
_geom_bond_atom_site_label_1
_geom_bond_atom_site_label_2
_ccdc_geom_bond_type
C6    C11   A    
C32   C34   A    
Cu1   Cu2   S    
C25   C27   A    
C35   H12   S    
C15   C29   S    
C28   C29   A    
C36   H11   S    
C19   C21   A    
Br5   C22   S    
C3    C4    A    
C14   O7    A    
Cu2   O6    S    
Br1   C5    S    
Cu1   N1    S    
C4    C32   A    
C17   C28   A    
Br2   C6    S    
Cu1   O5    S    
C21   H1    S    
Br4   C19   S    
C1    C31   S    
C33   C35   A    
C12   C23   S    
C20   H7    S    
C21   C24   A    
C24   C26   A    
C8    N1    A    
C5    C7    A    
C5    C13   A    
Br3   C18   S    
C9    H4    S    
Cu2   N2    S    
C10   C13   A    
C3    C36   A    
C2    C23   A    
C26   C30   A    
C10   H3    S    
C2    C4    A    
C11   C13   A    
C6    C8    A    
Cu1   O4    S    
C17   H9    S    
C31   C34   A    
C25   C29   A    
C17   C19   A    
C15   O8    A    
C15   O6    A    
C16   C18   A    
C33   H2    S    
C8    H5    S    
C1    O3    A    
C7    H6    S    
C14   C30   S    
C14   O5    A    
C3    C33   A    
C27   C30   A    
Cu1   O1    S    
C16   H8    S    
Cu2   O3    S    
C9    N2    A    
C2    H10   S    
C31   C36   A    
C9    C11   A    
C16   C27   A    
C12   O2    A    
Cu2   O7    S    
C34   H13   S    
C23   C35   A    
C32   H14   S    
C20   C22   A    
C12   O4    A    
Br6   C24   S    
C22   C25   A    
C1    O1    A    
C18   C20   A    
C7    N2    A    
Cu1   O8    S    
Cu2   O2    S    
C10   N1    A    
C26   C28   A    
