data_mof_unit_61018.cif
_audit_creation_date              2012-12-10T18:49:04-0500
_audit_creation_method            fapswitch 2.2
_symmetry_space_group_name_H-M    P1
_symmetry_Int_Tables_number       1
_space_group_crystal_system       triclinic
_cell_length_a                    10.678519
_cell_length_b                    9.871163
_cell_length_c                    14.147914
_cell_angle_alpha                 89.93901
_cell_angle_beta                  88.409801
_cell_angle_gamma                 91.047145
_cell_volume                      1490.4980025

loop_
_atom_site_label
_atom_site_type_symbol
_atom_type_description
_atom_site_fract_x
_atom_site_fract_y
_atom_site_fract_z
_atom_type_partial_charge
C1    C     C_R   0.259553 0.498412 0.491426 0.892127
C2    C     C_1   0.499867 0.500026 0.957384 0.040023
C3    C     C_R   0.055978 0.372217 0.499794 0.111550
C4    C     C_R   0.941094 0.627302 0.512894 0.122671
C5    C     C_R   0.933561 0.381408 0.535504 0.102247
C6    C     C_R   0.062028 0.619676 0.474421 0.119340
C7    C     C_R   0.872666 0.505165 0.526397 -0.175866
C8    C     C_R   0.124420 0.494922 0.481748 -0.145130
C9    C     C_R   0.430340 0.070128 0.566050 0.279472
C10   C     C_R   0.571031 0.929522 0.434833 0.294425
C11   C     C_R   0.568919 0.073119 0.433483 0.295629
C12   C     C_R   0.739282 0.501540 0.511120 0.905537
C13   C     C_R   0.428058 0.926477 0.564574 0.305678
C14   C     C_3   0.105304 0.232673 0.472470 -0.351823
C15   C     C_3   0.141447 0.225176 0.367269 -0.805477
C16   C     C_3   0.894967 0.762040 0.552836 -0.385637
C17   C     C_3   0.850548 0.749203 0.656351 -0.802227
C18   C     C_3   0.884327 0.279114 0.609242 -0.374769
C19   C     C_3   0.818800 0.153701 0.568758 -0.776907
C20   C     C_3   0.116126 0.739750 0.416868 -0.384789
C21   C     C_3   0.162792 0.697316 0.318240 -0.797873
C22   C     C_R   0.500352 0.500067 0.329162 0.895757
C23   C     C_R   0.499706 0.499938 0.670843 0.892300
C24   C     C_1   0.500078 0.500189 0.227736 -0.134971
C25   C     C_1   0.499849 0.499855 0.772273 -0.134695
C26   C     C_1   0.499912 0.500206 0.142502 0.033351
C27   C     C_1   0.499891 0.499903 0.857513 0.030845
C28   C     C_1   0.499852 0.500131 0.042634 0.040406
Cl1   Cl    Cl    0.343463 0.154100 0.655071 -0.547268
Cl2   Cl    Cl    0.666519 0.844275 0.351674 -0.535970
Cl3   Cl    Cl    0.657342 0.161207 0.345398 -0.527733
Cl4   Cl    Cl    0.329660 0.837147 0.645803 -0.528065
H1    H     H_    0.174135 0.121696 0.349969 0.246104
H2    H     H_    0.820659 0.804906 0.509542 0.259880
H3    H     H_    0.866248 0.060836 0.591855 0.224329
H4    H     H_    0.720153 0.147285 0.595396 0.257858
H5    H     H_    0.820453 0.155500 0.490562 0.298232
H6    H     H_    0.818557 0.329486 0.659856 0.195134
H7    H     H_    0.963530 0.246381 0.652806 0.219684
H8    H     H_    0.243523 0.628782 0.321880 0.237717
H9    H     H_    0.086194 0.645211 0.280112 0.266625
H10   H     H_    0.193451 0.788642 0.277275 0.256291
H11   H     H_    0.042792 0.815624 0.404417 0.211823
H12   H     H_    0.058793 0.246830 0.324101 0.274202
H13   H     H_    0.190816 0.794655 0.454879 0.246735
H14   H     H_    0.217857 0.298569 0.348074 0.256121
H15   H     H_    0.034402 0.151622 0.484940 0.216933
H16   H     H_    0.183364 0.202059 0.516306 0.265461
H17   H     H_    0.767313 0.680911 0.664198 0.248753
H18   H     H_    0.926915 0.709329 0.699657 0.270858
H19   H     H_    0.824396 0.850282 0.684053 0.251247
H20   H     H_    0.972018 0.839124 0.552534 0.204478
N1    N     N_R   0.500000 0.857200 0.500000 -0.184334
N2    N     N_R   0.500000 0.142800 0.500000 -0.186733
O1    O     O_R   0.316770 0.614620 0.499990 -0.575073
O2    O     O_R   0.683230 0.385380 0.500010 -0.564345
O3    O     O_R   0.683230 0.614620 0.500010 -0.586094
O4    O     O_R   0.316770 0.385380 0.499990 -0.593964
O5    O     O_R   0.500000 0.614690 0.373720 -0.555743
O6    O     O_R   0.500000 0.385310 0.626280 -0.555944
O7    O     O_R   0.500000 0.614690 0.626280 -0.560208
O8    O     O_R   0.500000 0.385310 0.373720 -0.552869
Zn1   Zn    Zn3+2 0.500000 0.653120 0.500000 1.029533
Zn2   Zn    Zn3+2 0.500000 0.346880 0.500000 1.025150

loop_
_geom_bond_atom_site_label_1
_geom_bond_atom_site_label_2
_ccdc_geom_bond_type
C17   H18   S    
C4    C16   S    
C2    C28   T    
C18   H7    S    
O2    Zn2   S    
C2    C27   S    
C5    C18   S    
C22   O8    A    
C1    C8    S    
C6    C20   S    
C10   Cl2   S    
C13   Cl4   S    
C26   C28   S    
C20   H13   S    
C9    Cl1   S    
O6    Zn2   S    
C17   H19   S    
O7    Zn1   S    
O8    Zn2   S    
C18   H6    S    
C11   Cl3   S    
C19   H3    S    
C1    O4    A    
N1    Zn1   S    
C12   O2    A    
C3    C14   S    
N2    Zn2   S    
C4    C7    A    
C21   H9    S    
C12   O3    A    
C6    C8    A    
C11   N2    A    
C24   C26   T    
C15   H12   S    
O3    Zn1   S    
C13   N1    A    
C19   H4    S    
C23   C25   S    
O4    Zn2   S    
C23   O6    A    
C22   C24   S    
C7    C12   S    
C25   C27   T    
C10   C11   A    
C21   H10   S    
C3    C5    A    
C23   O7    A    
C20   H11   S    
C20   C21   S    
C4    C6    A    
C3    C8    A    
C17   H17   S    
C22   O5    A    
C5    C7    A    
C10   N1    A    
C9    C13   A    
C14   C15   S    
C18   C19   S    
C14   H16   S    
C9    N2    A    
C19   H5    S    
C15   H14   S    
C16   H2    S    
C14   H15   S    
O5    Zn1   S    
C15   H1    S    
C16   H20   S    
O1    Zn1   S    
C16   C17   S    
C1    O1    A    
C21   H8    S    
