data_mof_unit_19420.cif
_audit_creation_date              2012-12-10T18:21:21-0500
_audit_creation_method            fapswitch 2.2
_symmetry_space_group_name_H-M    P1
_symmetry_Int_Tables_number       1
_space_group_crystal_system       triclinic
_cell_length_a                    15.111036
_cell_length_b                    13.962749
_cell_length_c                    10.80542
_cell_angle_alpha                 89.403145
_cell_angle_beta                  90.248137
_cell_angle_gamma                 88.800993
_cell_volume                      2279.20643765

loop_
_atom_site_label
_atom_site_type_symbol
_atom_type_description
_atom_site_fract_x
_atom_site_fract_y
_atom_site_fract_z
_atom_type_partial_charge
C1    C     C_R   0.326730 0.501333 0.495892 0.861000
C2    C     C_3   0.583495 0.463564 0.935567 -0.075507
C3    C     C_R   0.811929 0.571688 0.428561 0.039407
C4    C     C_R   0.769865 0.495702 0.489352 -0.135501
C5    C     C_R   0.819541 0.417107 0.538452 -0.111684
C6    C     C_R   0.912090 0.418905 0.535426 0.078130
C7    C     C_R   0.954488 0.498100 0.480104 0.028670
C8    C     C_R   0.904380 0.573603 0.425413 0.059375
C9    C     C_R   0.963444 0.343396 0.587676 -0.197831
C10   C     C_R   0.054551 0.346633 0.587109 -0.214866
C11   C     C_R   0.096436 0.424876 0.534263 0.137530
C12   C     C_R   0.492514 0.501444 0.258256 0.867087
C13   C     C_R   0.047355 0.501306 0.479148 0.027499
C14   C     C_R   0.090961 0.580497 0.424207 0.062020
C15   C     C_R   0.038893 0.654543 0.366709 0.091161
C16   C     C_R   0.947309 0.649991 0.368421 -0.270161
C17   C     C_R   0.187268 0.427046 0.537273 -0.270332
C18   C     C_R   0.231216 0.504471 0.487237 -0.134806
C19   C     C_R   0.184481 0.581911 0.429842 -0.078890
C20   C     C_R   0.560881 0.796915 0.431381 -0.030427
C21   C     C_R   0.561502 0.201657 0.432053 -0.017763
C22   C     C_R   0.438870 0.798335 0.568476 -0.024747
C23   C     C_R   0.438293 0.203214 0.567248 0.008161
C24   C     C_R   0.436748 0.899415 0.570612 -0.025232
C25   C     C_R   0.436659 0.102353 0.569680 -0.006015
C26   C     C_R   0.673669 0.498764 0.498140 0.935229
C27   C     C_R   0.499877 0.949363 0.500046 0.017231
C28   C     C_R   0.500025 0.050686 0.499846 0.012025
C29   C     C_R   0.562859 0.897721 0.429572 -0.008328
C30   C     C_R   0.563396 0.100593 0.429633 -0.028763
C31   C     C_R   0.373560 0.951541 0.640899 0.053920
C32   C     C_R   0.373515 0.052668 0.639902 0.103859
C33   C     C_R   0.626551 0.048438 0.359316 0.057607
C34   C     C_R   0.626043 0.947354 0.359405 0.096886
C35   C     C_R   0.497758 0.500371 0.742480 0.846074
C36   C     C_3   0.483963 0.614777 0.071458 0.080166
C37   C     C_3   0.402425 0.448850 0.073085 0.050955
C38   C     C_3   0.473613 0.612781 0.925229 0.051599
C39   C     C_3   0.411697 0.436847 0.926137 0.055400
C40   C     C_3   0.572773 0.453998 0.076723 -0.543797
C41   C     C_3   0.486268 0.505573 0.121776 -0.019916
C42   C     C_3   0.491705 0.503137 0.879245 -0.094709
H1    H     H_    0.092422 0.287847 0.628994 0.145843
H2    H     H_    0.224238 0.368431 0.581439 0.159922
H3    H     H_    0.910561 0.708448 0.324529 0.146264
H4    H     H_    0.607579 0.754945 0.378279 0.182895
H5    H     H_    0.608502 0.243018 0.380008 0.131194
H6    H     H_    0.392040 0.757003 0.620751 0.128367
H7    H     H_    0.390489 0.245357 0.618711 0.157100
H8    H     H_    0.631911 0.481701 0.125994 0.184267
H9    H     H_    0.570753 0.377097 0.105475 0.196949
H10   H     H_    0.933990 0.281496 0.630720 0.157766
N1    N     N_R   0.500070 0.750030 0.500050 -0.117530
N2    N     N_R   0.500070 0.249970 0.500050 -0.112222
O1    O     O_R   0.367860 0.580280 0.500020 -0.634891
O2    O     O_R   0.367860 0.419720 0.500020 -0.631325
O3    O     O_R   0.500000 0.580270 0.314790 -0.636890
O4    O     O_R   0.500000 0.419730 0.314790 -0.621023
O5    O     O_R   0.632160 0.580270 0.499960 -0.591399
O6    O     O_R   0.632160 0.419730 0.499960 -0.627478
O7    O     O_R   0.500030 0.580270 0.685200 -0.628455
O8    O     O_R   0.500030 0.419730 0.685200 -0.612186
Zn1   Zn    Zn3+2 0.500020 0.607200 0.499990 0.959164
Zn2   Zn    Zn3+2 0.500020 0.392800 0.499990 0.969251
C43   C     C_1   0.568087 0.661913 0.110100 0.161945
N3    N     N_1   0.632769 0.698726 0.138903 -0.213920
C44   C     C_1   0.395123 0.353184 0.136145 0.148213
N4    N     N_1   0.389109 0.279282 0.184656 -0.183094
C45   C     C_1   0.233065 0.661439 0.378176 0.246468
N5    N     N_1   0.271730 0.725210 0.337843 -0.208223
N6    N     N_3   0.077095 0.735184 0.305326 -0.452229
H11   H     H_    0.053657 0.797731 0.347646 0.188378
H12   H     H_    0.055606 0.736442 0.213170 0.192477
N7    N     N_3   0.308654 0.903604 0.714175 -0.474586
H13   H     H_    0.270538 0.861360 0.656042 0.187503
H14   H     H_    0.341377 0.859383 0.779111 0.195303
N8    N     N_3   0.309063 0.105268 0.710594 -0.474896
H15   H     H_    0.246014 0.086543 0.680236 0.197899
H16   H     H_    0.315786 0.084649 0.803515 0.218206
N9    N     N_3   0.691951 0.096295 0.286851 -0.472604
H17   H     H_    0.730086 0.138036 0.345591 0.189199
H18   H     H_    0.659681 0.140973 0.222001 0.190108
N10   N     N_3   0.690141 0.894734 0.288137 -0.471256
H19   H     H_    0.683561 0.915986 0.195425 0.219515
H20   H     H_    0.753336 0.912675 0.318761 0.197428
N11   N     N_3   0.409957 0.672737 0.124124 -0.440258
H21   H     H_    0.405788 0.738826 0.077547 0.192128
H22   H     H_    0.421128 0.693516 0.214979 0.225728
N12   N     N_3   0.321017 0.503340 0.104822 -0.436882
H23   H     H_    0.319593 0.515935 0.200112 0.176562
H24   H     H_    0.264861 0.463102 0.086696 0.186206
N13   N     N_3   0.384868 0.649102 0.885671 -0.479762
H25   H     H_    0.371271 0.635616 0.792777 0.200871
H26   H     H_    0.332851 0.623946 0.938778 0.260892
N14   N     N_3   0.327746 0.464135 0.863208 -0.479963
H27   H     H_    0.277902 0.416981 0.888863 0.183947
H28   H     H_    0.333701 0.457467 0.767314 0.174224
C46   C     C_1   0.534371 0.684883 0.869471 0.241717
N15   N     N_1   0.580520 0.741262 0.826315 -0.181778
C47   C     C_1   0.428093 0.334090 0.893090 0.171469
N16   N     N_1   0.439378 0.254306 0.868297 -0.193598
C48   C     C_1   0.658524 0.526307 0.906529 0.157234
N17   N     N_1   0.717962 0.574361 0.883820 -0.186265
C49   C     C_1   0.613183 0.369275 0.887732 0.207573
N18   N     N_1   0.636848 0.295311 0.851829 -0.164178
N19   N     N_3   0.759554 0.644738 0.366269 -0.436583
H29   H     H_    0.772250 0.711067 0.405929 0.195045
H30   H     H_    0.776513 0.646020 0.272605 0.200344
C50   C     C_1   0.776495 0.333669 0.590183 0.191365
N20   N     N_1   0.742899 0.266385 0.629995 -0.185167

loop_
_geom_bond_atom_site_label_1
_geom_bond_atom_site_label_2
_ccdc_geom_bond_type
C7    C13   A    
C22   H6    S    
C27   C29   A    
C11   C13   A    
N14   H27   S    
C24   C27   A    
C38   C46   S    
C6    C9    A    
C7    C8    A    
N8    H15   S    
C25   C28   A    
C1    C18   S    
N7    H14   S    
C1    O2    A    
C38   C42   S    
C5    C6    A    
N11   H22   S    
C23   H7    S    
N19   H29   S    
C2    C48   S    
C15   C16   A    
C38   N13   S    
C18   C19   A    
O7    Zn1   S    
C35   C42   S    
C39   C42   S    
N13   H25   S    
O8    Zn2   S    
C32   N8    S    
C31   C32   A    
O1    Zn1   S    
O2    Zn2   S    
N12   H24   S    
C26   O5    A    
C12   O4    A    
C25   C32   A    
C8    C16   A    
C13   C14   A    
C36   C41   S    
C45   N5    T    
C9    H10   S    
C49   N18   T    
O3    Zn1   S    
C22   N1    A    
C20   C29   A    
N8    H16   S    
C3    N19   S    
O4    Zn2   S    
N7    H13   S    
C44   N4    T    
N9    H18   S    
C3    C8    A    
N6    H12   S    
C36   C43   S    
N9    H17   S    
C31   N7    S    
C36   N11   S    
C29   C34   A    
C12   C41   S    
N10   H19   S    
C2    C49   S    
N13   H26   S    
C17   C18   A    
C35   O7    A    
C39   N14   S    
C12   O3    A    
C40   C41   S    
N10   H20   S    
C43   N3    T    
C22   C24   A    
C19   C45   S    
C34   N10   S    
C3    C4    A    
C23   N2    A    
C9    C10   A    
C11   C17   A    
C30   C33   A    
C10   H1    S    
N11   H21   S    
C14   C19   A    
C20   N1    A    
C16   H3    S    
C4    C26   S    
N14   H28   S    
C33   N9    S    
C6    C7    A    
C40   H9    S    
C15   N6    S    
C21   C30   A    
O5    Zn1   S    
C37   N12   S    
O6    Zn2   S    
C36   C38   S    
C1    O1    A    
C17   H2    S    
N6    H11   S    
C37   C39   S    
C50   N20   T    
N1    Zn1   S    
C39   C47   S    
C21   N2    A    
N19   H30   S    
C2    C42   S    
C40   H8    S    
C37   C44   S    
C28   C30   A    
C47   N16   T    
C33   C34   A    
C35   O8    A    
C23   C25   A    
C37   C41   S    
C48   N17   T    
C24   C31   A    
C10   C11   A    
C2    C40   S    
C4    C5    A    
N2    Zn2   S    
C46   N15   T    
C27   C28   A    
C14   C15   A    
C5    C50   S    
N12   H23   S    
C26   O6    A    
C20   H4    S    
C21   H5    S    
