data_mof_unit_59412.cif
_audit_creation_date              2012-12-10T18:21:17-0500
_audit_creation_method            fapswitch 2.2
_symmetry_space_group_name_H-M    P1
_symmetry_Int_Tables_number       1
_space_group_crystal_system       triclinic
_cell_length_a                    15.057648
_cell_length_b                    13.976483
_cell_length_c                    10.68099
_cell_angle_alpha                 91.202542
_cell_angle_beta                  90.498886
_cell_angle_gamma                 90.905226
_cell_volume                      2246.97856032

loop_
_atom_site_label
_atom_site_type_symbol
_atom_type_description
_atom_site_fract_x
_atom_site_fract_y
_atom_site_fract_z
_atom_type_partial_charge
C1    C     C_R   0.326638 0.499404 0.500162 0.914230
C2    C     C_3   0.577468 0.583338 0.935216 0.236747
C3    C     C_R   0.814276 0.420515 0.477718 -0.222525
C4    C     C_R   0.770115 0.505840 0.502381 -0.156717
C5    C     C_R   0.818010 0.592789 0.525633 0.209973
C6    C     C_R   0.910846 0.591891 0.521152 0.008573
C7    C     C_R   0.954628 0.504382 0.498534 -0.019259
C8    C     C_R   0.906119 0.418087 0.476809 0.040069
C9    C     C_R   0.961173 0.676646 0.540437 -0.175229
C10   C     C_R   0.052970 0.675776 0.540542 0.251552
C11   C     C_R   0.096546 0.588908 0.520555 0.041922
C12   C     C_R   0.501605 0.499154 0.257568 0.923747
C13   C     C_R   0.047390 0.503046 0.498795 0.043875
C14   C     C_R   0.091262 0.415634 0.477924 0.074852
C15   C     C_R   0.042922 0.330872 0.455876 -0.210751
C16   C     C_R   0.950709 0.331331 0.454853 0.279228
C17   C     C_R   0.188304 0.585701 0.521589 -0.164347
C18   C     C_R   0.231215 0.499239 0.500703 -0.097056
C19   C     C_R   0.183247 0.414296 0.479232 -0.204317
C20   C     C_R   0.549892 0.797947 0.415295 0.045302
C21   C     C_R   0.551354 0.200840 0.417398 -0.018339
C22   C     C_R   0.449916 0.797556 0.585948 0.008651
C23   C     C_R   0.449202 0.203352 0.585138 0.008268
C24   C     C_R   0.448020 0.898720 0.590163 -0.115293
C25   C     C_R   0.447734 0.102171 0.589883 -0.109187
C26   C     C_R   0.673809 0.501524 0.501962 0.921507
C27   C     C_R   0.499290 0.949267 0.502688 0.048229
C28   C     C_R   0.499358 0.050548 0.502842 0.046107
C29   C     C_R   0.550828 0.898431 0.414545 0.050926
C30   C     C_R   0.551569 0.100344 0.415644 0.043998
C31   C     C_R   0.396958 0.950265 0.678630 0.236615
C32   C     C_R   0.396746 0.051638 0.678407 0.238764
C33   C     C_R   0.602744 0.048991 0.328833 -0.139375
C34   C     C_R   0.602136 0.948799 0.328000 -0.175466
C35   C     C_R   0.504449 0.501424 0.742589 0.858775
C36   C     C_3   0.411166 0.528229 0.069715 0.069468
C37   C     C_3   0.523536 0.396622 0.068538 0.055352
C38   C     C_3   0.412348 0.529092 0.925568 -0.477993
C39   C     C_3   0.524249 0.400434 0.926187 -0.428852
C40   C     C_3   0.580773 0.567500 0.079112 -0.385598
C41   C     C_3   0.504582 0.498640 0.121551 -0.032461
C42   C     C_3   0.507031 0.504809 0.879268 0.033233
H1    H     H_    0.227151 0.650396 0.539101 0.211154
H2    H     H_    0.217355 0.347483 0.462648 0.173362
H3    H     H_    0.076884 0.263995 0.439530 0.194379
H4    H     H_    0.588994 0.757569 0.348645 0.133322
H5    H     H_    0.592260 0.240226 0.353379 0.189318
H6    H     H_    0.411674 0.755387 0.650389 0.168127
H7    H     H_    0.410322 0.246189 0.648901 0.174599
H8    H     H_    0.643009 0.086355 0.261288 0.182407
H9    H     H_    0.641891 0.910678 0.259788 0.153101
H10   H     H_    0.361683 0.472814 0.097883 0.134603
H11   H     H_    0.468923 0.346938 0.096505 0.162056
H12   H     H_    0.363398 0.474779 0.888313 0.174820
H13   H     H_    0.470119 0.351251 0.890983 0.193686
H14   H     H_    0.389162 0.598142 0.888697 0.220954
H15   H     H_    0.584713 0.368330 0.887434 0.213191
H16   H     H_    0.576039 0.636400 0.131905 0.189254
H17   H     H_    0.646062 0.539026 0.108112 0.193620
H18   H     H_    0.776110 0.355480 0.459373 0.223433
H19   H     H_    0.930739 0.745260 0.555343 0.233044
N1    N     N_R   0.500070 0.750030 0.500050 -0.109535
N2    N     N_R   0.500070 0.249970 0.500050 -0.122563
O1    O     O_R   0.367860 0.580280 0.500020 -0.606784
O2    O     O_R   0.367860 0.419720 0.500020 -0.629193
O3    O     O_R   0.500000 0.580270 0.314790 -0.597161
O4    O     O_R   0.500000 0.419730 0.314790 -0.608182
O5    O     O_R   0.632160 0.580270 0.499960 -0.585383
O6    O     O_R   0.632160 0.419730 0.499960 -0.622199
O7    O     O_R   0.500030 0.580270 0.685200 -0.651621
O8    O     O_R   0.500030 0.419730 0.685200 -0.634296
Zn1   Zn    Zn3+2 0.500020 0.607200 0.499990 0.994137
Zn2   Zn    Zn3+2 0.500020 0.392800 0.499990 0.972253
Br1   Br    Br    0.362955 0.647625 0.138496 -0.468341
Br2   Br    Br    0.632573 0.338847 0.131991 -0.577760
Br3   Br    Br    0.114271 0.796444 0.568758 -0.389510
Br4   Br    Br    0.890249 0.210689 0.423843 -0.451661
Br5   Br    Br    0.327507 0.883144 0.801342 -0.390067
Br6   Br    Br    0.326972 0.120133 0.800807 -0.430636
C43   C     C_3   0.545912 0.690640 0.915892 -0.406121
C44   C     C_3   0.613387 0.771269 0.953640 -0.424092
C45   C     C_3   0.569152 0.868875 0.959069 -0.751259
H20   H     H_    0.539766 0.885441 0.866442 0.272988
H21   H     H_    0.516338 0.869792 0.031057 0.283037
H22   H     H_    0.619407 0.925178 0.984279 0.251575
H23   H     H_    0.644449 0.758606 0.046216 0.222776
H24   H     H_    0.667062 0.774980 0.883061 0.258033
H25   H     H_    0.528173 0.704386 0.817809 0.233839
H26   H     H_    0.485260 0.704148 0.969904 0.265661
C46   C     C_3   0.673153 0.578301 0.876106 -0.426015
C47   C     C_3   0.719238 0.481503 0.863851 -0.393419
C48   C     C_3   0.819018 0.494052 0.843368 -0.784941
H27   H     H_    0.832176 0.543355 0.765800 0.271697
H28   H     H_    0.851647 0.523724 0.929747 0.268518
H29   H     H_    0.848594 0.423654 0.820188 0.266809
H30   H     H_    0.711678 0.441043 0.950388 0.286125
H31   H     H_    0.690948 0.440429 0.782376 0.225150
H32   H     H_    0.670612 0.608730 0.780935 0.240394
H33   H     H_    0.718377 0.625487 0.933447 0.225905
Br7   Br    Br    0.760408 0.711753 0.575393 -0.553791

loop_
_geom_bond_atom_site_label_1
_geom_bond_atom_site_label_2
_ccdc_geom_bond_type
C22   H6    S    
C27   C29   A    
C24   C27   A    
O1    Zn1   S    
C6    C9    A    
C44   C45   S    
C7    C8    A    
C25   C28   A    
C34   H9    S    
C9    H19   S    
C38   C42   S    
C5    C6    A    
C43   C44   S    
C23   H7    S    
C15   C16   A    
C39   H15   S    
O2    Zn2   S    
C16   Br4   S    
C43   H26   S    
C2    C46   S    
C35   C42   S    
C47   H30   S    
C10   Br3   S    
O3    Zn1   S    
C35   O7    A    
C1    O2    A    
O6    Zn2   S    
O4    Zn2   S    
C9    C10   A    
C44   H23   S    
C36   H10   S    
C37   H11   S    
C3    H18   S    
C25   C32   A    
C23   N2    A    
C37   Br2   S    
C35   O8    A    
C8    C16   A    
C40   H17   S    
C13   C14   A    
C37   C41   S    
C36   C41   S    
C33   C34   A    
C39   C42   S    
C20   C29   A    
C12   O4    A    
C39   H13   S    
C40   H16   S    
C3    C8    A    
C47   C48   S    
O8    Zn2   S    
C18   C19   A    
N2    Zn2   S    
C33   H8    S    
C12   O3    A    
C29   C34   A    
C48   H29   S    
C17   H1    S    
C12   C41   S    
C22   N1    A    
C31   C32   A    
C38   H12   S    
C5    Br7   S    
O5    Zn1   S    
C48   H28   S    
C17   C18   A    
C1    C18   S    
N1    Zn1   S    
C47   H31   S    
C44   H24   S    
C36   Br1   S    
C40   C41   S    
C45   H21   S    
C22   C24   A    
C15   H3    S    
C3    C4    A    
C1    O1    A    
C46   H33   S    
C19   H2    S    
C31   Br5   S    
C11   C17   A    
C30   C33   A    
C14   C19   A    
C4    C5    A    
C4    C26   S    
C6    C7    A    
C45   H22   S    
C21   C30   A    
C26   O5    A    
C36   C38   S    
C24   C31   A    
C43   H25   S    
C32   Br6   S    
C11   C13   A    
C46   C47   S    
C2    C42   S    
C28   C30   A    
C48   H27   S    
C23   C25   A    
C20   N1    A    
C21   N2    A    
C2    C43   S    
C10   C11   A    
C2    C40   S    
C7    C13   A    
C38   H14   S    
C37   C39   S    
C45   H20   S    
C27   C28   A    
C26   O6    A    
C14   C15   A    
O7    Zn1   S    
C46   H32   S    
C20   H4    S    
C21   H5    S    
