data_mof_unit_34749.cif
_audit_creation_date              2012-12-10T20:31:57-0500
_audit_creation_method            fapswitch 2.2
_symmetry_space_group_name_H-M    P1
_symmetry_Int_Tables_number       1
_space_group_crystal_system       triclinic
_cell_length_a                    9.926145
_cell_length_b                    10.672445
_cell_length_c                    15.165622
_cell_angle_alpha                 90.648066
_cell_angle_beta                  67.504296
_cell_angle_gamma                 90.285675
_cell_volume                      1484.24538835

loop_
_atom_site_label
_atom_site_type_symbol
_atom_type_description
_atom_site_fract_x
_atom_site_fract_y
_atom_site_fract_z
_atom_type_partial_charge
C1    C     C_R   0.498347 0.739757 0.503472 0.930910
C2    C     C_R   0.363838 0.419376 0.927872 -0.030075
C3    C     C_R   0.236598 0.491107 0.980326 0.046347
C4    C     C_R   0.451489 0.373456 0.976119 -0.052112
C5    C     C_R   0.433714 0.429619 0.064736 -0.010192
C6    C     C_R   0.297996 0.483778 0.119326 -0.171212
C7    C     C_R   0.198419 0.510570 0.078379 -0.186317
C8    C     C_R   0.556284 0.276570 0.940916 0.692480
C9    C     C_R   0.656166 0.254162 0.983195 -0.331798
C10   C     C_R   0.655479 0.327573 0.060163 0.048225
C11   C     C_R   0.547174 0.420711 0.099269 0.040708
C12   C     C_R   0.407431 0.497198 0.676973 0.942204
C13   C     C_R   0.757372 0.305105 0.101536 -0.133159
C14   C     C_R   0.746796 0.369267 0.184471 -0.284895
C15   C     C_R   0.557044 0.500936 0.171620 0.062288
C16   C     C_R   0.398654 0.935115 0.479800 -0.076414
C17   C     C_R   0.490686 0.872091 0.514149 -0.102685
C18   C     C_R   0.564357 0.939272 0.563392 0.038117
C19   C     C_R   0.563511 0.069085 0.561353 -0.096446
C20   C     C_R   0.489425 0.129373 0.511915 -0.185543
C21   C     C_R   0.397023 0.062674 0.479358 0.017029
C22   C     C_3   0.382317 0.067123 0.384985 0.385579
C23   C     C_R   0.498794 0.260500 0.501223 0.889475
C24   C     C_3   0.383972 0.924977 0.385371 0.385410
C25   C     C_R   0.895470 0.578603 0.559696 0.104161
C26   C     C_R   0.968657 0.433212 0.433479 0.114744
C27   C     C_R   0.110552 0.431788 0.435147 -0.051141
C28   C     C_R   0.039024 0.581201 0.557475 0.081276
C29   C     C_3   0.992916 0.591725 0.662436 -0.574626
C30   C     C_3   0.837940 0.579642 0.667092 0.637956
C31   C     C_R   0.591357 0.497526 0.322900 0.913452
C32   C     C_R   0.342174 0.486419 0.781012 -0.234843
C33   C     C_R   0.643714 0.464985 0.221286 -0.055924
C34   C     C_R   0.155041 0.547233 0.932535 0.107634
C35   C     C_R   0.210944 0.547183 0.833239 -0.270171
C36   C     C_R   0.409863 0.413202 0.827619 0.618872
H1    H     H_    0.097411 0.555832 0.122548 0.140932
H2    H     H_    0.838120 0.231647 0.073914 0.161231
H3    H     H_    0.624830 0.122087 0.594889 0.213935
H4    H     H_    0.476671 0.111332 0.327632 0.104736
H5    H     H_    0.280557 0.879733 0.389649 0.125364
H6    H     H_    0.195252 0.375566 0.383453 0.197605
H7    H     H_    0.030328 0.511509 0.693344 0.185588
H8    H     H_    0.018304 0.685693 0.684481 0.230151
H9    H     H_    0.812843 0.338666 0.222570 0.159755
H10   H     H_    0.733564 0.178113 0.956065 0.192603
H11   H     H_    0.154398 0.599057 0.796861 0.189976
H12   H     H_    0.266431 0.503494 0.194468 0.141742
N1    N     N_R   0.856900 0.500860 0.500610 -0.142324
N2    N     N_R   0.142540 0.500820 0.500610 -0.120709
O1    O     O_R   0.385310 0.683210 0.499990 -0.605702
O2    O     O_R   0.614650 0.683240 0.500000 -0.626181
O3    O     O_R   0.319830 0.499970 0.632240 -0.630547
O4    O     O_R   0.549170 0.500000 0.632250 -0.535589
O5    O     O_R   0.385350 0.316760 0.500000 -0.579543
O6    O     O_R   0.614690 0.316790 0.500010 -0.630054
O7    O     O_R   0.450830 0.500000 0.367750 -0.614972
O8    O     O_R   0.680170 0.500030 0.367760 -0.634000
Zn1   Zn    Zn3+2 0.346870 0.499980 0.499990 0.971594
Zn2   Zn    Zn3+2 0.653130 0.500020 0.500010 0.978769
N3    N     N_3   0.641507 0.879694 0.614132 -0.372793
H13   H     H_    0.572835 0.813158 0.659756 0.241595
H14   H     H_    0.733985 0.835528 0.565170 0.239852
F1    F     F_    0.248114 0.114453 0.393890 -0.665138
F2    F     F_    0.507842 0.875710 0.314883 -0.671643
N4    N     N_3   0.947748 0.365854 0.358015 -0.442766
H15   H     H_    0.929732 0.431062 0.313066 0.193361
H16   H     H_    0.858711 0.306042 0.386108 0.235747
N5    N     N_3   0.495681 0.625208 0.188771 -0.404671
H17   H     H_    0.483679 0.659695 0.127962 0.216016
H18   H     H_    0.395323 0.625332 0.246340 0.205870
N6    N     N_3   0.769212 0.462094 0.709712 -0.330237
H19   H     H_    0.756523 0.463610 0.781443 0.201788
H20   H     H_    0.837302 0.386349 0.676981 0.175643
F3    F     F_    0.752309 0.682860 0.708029 -0.654635
N7    N     N_3   0.021324 0.613056 0.982354 -0.435140
H21   H     H_    0.042006 0.687921 0.020430 0.201640
H22   H     H_    0.947631 0.551647 0.030348 0.203086
F4    F     F_    0.524670 0.342839 0.772702 -0.626719
F5    F     F_    0.549742 0.190718 0.876089 -0.594532

loop_
_geom_bond_atom_site_label_1
_geom_bond_atom_site_label_2
_ccdc_geom_bond_type
C8    C9    A    
N4    H16   S    
C16   C21   A    
O5    Zn1   S    
C19   C20   A    
C4    C8    A    
C35   H11   S    
C14   C33   A    
O3    Zn1   S    
C23   O6    A    
O4    Zn2   S    
C25   C28   A    
C26   C27   A    
N1    Zn2   S    
C6    H12   S    
N2    Zn1   S    
C32   C36   A    
C31   O8    A    
C28   C29   S    
N7    H22   S    
C5    C11   A    
C3    C7    A    
C5    C6    A    
O7    Zn1   S    
O8    Zn2   S    
N3    H14   S    
C34   C35   A    
N5    H18   S    
O2    Zn2   S    
C11   C15   A    
C16   C17   A    
C31   C33   S    
C9    C10   A    
C12   O3    A    
C27   N2    A    
N4    H15   S    
C9    H10   S    
C16   C24   S    
C21   C22   S    
C12   C32   S    
C24   H5    S    
N5    H17   S    
C28   N2    A    
C14   H9    S    
C15   N5    S    
C26   N4    S    
C32   C35   A    
N7    H21   S    
N6    H20   S    
C26   N1    A    
C18   C19   A    
C3    C34   A    
C36   F4    S    
O6    Zn2   S    
C2    C4    A    
C29   C30   S    
C20   C23   S    
C22   H4    S    
C17   C18   A    
C7    H1    S    
C1    O1    A    
C13   H2    S    
C19   H3    S    
C24   F2    S    
C29   H7    S    
C29   H8    S    
C22   C24   S    
O1    Zn1   S    
C2    C36   A    
C25   C30   S    
N6    H19   S    
C10   C13   A    
C30   N6    S    
C18   N3    S    
C23   O5    A    
C6    C7    A    
C1    C17   S    
C31   O7    A    
C2    C3    A    
C30   F3    S    
C27   H6    S    
N3    H13   S    
C1    O2    A    
C25   N1    A    
C10   C11   A    
C22   F1    S    
C4    C5    A    
C20   C21   A    
C8    F5    S    
C13   C14   A    
C15   C33   A    
C12   O4    A    
C34   N7    S    
