data_mof_unit_30889.cif
_audit_creation_date              2012-12-10T20:39:12-0500
_audit_creation_method            fapswitch 2.2
_symmetry_space_group_name_H-M    P1
_symmetry_Int_Tables_number       1
_space_group_crystal_system       triclinic
_cell_length_a                    19.155617
_cell_length_b                    10.742975
_cell_length_c                    9.907457
_cell_angle_alpha                 89.718078
_cell_angle_beta                  90.374314
_cell_angle_gamma                 90.570762
_cell_volume                      2038.67017515

loop_
_atom_site_label
_atom_site_type_symbol
_atom_type_description
_atom_site_fract_x
_atom_site_fract_y
_atom_site_fract_z
_atom_type_partial_charge
C1    C     C_R   0.500107 0.260273 0.499895 0.877273
C2    C     C_R   0.854426 0.511025 0.497454 0.012198
C3    C     C_R   0.456127 0.062576 0.587004 0.042236
C4    C     C_R   0.365578 0.502105 0.499326 0.866268
C5    C     C_R   0.497497 0.128231 0.496660 -0.058652
C6    C     C_R   0.532519 0.064595 0.395007 -0.213288
C7    C     C_R   0.531604 0.935711 0.394859 -0.228175
C8    C     C_R   0.497629 0.870942 0.499262 -0.110807
C9    C     C_R   0.457590 0.935617 0.592788 0.087972
C10   C     C_3   0.447931 0.935445 0.745470 0.339291
C11   C     C_3   0.445006 0.077547 0.733359 -0.560340
C12   C     C_R   0.289912 0.511429 0.496550 -0.069047
C13   C     C_R   0.442328 0.465052 0.070511 0.150059
C14   C     C_R   0.555344 0.545256 0.073439 -0.168878
C15   C     C_R   0.556463 0.544184 0.928930 0.233063
C16   C     C_R   0.499674 0.739468 0.500154 0.880898
C17   C     C_R   0.440241 0.471360 0.928809 0.040971
C18   C     C_3   0.396852 0.353881 0.922513 -0.103591
C19   C     C_3   0.404258 0.343622 0.075773 0.005583
C20   C     C_R   0.634161 0.498047 0.500527 0.877193
C21   C     C_R   0.254747 0.557323 0.608685 -0.247292
C22   C     C_R   0.182186 0.565102 0.608932 0.204531
C23   C     C_R   0.929393 0.519465 0.487921 0.283521
C24   C     C_R   0.145013 0.529227 0.491281 0.057367
C25   C     C_R   0.180611 0.485812 0.378184 -0.200056
C26   C     C_R   0.252614 0.477183 0.380606 -0.192239
C27   C     C_3   0.375353 0.885580 0.793024 -0.441007
C28   C     C_3   0.373937 0.750657 0.841314 -0.903029
C29   C     C_3   0.510559 0.891302 0.834744 -0.319643
C30   C     C_3   0.583547 0.936046 0.792292 -0.925039
C31   C     C_3   0.682666 0.601659 0.924499 -0.866934
C32   C     C_3   0.321192 0.374508 0.874757 -0.403456
C33   C     C_3   0.272815 0.265063 0.909617 -0.904186
C34   C     C_R   0.069420 0.528888 0.485042 0.263833
C35   C     C_3   0.147304 0.604592 0.738407 -0.430677
C36   C     C_3   0.148386 0.746022 0.752156 -0.833306
C37   C     C_3   0.517553 0.223137 0.075437 -0.738994
C38   C     C_3   0.862815 0.348936 0.688467 -0.395172
C39   C     C_3   0.857363 0.402653 0.830377 -0.851991
C40   C     C_3   0.694777 0.214260 0.593187 -0.805298
C41   C     C_R   0.821499 0.426562 0.587372 0.150631
C42   C     C_R   0.748177 0.418719 0.586674 0.190683
C43   C     C_R   0.709674 0.499143 0.501570 -0.108757
C44   C     C_R   0.743569 0.582743 0.415209 -0.248396
C45   C     C_R   0.815548 0.588615 0.413204 -0.196973
H1    H     H_    0.283683 0.585550 0.697336 0.154383
H2    H     H_    0.714118 0.644233 0.349606 0.155474
H3    H     H_    0.841167 0.653424 0.344983 0.157431
H4    H     H_    0.563603 0.113956 0.321003 0.161636
H5    H     H_    0.393318 0.688921 0.761560 0.304688
H6    H     H_    0.405637 0.739260 0.934644 0.249275
H7    H     H_    0.319546 0.723277 0.866476 0.242268
H8    H     H_    0.357393 0.942801 0.879212 0.210717
H9    H     H_    0.336093 0.896311 0.710607 0.205340
H10   H     H_    0.595681 0.907489 0.687884 0.269386
H11   H     H_    0.589410 0.038208 0.801684 0.256796
H12   H     H_    0.560786 0.887127 0.318332 0.158716
H13   H     H_    0.622965 0.893294 0.860342 0.248756
H14   H     H_    0.501684 0.922269 0.940092 0.193862
H15   H     H_    0.511441 0.788594 0.837450 0.223140
H16   H     H_    0.604858 0.661713 0.789962 0.262081
H17   H     H_    0.723810 0.618010 0.847802 0.258234
H18   H     H_    0.694955 0.513965 0.979214 0.250707
H19   H     H_    0.683020 0.681519 0.995278 0.233184
H20   H     H_    0.294712 0.176197 0.873276 0.254506
H21   H     H_    0.264305 0.258328 0.020064 0.254978
H22   H     H_    0.221283 0.279099 0.860086 0.257905
H23   H     H_    0.392524 0.117276 0.749535 0.176400
H24   H     H_    0.299790 0.461295 0.918370 0.204199
H25   H     H_    0.321181 0.382933 0.763735 0.246270
H26   H     H_    0.202987 0.781751 0.754437 0.251336
H27   H     H_    0.120168 0.789943 0.666345 0.274041
H28   H     H_    0.122499 0.772610 0.847565 0.250235
H29   H     H_    0.092853 0.569200 0.745029 0.219326
H30   H     H_    0.175231 0.563111 0.826271 0.198259
H31   H     H_    0.417251 0.154242 0.114563 0.225131
H32   H     H_    0.533208 0.124132 0.083835 0.210747
H33   H     H_    0.552844 0.278522 0.141295 0.263688
H34   H     H_    0.488213 0.129009 0.783131 0.214848
H35   H     H_    0.525321 0.252798 0.969454 0.217031
H36   H     H_    0.877217 0.500169 0.831552 0.260057
H37   H     H_    0.802462 0.400778 0.865438 0.267230
H38   H     H_    0.889234 0.346432 0.901597 0.251596
H39   H     H_    0.843388 0.251187 0.688436 0.227120
H40   H     H_    0.918911 0.344012 0.663355 0.213589
H41   H     H_    0.676383 0.356752 0.730277 0.266104
H42   H     H_    0.674846 0.142958 0.664783 0.245875
H43   H     H_    0.740705 0.175429 0.540633 0.245480
H44   H     H_    0.653267 0.235229 0.517996 0.227970
H45   H     H_    0.599179 0.581094 0.130782 0.168166
H46   H     H_    0.423269 0.281798 0.865173 0.182667
H47   H     H_    0.355125 0.351238 0.133583 0.125129
H48   H     H_    0.152451 0.457853 0.287860 0.152358
H49   H     H_    0.278907 0.442491 0.292359 0.145745
N1    N     N_R   0.032706 0.628764 0.526236 -0.170680
N2    N     N_R   0.963453 0.624095 0.527786 -0.168128
N3    N     N_R   0.965892 0.421506 0.441640 -0.183485
N4    N     N_R   0.035062 0.426169 0.440312 -0.179617
N5    N     N_R   0.499530 0.499140 0.142800 -0.117664
N6    N     N_R   0.499530 0.499180 0.857150 -0.147927
N7    N     N_2   0.615510 0.591292 0.857538 -0.271646
N8    N     N_2   0.445503 0.236387 0.118594 -0.266586
N9    N     N_2   0.714509 0.325393 0.666481 -0.312511
O1    O     O_R   0.500010 0.316790 0.614690 -0.621872
O2    O     O_R   0.500000 0.316760 0.385350 -0.596899
O3    O     O_R   0.398140 0.500000 0.614710 -0.642135
O4    O     O_R   0.398130 0.499970 0.385370 -0.613871
O5    O     O_R   0.500000 0.683240 0.614650 -0.642688
O6    O     O_R   0.499990 0.683210 0.385310 -0.616649
O7    O     O_R   0.601870 0.500030 0.614630 -0.612714
O8    O     O_R   0.601860 0.500000 0.385290 -0.629309
Zn1   Zn    Zn3+2 0.500000 0.500020 0.653130 0.916792
Zn2   Zn    Zn3+2 0.500000 0.499980 0.346870 0.945182

loop_
_geom_bond_atom_site_label_1
_geom_bond_atom_site_label_2
_ccdc_geom_bond_type
C10   C27   S    
C26   H49   S    
C35   H29   S    
C25   H48   S    
C41   C42   A    
N1    N2    A    
C15   N6    A    
C42   N9    S    
N3    N4    A    
C27   H9    S    
C33   H20   S    
C7    C8    A    
O3    Zn1   S    
C11   H23   S    
C22   C35   S    
C35   H30   S    
C1    C5    S    
C18   H46   S    
C31   N7    S    
C40   H42   S    
O2    Zn2   S    
C37   N8    S    
C28   H6    S    
C2    C41   A    
C23   N2    A    
C18   C19   S    
C14   H45   S    
C19   H47   S    
C28   H5    S    
O4    Zn2   S    
C35   C36   S    
C8    C9    A    
C33   H21   S    
C40   H44   S    
C4    C12   S    
C9    C10   S    
C19   N8    S    
C36   H26   S    
O6    Zn2   S    
C8    C16   S    
C21   C22   A    
C31   H17   S    
H41   N9    S    
C4    O4    A    
C16   O6    A    
C2    C45   A    
H31   N8    S    
C38   C39   S    
C37   H35   S    
C13   C19   S    
C38   H40   S    
C31   H18   S    
C14   N5    A    
C24   C25   A    
C39   H36   S    
C38   C41   S    
C36   H28   S    
O1    Zn1   S    
C32   H25   S    
C15   N7    S    
C25   C26   A    
C30   H11   S    
C12   C21   A    
C24   C34   S    
O5    Zn1   S    
C12   C26   A    
C13   N5    A    
H16   N7    S    
C43   C44   A    
C29   C30   S    
C3    C9    A    
C20   O8    A    
C29   H15   S    
C27   H8    S    
C17   C18   S    
O8    Zn2   S    
C34   N1    A    
C1    O1    A    
C32   H24   S    
C11   H34   S    
C20   O7    A    
C23   N3    A    
N6    Zn1   S    
C22   C24   A    
C18   C32   S    
C42   C43   A    
C2    C23   S    
C20   C43   S    
C44   C45   A    
C33   H22   S    
C21   H1    S    
C30   H10   S    
C45   H3    S    
C37   H32   S    
C38   H39   S    
C31   H19   S    
C39   H37   S    
C3    C5    A    
N5    Zn2   S    
C44   H2    S    
C6    C7    A    
C37   H33   S    
C13   C17   A    
C32   C33   S    
C40   H43   S    
C39   H38   S    
C40   N9    S    
C28   H7    S    
C10   C29   S    
C5    C6    A    
C4    O3    A    
C30   H13   S    
C34   N4    A    
C6    H4    S    
C17   N6    A    
O7    Zn1   S    
C3    C11   S    
C10   C11   S    
C16   O5    A    
C27   C28   S    
C29   H14   S    
C14   C15   A    
C7    H12   S    
C36   H27   S    
C1    O2    A    
