data_mof_unit_32333.cif
_audit_creation_date              2012-10-26T20:21:18-0400
_audit_creation_method            fapswitch 2.2
_symmetry_space_group_name_H-M    P1
_symmetry_Int_Tables_number       1
_space_group_crystal_system       triclinic
_cell_length_a                    9.57588
_cell_length_b                    10.773417
_cell_length_c                    15.678956
_cell_angle_alpha                 89.526961
_cell_angle_beta                  73.095596
_cell_angle_gamma                 90.891773
_cell_volume                      1547.30213659

loop_
_atom_site_label
_atom_site_type_symbol
_atom_type_description
_atom_site_fract_x
_atom_site_fract_y
_atom_site_fract_z
_atom_type_partial_charge
C1    C     C_R   0.999261 0.262417 0.499401 0.567953
C2    C     C_R   0.066383 0.066825 0.554734 -0.189743
C3    C     C_R   0.001312 0.871677 0.502190 -0.008325
C4    C     C_R   0.997299 0.128331 0.499723 -0.003806
C5    C     C_R   0.549105 0.415490 0.551137 0.392987
C6    C     C_R   0.451029 0.585095 0.449784 0.391334
C7    C     C_R   0.399355 0.417101 0.551282 -0.009124
C8    C     C_R   0.600782 0.582338 0.448360 -0.011002
C9    C     C_R   0.916765 0.498675 0.671879 0.554169
C10   C     C_R   0.083023 0.501937 0.327898 0.541909
C11   C     C_R   0.869047 0.501824 0.769825 -0.005171
C12   C     C_R   0.000383 0.737578 0.501251 0.579017
C13   C     C_R   0.129388 0.521292 0.230213 -0.016788
C14   C     C_R   0.918585 0.493272 0.912163 -0.125511
C15   C     C_R   0.079978 0.597587 0.096139 -0.120401
C16   C     C_R   0.967550 0.482757 0.819951 0.278567
C17   C     C_R   0.028496 0.550243 0.183317 0.260210
C18   C     C_R   0.721819 0.525762 0.813708 -0.149126
C19   C     C_R   0.278427 0.523614 0.184667 -0.133386
C20   C     C_R   0.672779 0.543777 0.906314 0.002326
C21   C     C_R   0.330807 0.565182 0.095376 0.004779
C22   C     C_R   0.773661 0.522839 0.954991 -0.063405
C23   C     C_R   0.590011 0.564467 0.092888 0.252778
C24   C     C_R   0.228907 0.598917 0.050626 -0.063938
C25   C     C_R   0.525934 0.575756 0.953235 -0.004636
C26   C     C_R   0.481435 0.567564 0.048269 -0.006856
C27   C     C_3   0.841022 0.408942 0.221860 -0.095103
C28   C     C_3   0.137780 0.332538 0.787330 -0.117025
C29   C     C_3   0.586104 0.732182 0.178941 -0.075512
C30   C     C_3   0.509581 0.783172 0.817436 -0.130995
C31   C     C_3   0.746143 0.069661 0.372949 -0.139682
C32   C     C_3   0.224779 0.935175 0.649494 -0.133098
C33   C     C_3   0.547373 0.212097 0.599760 -0.128673
C34   C     C_R   0.422464 0.620238 0.911099 0.277622
C35   C     C_3   0.427434 0.791821 0.424946 -0.123623
C36   C     C_R   0.731070 0.535254 0.046439 -0.127874
C37   C     C_R   0.276187 0.631265 0.960331 -0.101412
C38   C     C_R   0.926546 0.063122 0.446547 0.253819
C39   C     C_R   0.069603 0.936582 0.557001 0.246715
C40   C     C_R   0.931950 0.933368 0.447447 -0.184727
Cu1   Cu    Cu3+1 0.140660 0.500020 0.500000 1.042393
Cu2   Cu    Cu3+1 0.859340 0.499980 0.500000 1.032635
H1    H     H_    0.808553 0.525634 0.082621 0.161602
H2    H     H_    0.882104 0.353058 0.268942 0.165645
H3    H     H_    0.881923 0.368074 0.154322 0.076073
H4    H     H_    0.255680 0.315593 0.757460 0.144354
H5    H     H_    0.076490 0.276090 0.750502 0.095693
H6    H     H_    0.109323 0.301465 0.858282 0.100691
H7    H     H_    0.497550 0.780507 0.159869 0.112144
H8    H     H_    0.694941 0.761655 0.133976 0.103324
H9    H     H_    0.583509 0.761936 0.246610 0.166534
H10   H     H_    0.607855 0.794046 0.841187 0.122280
H11   H     H_    0.421311 0.844756 0.855307 0.105292
H12   H     H_    0.198596 0.662145 0.926574 0.144638
H13   H     H_    0.540772 0.813680 0.746540 0.138222
H14   H     H_    0.681402 0.139959 0.349788 0.124971
H15   H     H_    0.672523 0.024562 0.434078 0.091755
H16   H     H_    0.782999 0.001249 0.318755 0.113837
H17   H     H_    0.309366 0.986000 0.596187 0.077472
H18   H     H_    0.282641 0.868586 0.680980 0.155224
H19   H     H_    0.164787 0.998905 0.702443 0.107333
H20   H     H_    0.546529 0.188285 0.530933 0.100532
H21   H     H_    0.437424 0.195935 0.647377 0.068757
H22   H     H_    0.623053 0.147632 0.618564 0.143743
H23   H     H_    0.995171 0.478974 0.950202 0.110950
H24   H     H_    0.543893 0.821086 0.398695 0.051777
H25   H     H_    0.390491 0.800939 0.498707 0.150928
H26   H     H_    0.362755 0.856760 0.397027 0.138732
H27   H     H_    0.320583 0.352737 0.592955 0.117952
H28   H     H_    0.679126 0.646536 0.405954 0.142831
H29   H     H_    0.004359 0.632040 0.062738 0.104020
H30   H     H_    0.885474 0.879192 0.404212 0.118580
H31   H     H_    0.113881 0.122201 0.596821 0.101922
H32   H     H_    0.351602 0.487454 0.219232 0.199402
H33   H     H_    0.646719 0.526440 0.774426 0.220145
H34   H     H_    0.720232 0.399602 0.243255 0.162053
N1    N     N_R   0.352080 0.500030 0.499980 -0.244556
N2    N     N_R   0.647920 0.499970 0.500020 -0.247862
O1    O     O_R   0.118740 0.319660 0.500000 -0.546779
O2    O     O_3   0.113444 0.460273 0.779219 -0.526000
O3    O     O_3   0.564418 0.602257 0.180002 -0.552647
O4    O     O_3   0.461018 0.658329 0.822882 -0.566282
O5    O     O_3   0.867494 0.130343 0.389213 -0.558229
O6    O     O_3   0.126652 0.867612 0.614751 -0.543410
O7    O     O_3   0.596381 0.335081 0.606128 -0.523807
O8    O     O_3   0.404559 0.670255 0.397934 -0.518401
O9    O     O_R   0.881260 0.680340 0.500000 -0.538354
O10   O     O_R   0.881170 0.319630 0.500010 -0.425637
O11   O     O_R   0.118830 0.680370 0.499990 -0.424331
O12   O     O_R   0.055570 0.500030 0.629830 -0.449382
O13   O     O_R   0.944430 0.499970 0.370170 -0.473320
O14   O     O_R   0.818000 0.500000 0.629840 -0.480932
O15   O     O_R   0.182000 0.500000 0.370160 -0.477093
O16   O     O_3   0.879618 0.536473 0.222291 -0.552655

loop_
_geom_bond_atom_site_label_1
_geom_bond_atom_site_label_2
_ccdc_geom_bond_type
Cu1   O11   S    
C21   C26   A    
C11   C18   A    
C18   H33   S    
C38   O5    S    
C34   C37   A    
Cu1   Cu2   S    
C28   H5    S    
C29   H7    S    
C28   H4    S    
C31   H16   S    
C19   C21   A    
C32   H19   S    
Cu1   N1    S    
C35   O8    S    
C20   C25   A    
C39   O6    S    
C31   O5    S    
Cu2   O13   S    
C23   C26   A    
C33   O7    S    
C3    C12   S    
C27   H2    S    
Cu1   O15   S    
C33   H20   S    
C31   H14   S    
C23   O3    S    
Cu2   O14   S    
C25   C34   A    
C7    N1    A    
C5    O7    S    
C27   H3    S    
C1    O10   A    
Cu1   O12   S    
C3    C39   A    
C8    N2    A    
C2    C39   A    
C9    O14   A    
C29   H8    S    
C32   O6    S    
C30   H11   S    
C13   C19   A    
C12   O11   A    
C5    C7    A    
C6    N1    A    
C6    C8    A    
C10   O15   A    
C25   C26   A    
C16   O2    S    
C30   O4    S    
C2    C4    A    
C29   O3    S    
C11   C16   A    
C35   H25   S    
C33   H21   S    
C24   C37   A    
C9    C11   S    
C2    H31   S    
C37   H12   S    
C15   C24   A    
C20   C22   A    
C10   O13   A    
Cu2   N2    S    
C1    O1    A    
C14   C16   A    
Cu2   O10   S    
C32   H18   S    
C27   H34   S    
C15   H29   S    
Cu1   O1    S    
C29   H9    S    
C15   C17   A    
C30   H10   S    
C28   H6    S    
C40   H30   S    
C12   O9    A    
C35   H24   S    
C19   H32   S    
C4    C38   A    
C27   O16   S    
C10   C13   S    
C9    O12   A    
C3    C40   A    
Cu2   O9    S    
C22   C36   A    
C30   H13   S    
C8    H28   S    
C6    O8    S    
C13   C17   A    
C1    C4    S    
C31   H15   S    
C7    H27   S    
C38   C40   A    
C14   C22   A    
C35   H26   S    
C33   H22   S    
C14   H23   S    
C18   C20   A    
C28   O2    S    
C23   C36   A    
C21   C24   A    
C36   H1    S    
C17   O16   S    
C34   O4    S    
C32   H17   S    
C5    N2    A    
