data_mof_unit_9912.cif
_audit_creation_date              2012-12-10T17:08:31-0500
_audit_creation_method            fapswitch 2.2
_symmetry_space_group_name_H-M    P1
_symmetry_Int_Tables_number       1
_space_group_crystal_system       triclinic
_cell_length_a                    18.222206
_cell_length_b                    18.341696
_cell_length_c                    34.480225
_cell_angle_alpha                 89.991715
_cell_angle_beta                  89.995529
_cell_angle_gamma                 89.921944
_cell_volume                      11524.1824481

loop_
_atom_site_label
_atom_site_type_symbol
_atom_type_description
_atom_site_fract_x
_atom_site_fract_y
_atom_site_fract_z
_atom_type_partial_charge
C1    C     C_R   0.000003 0.499950 0.894308 0.766526
C2    C     C_R   0.958608 0.553156 0.791072 -0.094828
C3    C     C_R   0.576032 0.637113 0.016497 0.506650
C4    C     C_R   0.628782 0.582608 0.010877 0.503607
C5    C     C_R   0.756720 0.188863 0.894036 0.513419
C6    C     C_R   0.371215 0.417390 0.010870 0.504095
C7    C     C_R   0.243250 0.811268 0.894054 0.513205
C8    C     C_R   0.687037 0.259382 0.393849 0.507748
C9    C     C_R   0.920625 0.862926 0.524489 0.511808
C10   C     C_R   0.311837 0.741667 0.393465 0.506919
C11   C     C_R   0.112934 0.172642 0.571933 0.504591
C12   C     C_R   0.165062 0.116293 0.570420 0.482103
C13   C     C_R   0.452875 0.048330 0.790845 -0.091481
C14   C     C_R   0.257963 0.687399 0.394218 0.508053
C15   C     C_R   0.866271 0.916892 0.524475 0.507399
C16   C     C_R   0.741054 0.313498 0.394524 0.510524
C17   C     C_R   0.265151 0.789376 0.963320 -0.037298
C18   C     C_R   0.273606 0.326180 0.005437 -0.025577
C19   C     C_R   0.734839 0.210667 0.963310 -0.037382
C20   C     C_R   0.726393 0.673816 0.005442 -0.025804
C21   C     C_R   0.672941 0.729237 0.007324 -0.017853
C22   C     C_R   0.789454 0.265095 0.963140 -0.025058
C23   C     C_R   0.327057 0.270761 0.007315 -0.017833
C24   C     C_R   0.040872 0.446068 0.791085 -0.094294
C25   C     C_R   0.210550 0.734935 0.963144 -0.025002
C26   C     C_R   0.764353 0.290184 0.463525 -0.038311
C27   C     C_R   0.772261 0.825838 0.508976 -0.030835
C28   C     C_R   0.235257 0.710169 0.463292 -0.037917
C29   C     C_R   0.239003 0.186071 0.524206 -0.033608
C30   C     C_R   0.185594 0.241863 0.524590 -0.037782
C31   C     C_R   0.289756 0.764733 0.463072 -0.021705
C32   C     C_R   0.826537 0.770947 0.509129 -0.029469
C33   C     C_R   0.709872 0.235620 0.463330 -0.024248
C34   C     C_R   0.194136 0.697933 0.998173 -0.201884
C35   C     C_R   0.043344 0.449084 0.290897 -0.105582
C36   C     C_R   0.305404 0.197402 0.002483 -0.204541
C37   C     C_R   0.805877 0.302053 0.998175 -0.201976
C38   C     C_R   0.694595 0.802597 0.002488 -0.204597
C39   C     C_R   0.801217 0.693528 0.001110 -0.204755
C40   C     C_R   0.698818 0.193485 0.998568 -0.219220
C41   C     C_R   0.198782 0.306469 0.001110 -0.204687
C42   C     C_R   0.301180 0.806518 0.998576 -0.218949
C43   C     C_R   0.694302 0.197766 0.498216 -0.206930
C44   C     C_R   0.805668 0.697827 0.501983 -0.202051
C45   C     C_R   0.306241 0.801670 0.498105 -0.204415
C46   C     C_R   0.457394 0.052031 0.291116 -0.097155
C47   C     C_R   0.195650 0.303820 0.500918 -0.195438
C48   C     C_R   0.302058 0.194406 0.500634 -0.191954
C49   C     C_R   0.199070 0.693188 0.498516 -0.221805
C50   C     C_R   0.698474 0.806382 0.501311 -0.198866
C51   C     C_R   0.801357 0.306374 0.498619 -0.210685
C52   C     C_R   0.229819 0.715978 0.032946 0.393731
C53   C     C_R   0.231013 0.178285 0.999516 0.383124
C54   C     C_R   0.770195 0.283970 0.032947 0.394045
C55   C     C_R   0.768987 0.821715 0.999519 0.382925
C56   C     C_R   0.822029 0.766931 0.997302 0.405885
C57   C     C_R   0.950433 0.546748 0.290881 -0.089726
C58   C     C_R   0.719276 0.227120 0.033528 0.362098
C59   C     C_R   0.177971 0.233069 0.997301 0.405556
C60   C     C_R   0.280742 0.772824 0.033531 0.361489
C61   C     C_R   0.731241 0.214689 0.532811 0.392736
C62   C     C_R   0.731750 0.678823 0.496529 0.385676
C63   C     C_R   0.271239 0.782867 0.532972 0.395716
C64   C     C_R   0.258779 0.312045 0.478096 0.397415
C65   C     C_R   0.310814 0.255931 0.476838 0.386047
C66   C     C_R   0.219944 0.726394 0.533501 0.366647
C67   C     C_R   0.678690 0.733625 0.494285 0.404866
C68   C     C_R   0.541989 0.946781 0.291094 -0.095146
C69   C     C_R   0.782376 0.271301 0.533401 0.376007
C70   C     C_R   0.450124 0.045006 0.831668 0.412640
C71   C     C_R   0.038874 0.444995 0.831954 0.385280
C72   C     C_R   0.549942 0.955033 0.831667 0.412500
C73   C     C_R   0.960937 0.554533 0.831925 0.385777
C74   C     C_R   0.948380 0.543982 0.331755 0.414530
C75   C     C_R   0.539704 0.945384 0.331952 0.384536
C76   C     C_R   0.048667 0.454574 0.331527 0.396521
C77   C     C_R   0.460068 0.053641 0.331939 0.388760
C78   C     C_3   0.263904 0.622790 0.072435 -0.261089
C79   C     C_R   0.500075 0.000072 0.770386 -0.166865
C80   C     C_3   0.182000 0.079589 0.029911 -0.213321
C81   C     C_3   0.736001 0.377037 0.072475 -0.265094
C82   C     C_3   0.817998 0.920393 0.029913 -0.212835
C83   C     C_3   0.909370 0.788560 0.951800 -0.269987
C84   C     C_3   0.730385 0.165745 0.090581 -0.208967
C85   C     C_3   0.090639 0.211472 0.951800 -0.269706
C86   C     C_3   0.269696 0.834114 0.090605 -0.205823
C87   C     C_3   0.763188 0.116705 0.569302 -0.234803
C88   C     C_3   0.680162 0.577293 0.522800 -0.219916
C89   C     C_3   0.239309 0.876331 0.572534 -0.267190
C90   C     C_R   0.999710 0.499581 0.770652 -0.164350
C91   C     C_3   0.312529 0.423358 0.473817 -0.276102
C92   C     C_3   0.355440 0.241221 0.415896 -0.224713
C93   C     C_3   0.230690 0.664670 0.590500 -0.196193
C94   C     C_3   0.596477 0.716152 0.445749 -0.274065
C95   C     C_3   0.774986 0.330180 0.591368 -0.220429
C96   C     C_3   0.085045 0.713900 0.860706 -0.275598
C97   C     C_3   0.548709 0.329582 0.020917 -0.270877
C98   C     C_3   0.914987 0.286135 0.860698 -0.274521
C99   C     C_3   0.451292 0.670416 0.020968 -0.270634
C100  C     C_3   0.608689 0.490083 0.969019 -0.230008
C101  C     C_R   0.997007 0.497946 0.270410 -0.164302
C102  C     C_3   0.760388 0.081190 0.861114 -0.273510
C103  C     C_3   0.391096 0.510059 0.969050 -0.230985
C104  C     C_3   0.239463 0.918965 0.861148 -0.272491
C105  C     C_3   0.583013 0.215537 0.361293 -0.278826
C106  C     C_3   0.045095 0.844238 0.512614 -0.326373
C107  C     C_3   0.415519 0.785967 0.360738 -0.277149
C108  C     C_3   0.988122 0.188539 0.582111 -0.255125
C109  C     C_3   0.105441 0.008336 0.574836 -0.210752
C110  C     C_3   0.264812 0.579202 0.362079 -0.238981
C111  C     C_3   0.886809 0.029464 0.499612 -0.343617
C112  C     C_R   0.500009 0.000003 0.894292 0.781517
C113  C     C_R   0.499677 0.999429 0.270678 -0.164835
C114  C     C_3   0.736857 0.421960 0.362324 -0.276565
C115  C     C_3   0.708502 0.873318 0.786556 -0.151080
C116  C     C_3   0.804883 0.641033 0.790025 -0.137864
C117  C     C_3   0.291668 0.126891 0.786498 -0.146530
C118  C     C_3   0.194234 0.357377 0.789842 -0.135607
C119  C     C_3   0.081382 0.282415 0.296460 -0.168981
C120  C     C_3   0.301501 0.135102 0.290703 -0.140042
C121  C     C_3   0.789441 0.625725 0.286743 -0.149707
C122  C     C_3   0.697468 0.862153 0.290172 -0.139176
C123  C     C_3   0.163227 0.454698 0.144223 -0.212932
C124  C     C_R   0.591273 0.901618 0.769932 0.513297
C125  C     C_3   0.329843 0.047455 0.151151 -0.179475
C126  C     C_3   0.835841 0.546017 0.143463 -0.237602
C127  C     C_3   0.669851 0.951807 0.151315 -0.180996
C128  C     C_3   0.663467 0.953403 0.643908 -0.233176
C129  C     C_3   0.831174 0.551752 0.651088 -0.176690
C130  C     C_3   0.336728 0.048230 0.643941 -0.187663
C131  C     C_3   0.168201 0.446283 0.651160 -0.163691
C132  C     C_R   0.918184 0.606135 0.770040 0.505282
C133  C     C_R   0.408932 0.098576 0.769948 0.512445
C134  C     C_R   0.080979 0.392838 0.770057 0.505096
C135  C     C_R   0.083907 0.395930 0.270215 0.520597
C136  C     C_R   0.415511 0.103932 0.270139 0.507743
C137  C     C_R   0.906454 0.596900 0.269964 0.511099
C138  C     C_R   0.583544 0.894699 0.270057 0.505656
C139  C     C_R   0.082474 0.394476 0.229754 0.327070
C140  C     C_R   0.500007 0.999795 0.394310 0.768936
C141  C     C_R   0.419063 0.106305 0.229747 0.314642
C142  C     C_R   0.913095 0.602198 0.229688 0.318687
C143  C     C_R   0.579976 0.892510 0.229649 0.314700
C144  C     C_R   0.584614 0.896238 0.729673 0.318634
C145  C     C_R   0.921986 0.608433 0.729646 0.314837
C146  C     C_R   0.415692 0.104065 0.729701 0.318598
C147  C     C_R   0.076999 0.390416 0.729661 0.313209
C148  C     C_R   0.042299 0.447716 0.208881 -0.151707
C149  C     C_R   0.456473 0.050970 0.209112 -0.157297
C150  C     C_R   0.954244 0.549751 0.208834 -0.150324
C151  C     C_R   0.999943 0.499996 0.394294 0.780971
C152  C     C_R   0.542868 0.948125 0.209073 -0.154695
C153  C     C_R   0.543781 0.948877 0.708819 -0.151579
C154  C     C_R   0.957857 0.552073 0.709048 -0.154668
C155  C     C_R   0.456458 0.051400 0.708830 -0.150386
C156  C     C_R   0.041376 0.446918 0.709048 -0.154922
C157  C     C_R   0.997533 0.498194 0.229373 -0.113427
C158  C     C_R   0.499668 0.999504 0.229662 -0.104513
C159  C     C_R   0.500090 0.000102 0.729347 -0.109705
C160  C     C_R   0.999658 0.499531 0.729625 -0.104117
C161  C     C_R   0.047266 0.453232 0.168120 0.428192
C162  C     C_R   0.500023 0.000009 0.851860 -0.265378
C163  C     C_R   0.450131 0.044234 0.168456 0.404962
C164  C     C_R   0.951375 0.546027 0.167978 0.429530
C165  C     C_R   0.549478 0.955186 0.168439 0.404754
C166  C     C_R   0.547562 0.953274 0.668004 0.429844
C167  C     C_R   0.951331 0.545451 0.668395 0.405273
C168  C     C_R   0.452644 0.047040 0.668015 0.421690
C169  C     C_R   0.048057 0.453626 0.668391 0.400396
C170  C     C_R   0.999676 0.499901 0.148032 -0.255017
C171  C     C_R   0.499914 0.999843 0.148272 -0.256364
C172  C     C_R   0.499999 0.000057 0.647995 -0.251473
C173  C     C_R   0.999984 0.499845 0.852040 -0.272781
C174  C     C_R   0.999856 0.499711 0.648237 -0.256185
C175  C     C_R   0.000017 0.499994 0.105688 0.892182
C176  C     C_R   0.499988 0.999980 0.105839 0.930760
C177  C     C_R   0.499968 0.000008 0.605676 0.890417
C178  C     C_R   0.999979 0.499909 0.605827 0.932962
C179  C     C_R   0.858978 0.638895 0.000529 0.864172
C180  C     C_R   0.359509 0.860510 0.999758 0.876137
C181  C     C_R   0.141023 0.361101 0.000529 0.864467
C182  C     C_R   0.640492 0.139489 0.999753 0.876236
C183  C     C_R   0.139412 0.640456 0.999451 0.865915
C184  C     C_R   0.999193 0.499785 0.351870 -0.268107
C185  C     C_R   0.640077 0.860196 0.000209 0.890432
C186  C     C_R   0.860589 0.359541 0.999453 0.866279
C187  C     C_R   0.359921 0.139805 0.000207 0.890604
C188  C     C_R   0.359535 0.139474 0.500186 0.886160
C189  C     C_R   0.859554 0.360483 0.499775 0.880993
C190  C     C_R   0.640757 0.860915 0.500451 0.865644
C191  C     C_R   0.140548 0.639417 0.499723 0.873466
C192  C     C_R   0.639404 0.140457 0.499445 0.862175
C193  C     C_R   0.140552 0.360790 0.499660 0.894806
C194  C     C_R   0.360731 0.859398 0.499380 0.863834
C195  C     C_R   0.499984 0.999609 0.352044 -0.273144
C196  C     C_R   0.860225 0.640142 0.500295 0.893582
C197  C     C_R   0.172906 0.719595 0.928165 -0.362782
C198  C     C_R   0.400741 0.289453 0.015393 -0.345116
C199  C     C_R   0.827098 0.280469 0.928160 -0.362749
C200  C     C_R   0.599256 0.710541 0.015406 -0.345685
C201  C     C_R   0.703311 0.600513 0.008177 -0.357009
C202  C     C_R   0.719067 0.173297 0.928479 -0.325788
C203  C     C_R   0.296685 0.399483 0.008174 -0.356333
C204  C     C_R   0.280905 0.826798 0.928495 -0.325727
C205  C     C_R   0.671671 0.220841 0.428453 -0.350204
C206  C     C_R   0.547257 0.951787 0.790839 -0.091833
C207  C     C_R   0.899868 0.789884 0.518034 -0.324709
C208  C     C_R   0.327412 0.780040 0.428090 -0.357667
C209  C     C_R   0.123953 0.235340 0.549165 -0.316542
C210  C     C_R   0.228026 0.123628 0.547443 -0.319899
C211  C     C_R   0.219904 0.672305 0.428582 -0.333576
C212  C     C_R   0.792808 0.898283 0.517682 -0.331505
C213  C     C_R   0.779301 0.328435 0.428863 -0.328401
C214  C     C_R   0.188991 0.757401 0.893432 0.505559
C215  C     C_R   0.423964 0.362881 0.016484 0.507192
C216  C     C_R   0.810997 0.242713 0.893421 0.505327
H1    H     H_    0.131074 0.678196 0.927786 0.167869
H2    H     H_    0.940946 0.747905 0.521184 0.168198
H3    H     H_    0.981507 0.169483 0.551624 0.132892
H4    H     H_    0.124318 0.992260 0.545351 0.135604
H5    H     H_    0.050073 0.033688 0.573111 0.222632
H6    H     H_    0.099860 0.958073 0.592445 0.202501
H7    H     H_    0.233116 0.547015 0.383654 0.141777
H8    H     H_    0.324613 0.576507 0.368665 0.152711
H9    H     H_    0.256295 0.553315 0.333356 0.214586
H10   H     H_    0.831647 0.033255 0.485899 0.172505
H11   H     H_    0.927564 0.007112 0.478665 0.183510
H12   H     H_    0.904137 0.085696 0.507046 0.182859
H13   H     H_    0.369004 0.821682 0.427676 0.166725
H14   H     H_    0.771265 0.453502 0.382964 0.142063
H15   H     H_    0.677720 0.426753 0.370152 0.163058
H16   H     H_    0.743961 0.446961 0.333275 0.190491
H17   H     H_    0.382302 0.059139 0.874751 0.316125
H18   H     H_    0.050565 0.380298 0.876863 0.313852
H19   H     H_    0.617698 0.940804 0.874767 0.316103
H20   H     H_    0.949689 0.619619 0.876695 0.313655
H21   H     H_    0.881783 0.558806 0.375316 0.316503
H22   H     H_    0.551548 0.880393 0.376688 0.312861
H23   H     H_    0.118029 0.443172 0.374323 0.330165
H24   H     H_    0.085033 0.279632 0.551408 0.153868
H25   H     H_    0.449243 0.119201 0.376398 0.310517
H26   H     H_    0.742556 0.835208 0.803913 0.186439
H27   H     H_    0.716290 0.928957 0.798809 0.123111
H28   H     H_    0.728941 0.871365 0.756185 0.179024
H29   H     H_    0.774351 0.683526 0.806296 0.188388
H30   H     H_    0.796925 0.588333 0.805505 0.148421
H31   H     H_    0.780806 0.638057 0.760414 0.165214
H32   H     H_    0.257586 0.164932 0.803879 0.185659
H33   H     H_    0.283811 0.071196 0.798677 0.123021
H34   H     H_    0.271316 0.129008 0.756115 0.182801
H35   H     H_    0.267736 0.079651 0.547813 0.150117
H36   H     H_    0.224616 0.314867 0.806182 0.187930
H37   H     H_    0.202646 0.410187 0.805140 0.147869
H38   H     H_    0.218111 0.359890 0.760172 0.166055
H39   H     H_    0.033314 0.296430 0.314960 0.158466
H40   H     H_    0.114555 0.241385 0.312350 0.176541
H41   H     H_    0.062615 0.256760 0.268961 0.141063
H42   H     H_    0.269805 0.176746 0.306980 0.187899
H43   H     H_    0.295753 0.082403 0.306457 0.140521
H44   H     H_    0.276957 0.130800 0.261243 0.161351
H45   H     H_    0.755614 0.664132 0.304037 0.188105
H46   H     H_    0.178896 0.629892 0.427565 0.178185
H47   H     H_    0.781496 0.570236 0.299158 0.121981
H48   H     H_    0.768881 0.627478 0.256391 0.178564
H49   H     H_    0.728838 0.820201 0.306401 0.190018
H50   H     H_    0.704199 0.914901 0.305761 0.147844
H51   H     H_    0.721614 0.865864 0.260598 0.164149
H52   H     H_    0.086039 0.316834 0.192520 0.360749
H53   H     H_    0.420947 0.181607 0.190803 0.373294
H54   H     H_    0.915976 0.681333 0.193108 0.375003
H55   H     H_    0.577795 0.817562 0.190512 0.372461
H56   H     H_    0.582057 0.817530 0.692823 0.375034
H57   H     H_    0.752385 0.941297 0.519805 0.164861
H58   H     H_    0.926144 0.683552 0.690638 0.373399
H59   H     H_    0.418534 0.182992 0.692993 0.375423
H60   H     H_    0.072422 0.315340 0.690636 0.380514
H61   H     H_    0.153317 0.506476 0.128227 0.118457
H62   H     H_    0.187269 0.466305 0.173247 0.184596
H63   H     H_    0.204188 0.422798 0.127505 0.190396
H64   H     H_    0.289422 0.075894 0.132422 0.175611
H65   H     H_    0.333197 0.989854 0.141099 0.134488
H66   H     H_    0.308787 0.049370 0.181401 0.157651
H67   H     H_    0.795751 0.578277 0.126353 0.192650
H68   H     H_    0.820547 0.370607 0.427816 0.175223
H69   H     H_    0.845593 0.494012 0.127655 0.123844
H70   H     H_    0.810825 0.534915 0.172315 0.168613
H71   H     H_    0.710322 0.923395 0.132605 0.176064
H72   H     H_    0.666702 0.009484 0.141358 0.134388
H73   H     H_    0.690705 0.949624 0.181599 0.157952
H74   H     H_    0.703869 0.921091 0.627032 0.193902
H75   H     H_    0.654079 0.005390 0.627999 0.125393
H76   H     H_    0.687951 0.964552 0.672880 0.168590
H77   H     H_    0.833005 0.494028 0.641113 0.134088
H78   H     H_    0.810157 0.554366 0.681332 0.158565
H79   H     H_    0.319100 0.645031 0.079294 0.205044
H80   H     H_    0.791525 0.581146 0.632314 0.178908
H81   H     H_    0.296134 0.081890 0.628005 0.219910
H82   H     H_    0.345229 0.997159 0.627112 0.119111
H83   H     H_    0.312966 0.035623 0.672919 0.167373
H84   H     H_    0.207649 0.416479 0.632455 0.186872
H85   H     H_    0.166981 0.504011 0.641168 0.133222
H86   H     H_    0.189045 0.443484 0.681430 0.156000
H87   H     H_    0.266743 0.585719 0.046875 0.148007
H88   H     H_    0.246278 0.589677 0.097657 0.174280
H89   H     H_    0.439642 0.246632 0.021392 0.160142
H90   H     H_    0.127377 0.103970 0.036055 0.194718
H91   H     H_    0.219803 0.089335 0.054763 0.150892
H92   H     H_    0.174448 0.019779 0.027318 0.170130
H93   H     H_    0.680806 0.354704 0.079260 0.205209
H94   H     H_    0.733209 0.414233 0.046960 0.149207
H95   H     H_    0.753495 0.410031 0.097758 0.173014
H96   H     H_    0.872619 0.896007 0.036055 0.195066
H97   H     H_    0.780190 0.910633 0.054766 0.150943
H98   H     H_    0.825552 0.980204 0.027319 0.169905
H99   H     H_    0.876075 0.831736 0.937453 0.191052
H100  H     H_    0.868944 0.321854 0.927783 0.167852
H101  H     H_    0.899653 0.734929 0.937596 0.141076
H102  H     H_    0.968059 0.802459 0.947551 0.177625
H103  H     H_    0.777021 0.198001 0.102204 0.195678
H104  H     H_    0.751334 0.117575 0.074293 0.146735
H105  H     H_    0.698689 0.144939 0.115711 0.166060
H106  H     H_    0.123938 0.168307 0.937450 0.191157
H107  H     H_    0.100360 0.265113 0.937598 0.141101
H108  H     H_    0.031951 0.197576 0.947551 0.177574
H109  H     H_    0.223017 0.801879 0.102203 0.197241
H110  H     H_    0.248812 0.882353 0.074345 0.146130
H111  H     H_    0.560356 0.753361 0.021406 0.160148
H112  H     H_    0.301400 0.854810 0.115751 0.166240
H113  H     H_    0.821849 0.133394 0.568329 0.184230
H114  H     H_    0.751467 0.076419 0.546033 0.148090
H115  H     H_    0.753813 0.089234 0.597517 0.177001
H116  H     H_    0.624859 0.600962 0.527958 0.196225
H117  H     H_    0.715250 0.584782 0.548951 0.152685
H118  H     H_    0.673179 0.517787 0.518410 0.171398
H119  H     H_    0.182002 0.856105 0.575218 0.190609
H120  H     H_    0.243421 0.916980 0.548661 0.133922
H121  H     H_    0.253208 0.904629 0.599976 0.196841
H122  H     H_    0.741736 0.555716 0.007465 0.184712
H123  H     H_    0.369174 0.401647 0.477272 0.201331
H124  H     H_    0.289723 0.439344 0.502541 0.159368
H125  H     H_    0.316006 0.473444 0.455865 0.173672
H126  H     H_    0.312643 0.276842 0.402803 0.209110
H127  H     H_    0.337586 0.183236 0.415008 0.175521
H128  H     H_    0.405429 0.246168 0.397747 0.189608
H129  H     H_    0.277134 0.696719 0.602484 0.196301
H130  H     H_    0.251906 0.616817 0.574047 0.146631
H131  H     H_    0.198645 0.643356 0.615387 0.167206
H132  H     H_    0.631503 0.674443 0.431326 0.194158
H133  H     H_    0.677805 0.131164 0.927376 0.178505
H134  H     H_    0.607400 0.771064 0.433272 0.147481
H135  H     H_    0.538429 0.702468 0.439393 0.175268
H136  H     H_    0.728924 0.297757 0.603493 0.200061
H137  H     H_    0.753290 0.379036 0.575949 0.149050
H138  H     H_    0.808397 0.349935 0.616113 0.168644
H139  H     H_    0.051215 0.744941 0.881966 0.133087
H140  H     H_    0.086626 0.654864 0.867872 0.162479
H141  H     H_    0.057817 0.719074 0.832059 0.225041
H142  H     H_    0.544428 0.299862 0.992872 0.159743
H143  H     H_    0.545053 0.292060 0.046150 0.180078
H144  H     H_    0.258254 0.444275 0.007473 0.184529
H145  H     H_    0.604007 0.354505 0.021701 0.197433
H146  H     H_    0.948769 0.255001 0.881943 0.133218
H147  H     H_    0.913507 0.345159 0.867886 0.162172
H148  H     H_    0.942202 0.280969 0.832045 0.225640
H149  H     H_    0.455545 0.700179 0.992929 0.159796
H150  H     H_    0.454985 0.707897 0.046210 0.179986
H151  H     H_    0.395992 0.645499 0.021767 0.197417
H152  H     H_    0.666024 0.487430 0.958003 0.150941
H153  H     H_    0.575072 0.527473 0.950721 0.149311
H154  H     H_    0.584776 0.434981 0.965864 0.202878
H155  H     H_    0.322154 0.868947 0.927396 0.178488
H156  H     H_    0.726765 0.049150 0.881907 0.139313
H157  H     H_    0.819791 0.076397 0.868351 0.157980
H158  H     H_    0.752347 0.056739 0.832002 0.192002
H159  H     H_    0.333691 0.512904 0.958155 0.151198
H160  H     H_    0.424484 0.472649 0.950648 0.149161
H161  H     H_    0.415138 0.565107 0.965892 0.203038
H162  H     H_    0.272974 0.951016 0.881980 0.139073
H163  H     H_    0.180032 0.923659 0.868341 0.157971
H164  H     H_    0.247560 0.943481 0.832051 0.192562
H165  H     H_    0.549192 0.245781 0.382869 0.147763
H166  H     H_    0.630099 0.179175 0.428043 0.168794
H167  H     H_    0.585352 0.156377 0.368109 0.161580
H168  H     H_    0.555291 0.221005 0.332794 0.224058
H169  H     H_    0.028779 0.836028 0.481779 0.175928
H170  H     H_    0.057107 0.791304 0.526922 0.192787
H171  H     H_    0.096932 0.875805 0.512421 0.173874
H172  H     H_    0.449676 0.755734 0.382172 0.131780
H173  H     H_    0.412983 0.845075 0.367658 0.162479
H174  H     H_    0.443014 0.780815 0.332160 0.224505
H175  H     H_    0.981316 0.248611 0.584037 0.188254
H176  H     H_    0.943242 0.163716 0.599333 0.208876
O1    O     O_3   0.000000 0.500000 0.999990 -0.514566
O2    O     O_R   1.000000 0.560750 0.412560 -0.610449
O3    O     O_3   0.623165 0.840753 0.288794 -0.536814
O4    O     O_3   0.120008 0.338735 0.211702 -0.695057
O5    O     O_3   0.387198 0.165471 0.211637 -0.698885
O6    O     O_3   0.880263 0.661207 0.211953 -0.707888
O7    O     O_3   0.611488 0.833240 0.211464 -0.709177
O8    O     O_3   0.617473 0.837245 0.711940 -0.707881
O9    O     O_3   0.891947 0.668498 0.711497 -0.708957
O10   O     O_3   0.382950 0.163152 0.711993 -0.705839
O11   O     O_3   0.106644 0.330138 0.711532 -0.701133
O12   O     O_3   0.098423 0.413156 0.147388 -0.580967
O13   O     O_R   0.439250 0.000000 0.412560 -0.627745
O14   O     O_3   0.398059 0.083351 0.147803 -0.589793
O15   O     O_3   0.901046 0.586808 0.147053 -0.577514
O16   O     O_3   0.601571 0.916106 0.147784 -0.590048
O17   O     O_3   0.598181 0.912619 0.647197 -0.578601
O18   O     O_3   0.900312 0.585856 0.647710 -0.590050
O19   O     O_3   0.402473 0.088243 0.647217 -0.587613
O20   O     O_3   0.098752 0.412867 0.647683 -0.590136
O21   O     O_R   0.000000 0.439250 0.412560 -0.623038
O22   O     O_R   0.000000 0.560690 0.087420 -0.607730
O23   O     O_R   0.439310 1.000000 0.087420 -0.627409
O24   O     O_R   0.000000 0.439310 0.087420 -0.610152
O25   O     O_R   0.560690 1.000000 0.087420 -0.627410
O26   O     O_R   0.500000 0.060690 0.587420 -0.608621
O27   O     O_R   0.939310 0.500000 0.587420 -0.629733
O28   O     O_R   0.500000 0.939310 0.587420 -0.608179
O29   O     O_3   0.500000 0.000000 0.999990 -0.506571
O30   O     O_R   0.060690 0.500000 0.587420 -0.626363
O31   O     O_R   0.853830 0.585440 0.977070 -0.660726
O32   O     O_R   0.414560 0.853830 0.977070 -0.661676
O33   O     O_R   0.146170 0.414560 0.977070 -0.660775
O34   O     O_R   0.585440 0.146170 0.977070 -0.661768
O35   O     O_R   0.146170 0.585440 0.977070 -0.667786
O36   O     O_R   0.585440 0.853830 0.977070 -0.643495
O37   O     O_R   0.853830 0.414560 0.977070 -0.667640
O38   O     O_R   0.414560 0.146170 0.977070 -0.643574
O39   O     O_R   0.353830 0.085440 0.477070 -0.654107
O40   O     O_3   0.500000 1.000000 0.499990 -0.514188
O41   O     O_R   0.914560 0.353830 0.477070 -0.652254
O42   O     O_R   0.646170 0.914560 0.477070 -0.656559
O43   O     O_R   0.085440 0.646170 0.477070 -0.655239
O44   O     O_R   0.646170 0.085440 0.477070 -0.666757
O45   O     O_R   0.085440 0.353830 0.477070 -0.629810
O46   O     O_R   0.353830 0.914560 0.477070 -0.661850
O47   O     O_R   0.914560 0.646170 0.477070 -0.643712
O48   O     O_R   0.085460 0.353830 0.022910 -0.593231
O49   O     O_R   0.646170 0.085460 0.022910 -0.627621
O50   O     O_R   0.914540 0.646170 0.022910 -0.592774
O51   O     O_3   0.000000 0.500000 0.499990 -0.505559
O52   O     O_R   0.353830 0.914540 0.022910 -0.627845
O53   O     O_R   0.914540 0.353830 0.022910 -0.595500
O54   O     O_R   0.353830 0.085460 0.022910 -0.628467
O55   O     O_R   0.085460 0.646170 0.022910 -0.594969
O56   O     O_R   0.646170 0.914540 0.022910 -0.628557
O57   O     O_R   0.585460 0.853830 0.522910 -0.597817
O58   O     O_R   0.146170 0.585460 0.522910 -0.634139
O59   O     O_R   0.414540 0.146170 0.522910 -0.617892
O60   O     O_R   0.853830 0.414540 0.522910 -0.635548
O61   O     O_R   0.414540 0.853830 0.522910 -0.595258
O62   O     O_R   0.060750 0.500000 0.912560 -0.626269
O63   O     O_R   0.853830 0.585460 0.522910 -0.630912
O64   O     O_R   0.585460 0.146170 0.522910 -0.600865
O65   O     O_R   0.146170 0.414540 0.522910 -0.654467
O66   O     O_3   0.212591 0.679453 0.066896 -0.595290
O67   O     O_3   0.211072 0.105999 0.994667 -0.604748
O68   O     O_3   0.787407 0.320471 0.066900 -0.596085
O69   O     O_3   0.788930 0.894003 0.994669 -0.604854
O70   O     O_3   0.894982 0.785479 0.991965 -0.588164
O71   O     O_3   0.683471 0.209348 0.067682 -0.612438
O72   O     O_3   0.105019 0.214524 0.991965 -0.588471
O73   O     O_R   0.500000 0.060750 0.912560 -0.613308
O74   O     O_3   0.316577 0.790528 0.067680 -0.612936
O75   O     O_3   0.715690 0.177255 0.566697 -0.600511
O76   O     O_3   0.712765 0.607019 0.489212 -0.607656
O77   O     O_3   0.289095 0.818401 0.567101 -0.591886
O78   O     O_3   0.266803 0.372873 0.454703 -0.607666
O79   O     O_3   0.372855 0.263140 0.453998 -0.623896
O80   O     O_3   0.184088 0.708729 0.567665 -0.605139
O81   O     O_3   0.606484 0.715604 0.486309 -0.593584
O82   O     O_3   0.820139 0.287113 0.567234 -0.619888
O83   O     O_3   0.156896 0.741914 0.857607 -0.568923
O84   O     O_R   0.939250 0.500000 0.912560 -0.626034
O85   O     O_3   0.495843 0.385666 0.023762 -0.539823
O86   O     O_3   0.843088 0.258249 0.857597 -0.569253
O87   O     O_3   0.504152 0.614320 0.023772 -0.539946
O88   O     O_3   0.607012 0.510645 0.008501 -0.552041
O89   O     O_3   0.737485 0.154655 0.859735 -0.563314
O90   O     O_3   0.392993 0.489356 0.008511 -0.551780
O91   O     O_3   0.262472 0.845534 0.859761 -0.563238
O92   O     O_3   0.654490 0.244421 0.358070 -0.570745
O93   O     O_3   0.991960 0.883609 0.533941 -0.601270
O94   O     O_3   0.344151 0.756766 0.357637 -0.568173
O95   O     O_R   0.500000 0.939250 0.912560 -0.613265
O96   O     O_3   0.055767 0.166831 0.598487 -0.580187
O97   O     O_3   0.156706 0.054665 0.593020 -0.625220
O98   O     O_3   0.239697 0.651913 0.360151 -0.567404
O99   O     O_3   0.884744 0.987747 0.533944 -0.605966
O100  O     O_3   0.759548 0.348482 0.360322 -0.571702
O101  O     O_3   0.398339 0.086009 0.851331 -0.699985
O102  O     O_3   0.074593 0.389426 0.851606 -0.719231
O103  O     O_3   0.601687 0.913980 0.851333 -0.699903
O104  O     O_3   0.925391 0.610255 0.851537 -0.718890
O105  O     O_3   0.896742 0.585031 0.351497 -0.700361
O106  O     O_R   0.560750 0.000000 0.412560 -0.625137
O107  O     O_3   0.575931 0.890129 0.351586 -0.718650
O108  O     O_3   0.103489 0.416457 0.350596 -0.695786
O109  O     O_3   0.424119 0.109031 0.351562 -0.733638
O110  O     O_3   0.634551 0.850914 0.789004 -0.524746
O111  O     O_3   0.879645 0.660843 0.788777 -0.537379
O112  O     O_3   0.365626 0.149242 0.789027 -0.525843
O113  O     O_3   0.119338 0.338024 0.788816 -0.536816
O114  O     O_3   0.125718 0.343990 0.289263 -0.516140
O115  O     O_3   0.375469 0.157517 0.288916 -0.525451
O116  O     O_3   0.863487 0.647848 0.289041 -0.524399
Zn1   Zn    Zn3+2 0.000000 0.586740 0.032740 1.023954
Zn2   Zn    Zn3+2 0.500000 0.913250 0.967240 0.975450
Zn3   Zn    Zn3+2 0.086750 0.500000 0.967240 0.944814
Zn4   Zn    Zn3+2 0.500000 0.086750 0.967240 0.975453
Zn5   Zn    Zn3+2 0.413250 0.000000 0.467240 0.954022
Zn6   Zn    Zn3+2 1.000000 0.413250 0.467240 0.981223
Zn7   Zn    Zn3+2 0.586750 0.000000 0.467240 0.949847
Zn8   Zn    Zn3+2 1.000000 0.586750 0.467240 0.981325
Zn9   Zn    Zn3+2 0.413260 1.000000 0.032740 0.981981
Zn10  Zn    Zn3+2 0.000000 0.413260 0.032740 1.022087
Zn11  Zn    Zn3+2 0.586740 1.000000 0.032740 0.981969
Zn12  Zn    Zn3+2 0.500000 0.086740 0.532740 1.015918
Zn13  Zn    Zn3+2 0.913260 0.500000 0.532740 0.979203
Zn14  Zn    Zn3+2 0.500000 0.913260 0.532740 1.022382
Zn15  Zn    Zn3+2 0.086740 0.500000 0.532740 0.974135
Zn16  Zn    Zn3+2 0.913250 0.500000 0.967240 0.944946

loop_
_geom_bond_atom_site_label_1
_geom_bond_atom_site_label_2
_ccdc_geom_bond_type
C172  C177  S    
C178  O30   A    
C13   C79   A    
O51   Zn6   S    
C153  C166  A    
C131  H86   S    
C68   C138  A    
C209  H24   S    
C181  O33   A    
C93   H131  S    
H58   O9    S    
C99   H151  S    
C152  C165  A    
C72   O103  S    
C98   H148  S    
C151  C184  S    
C127  H73   S    
C68   C75   A    
C135  C139  A    
C89   H119  S    
C128  O17   S    
O57   Zn14  S    
C115  H28   S    
C20   C201  A    
C100  H152  S    
C138  C143  A    
C123  H63   S    
O40   Zn5   S    
C13   C70   A    
O51   Zn13  S    
C137  O116  S    
C108  O96   S    
C181  O48   A    
C2    C90   A    
O31   Zn16  S    
C36   C53   A    
O44   Zn7   S    
C87   O75   S    
C128  H75   S    
C147  O11   S    
C6    C215  A    
C86   O74   S    
C42   C180  S    
C107  H172  S    
C118  O113  S    
C145  O9    S    
C169  C174  A    
C198  H89   S    
C18   C203  A    
C104  H164  S    
C161  O12   S    
C48   C65   A    
C77   O109  S    
C27   C50   A    
O40   Zn14  S    
C25   C34   A    
O1    Zn10  S    
C8    C16   A    
O27   Zn13  S    
C143  O7    S    
C110  H7    S    
C96   H140  S    
C216  O86   S    
C66   O80   S    
C94   H135  S    
C35   C76   A    
C44   C196  S    
C186  O37   A    
C40   C58   A    
C125  O14   S    
C127  H71   S    
C22   C199  A    
C29   C210  A    
C56   O70   S    
C123  O12   S    
C84   H103  S    
C9    C207  A    
C47   C64   A    
O49   Zn11  S    
C72   C206  A    
C29   C48   A    
C178  O27   A    
C120  H44   S    
O28   Zn14  S    
C83   H101  S    
C110  O98   S    
C190  O42   A    
C78   H88   S    
C92   H126  S    
C11   O96   S    
C87   H114  S    
C95   H136  S    
C120  O115  S    
C129  H77   S    
O23   Zn9   S    
C126  H67   S    
H60   O11   S    
C196  O47   A    
C103  O90   S    
C202  H133  S    
C130  O19   S    
C81   H94   S    
C92   H127  S    
C167  C174  A    
C151  O21   A    
C76   O108  S    
C214  O83   S    
C88   O76   S    
O29   Zn9   S    
C154  C167  A    
C16   O100  S    
C15   O99   S    
C99   H149  S    
C80   H91   S    
C95   O82   S    
C109  H5    S    
C43   C61   A    
C9    O93   S    
C61   O75   S    
C24   C134  A    
C45   C194  S    
C188  O39   A    
C187  O54   A    
C89   H121  S    
C13   C133  A    
C47   C193  S    
C86   H112  S    
C24   C90   A    
C46   C77   A    
C117  H34   S    
C123  H61   S    
O40   Zn7   S    
C48   C188  S    
H23   O108  S    
C151  O2    A    
C97   H142  S    
C102  H158  S    
C17   C25   A    
O29   Zn4   S    
C77   C195  A    
C6    C203  A    
C109  H4    S    
C96   H141  S    
C88   H116  S    
C78   H79   S    
C205  H166  S    
C176  O23   A    
C9    C15   A    
C106  H171  S    
C55   O69   S    
C20   C21   A    
C73   O104  S    
C23   C36   A    
C121  O116  S    
C51   C69   A    
O1    Zn1   S    
C98   H147  S    
C213  H68   S    
O62   Zn3   S    
C165  C171  A    
C137  C142  A    
C168  O19   S    
C166  C172  A    
C150  C157  A    
C127  O16   S    
C126  O15   S    
C164  C170  A    
C185  O36   A    
C119  H40   S    
C4    C201  A    
O63   Zn13  S    
C212  H57   S    
C28   C211  A    
C33   C205  A    
O55   Zn1   S    
C14   C211  A    
C130  H82   S    
C26   C213  A    
C132  C145  A    
C92   H128  S    
O73   Zn4   S    
C74   C184  A    
C104  O91   S    
C89   O77   S    
O61   Zn14  S    
C10   C208  A    
C85   H107  S    
C176  O25   A    
C52   C60   A    
C108  H3    S    
H19   O103  S    
O40   Zn12  S    
C103  H159  S    
C21   C38   A    
C78   O66   S    
C183  O55   A    
O30   Zn15  S    
O29   Zn11  S    
C96   O83   S    
C50   C67   A    
C106  O93   S    
C88   H117  S    
C186  O53   A    
C128  H74   S    
C107  H173  S    
O24   Zn10  S    
C84   O71   S    
C8    C205  A    
C58   O71   S    
C86   H110  S    
C54   O68   S    
C6    O90   S    
C140  O106  A    
O2    Zn8   S    
C139  C148  A    
C75   O107  S    
C49   C66   A    
C38   C55   A    
C155  C159  A    
C103  H160  S    
C156  C160  A    
C102  H156  S    
C10   C14   A    
C107  O94   S    
C35   C135  A    
C114  H15   S    
C134  O113  S    
C60   O74   S    
C85   O72   S    
C91   H124  S    
C146  O10   S    
C59   O72   S    
C106  H169  S    
C164  O15   S    
C15   C212  A    
C118  H37   S    
C28   C49   A    
C26   C33   A    
C2    C132  A    
C1    O62   A    
O26   Zn12  S    
O32   Zn2   S    
C54   C58   A    
C3    C200  A    
C57   C137  A    
C34   C183  S    
C39   C56   A    
C180  O32   A    
O1    Zn3   S    
C2    C73   A    
H25   O109  S    
C145  C154  A    
C87   H115  S    
C125  H65   S    
C43   C192  S    
C108  H176  S    
C91   O78   S    
C126  H70   S    
C161  C170  A    
C3    C4    A    
O84   Zn16  S    
C122  H50   S    
C117  H32   S    
C64   O78   S    
H17   O101  S    
C211  H46   S    
C46   C113  A    
C74   O105  S    
C131  H85   S    
C116  H30   S    
C93   H130  S    
C80   H90   S    
C39   C179  S    
O43   Zn8   S    
C136  O115  S    
C189  O41   A    
C125  H64   S    
H21   O105  S    
C57   C101  A    
C171  C176  S    
C68   C113  A    
C84   H105  S    
O22   Zn1   S    
C193  O45   A    
C26   C51   A    
C200  H111  S    
C215  O85   S    
C27   C212  A    
C144  O8    S    
C148  C157  A    
C192  O44   A    
C140  C195  S    
C191  O58   A    
C7    C214  A    
C19   C40   A    
C197  C214  A    
C69   O82   S    
C128  H76   S    
O47   Zn8   S    
C119  O114  S    
C150  C164  A    
C72   C162  A    
C114  O100  S    
C86   H109  S    
C4    O88   S    
C102  O89   S    
H20   O104  S    
C182  O49   A    
C55   C56   A    
H54   O6    S    
C110  H8    S    
C30   C209  A    
C63   O77   S    
C134  C147  A    
C23   C198  A    
O36   Zn2   S    
C111  H12   S    
H56   O8    S    
C84   H104  S    
C175  O24   A    
C121  H48   S    
C79   C159  A    
O1    Zn16  S    
O64   Zn12  S    
C82   H97   S    
C103  H161  S    
C70   C162  A    
C14   O98   S    
O29   Zn2   S    
C17   C42   A    
C105  H168  S    
C87   H113  S    
C146  C155  A    
O48   Zn10  S    
C139  O4    S    
C95   H137  S    
C132  O111  S    
C29   C30   A    
C163  C171  A    
C174  C178  S    
C51   C189  S    
C81   H93   S    
C208  H13   S    
C124  C206  A    
C63   C66   A    
C101  C157  A    
C189  O60   A    
C41   C181  S    
C177  O26   A    
C197  H1    S    
C198  C215  A    
C80   H92   S    
C97   O85   S    
C40   C182  S    
C170  C175  S    
C53   C59   A    
C78   H87   S    
C152  C158  A    
C89   H120  S    
C165  O16   S    
C204  H155  S    
C138  O3    S    
C20   C39   A    
C117  H33   S    
C133  O112  S    
C22   C37   A    
O52   Zn9   S    
C82   O69   S    
C109  O97   S    
C7    C204  A    
C115  H26   S    
O21   Zn6   S    
C155  C168  A    
C1    C173  S    
C8    O92   S    
C91   H125  S    
C104  H163  S    
C97   H143  S    
C147  C156  A    
O13   Zn5   S    
C53   O67   S    
O39   Zn5   S    
H55   O7    S    
C143  C152  A    
C70   O101  S    
C122  O3    S    
C83   O70   S    
C129  O18   S    
C194  O61   A    
C79   C206  A    
C96   H139  S    
C10   O94   S    
C193  O65   A    
C92   O79   S    
C105  O92   S    
C94   H134  S    
O46   Zn5   S    
C207  H2    S    
C166  O17   S    
C27   C32   A    
C111  H10   S    
C127  H72   S    
C28   C31   A    
O58   Zn15  S    
C98   O86   S    
C35   C101  A    
C175  O22   A    
C119  H39   S    
C120  H43   S    
C182  O34   A    
C83   H102  S    
C179  O31   A    
C130  H83   S    
C83   H99   S    
C36   C187  S    
C97   H145  S    
C64   C65   A    
C142  C150  A    
O56   Zn11  S    
C12   C210  A    
C31   C208  A    
C93   O80   S    
C129  H78   S    
C90   C160  A    
C203  H144  S    
C50   C190  S    
C85   H106  S    
C81   H95   S    
C82   H96   S    
C201  H122  S    
C168  C172  A    
C100  H154  S    
C31   C45   A    
C177  O28   A    
C133  C146  A    
C135  O114  S    
C99   H150  S    
C94   O81   S    
C121  H47   S    
C109  H6    S    
C88   H118  S    
C75   C195  A    
C163  O14   S    
C141  O5    S    
C115  O110  S    
O106  Zn7   S    
O33   Zn3   S    
C116  O111  S    
C199  H100  S    
C169  O20   S    
C194  O46   A    
C123  H62   S    
C141  C149  A    
C136  C141  A    
C102  H157  S    
C62   C67   A    
C148  C161  A    
O54   Zn9   S    
C183  O35   A    
C114  H16   S    
C167  O18   S    
C156  C169  A    
C185  O56   A    
C91   H123  S    
C117  O112  S    
C144  C153  A    
C106  H170  S    
O95   Zn2   S    
C3    O87   S    
C34   C52   A    
C118  H38   S    
C121  H45   S    
C37   C186  S    
C149  C158  A    
C116  H31   S    
C149  C163  A    
H53   O5    S    
C113  C158  A    
O41   Zn6   S    
C98   H146  S    
C105  H165  S    
C112  O73   A    
C94   H132  S    
O60   Zn13  S    
C12   O97   S    
C7    O91   S    
C5    O89   S    
C122  H51   S    
C1    O84   A    
C52   O66   S    
C192  O64   A    
C124  O110  S    
O51   Zn8   S    
C95   H138  S    
H59   O10   S    
C100  H153  S    
C130  H81   S    
C199  C216  A    
C33   C43   A    
C30   C47   A    
C19   C22   A    
O65   Zn15  S    
C41   C59   A    
O50   Zn1   S    
C93   H129  S    
O42   Zn7   S    
C18   C41   A    
C42   C60   A    
C5    C202  A    
C62   O76   S    
O45   Zn6   S    
C129  H80   S    
C44   C62   A    
C5    C216  A    
C140  O13   A    
C45   C63   A    
C19   C202  A    
C71   C173  A    
C57   C74   A    
C153  C159  A    
C17   C204  A    
C85   H108  S    
C154  C160  A    
O25   Zn11  S    
C18   C23   A    
O51   Zn15  S    
H52   O4    S    
C32   C44   A    
C179  O50   A    
C116  H29   S    
C32   C207  A    
C112  O95   A    
C115  H27   S    
C37   C54   A    
O38   Zn4   S    
C65   O79   S    
C107  H174  S    
C80   O67   S    
C104  H162  S    
C21   C200  A    
C210  H35   S    
H18   O102  S    
C61   C69   A    
C131  O20   S    
C180  O52   A    
C190  O57   A    
C119  H41   S    
C188  O59   A    
C110  H9    S    
C114  H14   S    
C111  O99   S    
C11   C12   A    
C142  O6    S    
C49   C191  S    
C38   C185  S    
C112  C162  S    
O34   Zn4   S    
C187  O38   A    
C111  H11   S    
O59   Zn12  S    
C118  H36   S    
C11   C209  A    
C82   H98   S    
C196  O63   A    
C120  H42   S    
O53   Zn10  S    
C81   O68   S    
C73   C173  A    
C16   C213  A    
C131  H84   S    
C99   O87   S    
C25   C197  A    
C105  H167  S    
C46   C136  A    
C71   O102  S    
C67   O81   S    
C191  O43   A    
C125  H66   S    
C24   C71   A    
C108  H175  S    
C126  H69   S    
O35   Zn3   S    
C100  O88   S    
C124  C144  A    
C76   C184  A    
H22   O107  S    
O37   Zn16  S    
C122  H49   S    
