data_mof_unit_9380.cif
_audit_creation_date              2012-12-10T17:35:32-0500
_audit_creation_method            fapswitch 2.2
_symmetry_space_group_name_H-M    P1
_symmetry_Int_Tables_number       1
_space_group_crystal_system       triclinic
_cell_length_a                    10.77531
_cell_length_b                    12.312851
_cell_length_c                    13.193557
_cell_angle_alpha                 116.561833
_cell_angle_beta                  77.814022
_cell_angle_gamma                 101.689791
_cell_volume                      1518.6473084

loop_
_atom_site_label
_atom_site_type_symbol
_atom_type_description
_atom_site_fract_x
_atom_site_fract_y
_atom_site_fract_z
_atom_type_partial_charge
C1    C     C_R   0.510396 0.854824 0.286620 0.866978
C2    C     C_3   0.121396 0.004399 0.504414 -0.300277
C3    C     C_3   0.047470 0.049540 0.630973 0.638456
C4    C     C_3   0.058937 0.871789 0.429485 0.132904
C5    C     C_R   0.330708 0.272469 0.019298 -0.132991
C6    C     C_R   0.456596 0.227158 0.834079 -0.042637
C7    C     C_R   0.595503 0.815957 0.086830 -0.172821
C8    C     C_R   0.623623 0.737226 0.972865 -0.110698
C9    C     C_R   0.579272 0.613422 0.934937 -0.143802
C10   C     C_R   0.499669 0.566088 0.010051 0.026325
C11   C     C_R   0.456822 0.649662 0.122899 0.044229
C12   C     C_R   0.739646 0.000570 0.500575 0.917532
C13   C     C_R   0.459635 0.438823 0.976060 0.075168
C14   C     C_R   0.371114 0.397755 0.051487 0.110745
C15   C     C_R   0.318256 0.481943 0.155793 -0.300118
C16   C     C_R   0.355323 0.607544 0.189984 0.392100
C17   C     C_R   0.504573 0.350553 0.868890 -0.210085
C18   C     C_R   0.372422 0.187460 0.910533 -0.182382
C19   C     C_R   0.516046 0.773174 0.163734 -0.071933
C20   C     C_R   0.704662 0.348777 0.330141 -0.209776
C21   C     C_R   0.326056 0.757726 0.644290 0.134479
C22   C     C_R   0.288581 0.660088 0.674918 -0.232161
C23   C     C_R   0.481912 0.145003 0.713267 0.766929
C24   C     C_R   0.353857 0.557336 0.620416 -0.138742
C25   C     C_R   0.458298 0.550788 0.533898 -0.009909
C26   C     C_R   0.493042 0.653246 0.505281 0.211509
C27   C     C_R   0.529527 0.447074 0.474921 -0.112647
C28   C     C_R   0.633323 0.448242 0.388838 0.022908
C29   C     C_R   0.665344 0.548678 0.362074 0.543048
C30   C     C_R   0.596913 0.648275 0.419057 -0.255363
C31   C     C_R   0.502994 0.341450 0.497255 0.111025
C32   C     C_R   0.673616 0.248323 0.356315 0.084506
C33   C     C_R   0.259875 0.001450 0.501534 0.850145
C34   C     C_3   0.960948 0.096360 0.456387 0.155744
C35   C     C_3   0.104133 0.087128 0.445821 0.128960
C36   C     C_3   0.901538 0.035854 0.625209 0.397805
C37   C     C_3   0.917714 0.873449 0.421426 0.303826
C38   C     C_3   0.877301 0.002499 0.501579 -0.353572
Cu1   Cu    Cu3+1 0.529690 0.098270 0.475420 0.976170
Cu2   Cu    Cu3+1 0.470310 0.901730 0.524580 0.997772
H1    H     H_    0.334289 0.091904 0.884551 0.150527
H2    H     H_    0.243955 0.449941 0.209282 0.158617
H3    H     H_    0.262795 0.240738 0.076629 0.148269
H4    H     H_    0.575170 0.374949 0.809064 0.150843
H5    H     H_    0.639560 0.910142 0.115474 0.161107
H6    H     H_    0.607237 0.558099 0.845626 0.133492
H7    H     H_    0.684480 0.771553 0.914241 0.168841
H8    H     H_    0.939971 0.069998 0.368631 0.199940
H9    H     H_    0.728340 0.171520 0.311239 0.134089
H10   H     H_    0.784220 0.348387 0.264263 0.201532
H11   H     H_    0.426076 0.332823 0.561209 0.130474
H12   H     H_    0.274898 0.836983 0.687279 0.128995
H13   H     H_    0.320631 0.484632 0.647659 0.141096
H14   H     H_    0.208593 0.664095 0.741283 0.161296
H15   H     H_    0.629863 0.719863 0.392225 0.230078
H16   H     H_    0.138191 0.037993 0.352823 0.151145
H17   H     H_    0.861647 0.122214 0.686182 0.119495
H18   H     H_    0.854136 0.803060 0.445535 0.199539
H19   H     H_    0.112345 0.841421 0.341373 0.214219
N1    N     N_R   0.574690 0.246280 0.438200 -0.186760
N2    N     N_R   0.426100 0.754320 0.561190 -0.190290
O1    O     O_R   0.537340 0.972510 0.318130 -0.605743
O2    O     O_R   0.487200 0.806530 0.359650 -0.562136
O3    O     O_R   0.707380 0.082980 0.479220 -0.553993
O4    O     O_R   0.657240 0.917000 0.520740 -0.575786
O5    O     O_R   0.512800 0.193470 0.640350 -0.600261
O6    O     O_R   0.462660 0.027490 0.681870 -0.594888
O7    O     O_R   0.342760 0.083000 0.479260 -0.559524
O8    O     O_R   0.292620 0.917020 0.520780 -0.525331
O9    O     O_3   0.930851 0.217258 0.521761 -0.675974
H20   H     H_    0.945761 0.244516 0.601441 0.341386
O10   O     O_3   0.069335 0.784887 0.468679 -0.675615
H21   H     H_    0.999176 0.787666 0.531558 0.386604
F1    F     F_    0.834684 0.946975 0.660668 -0.639459
O11   O     O_3   0.065272 0.978493 0.685157 -0.654948
H22   H     H_    0.149831 0.007271 0.712911 0.310651
O12   O     O_3   0.285204 0.689714 0.282659 -0.704972
H23   H     H_    0.222258 0.644981 0.321620 0.372592
F2    F     F_    0.764507 0.551293 0.279827 -0.634177
O13   O     O_3   0.178658 0.202912 0.479461 -0.669652
H24   H     H_    0.158721 0.251004 0.562581 0.365476
O14   O     O_3   0.086941 0.173720 0.698588 -0.794262
H25   H     H_    0.180114 0.183566 0.701182 0.300661
F3    F     F_    0.903868 0.842804 0.309214 -0.666543

loop_
_geom_bond_atom_site_label_1
_geom_bond_atom_site_label_2
_ccdc_geom_bond_type
C2    C35   S    
Cu1   O7    S    
C1    O1    A    
C7    C8    A    
C22   H14   S    
O12   H23   S    
Cu1   O3    S    
C11   C19   A    
C29   C30   A    
Cu2   O2    S    
C7    H5    S    
C23   O5    A    
C28   C29   A    
C26   N2    A    
C16   O12   S    
C20   C32   A    
C12   O3    A    
C6    C23   S    
C15   C16   A    
C35   O13   S    
C34   C35   S    
C23   O6    A    
Cu1   O1    S    
C20   H10   S    
C8    C9    A    
Cu2   O6    S    
C37   F3    S    
O9    H20   S    
C3    O11   S    
C9    C10   A    
C34   O9    S    
C21   N2    A    
C37   H18   S    
C33   O8    A    
C5    H3    S    
C9    H6    S    
C21   C22   A    
C1    O2    A    
C6    C18   A    
C1    C19   S    
Cu2   O8    S    
C27   C31   A    
C24   C25   A    
C36   H17   S    
C18   H1    S    
Cu1   Cu2   S    
O10   H21   S    
C5    C18   A    
C20   C28   A    
C25   C26   A    
Cu2   N2    S    
C31   N1    A    
C2    C4    S    
O11   H22   S    
C37   C38   S    
C11   C16   A    
C29   F2    S    
C3    O14   S    
C5    C14   A    
C36   F1    S    
C2    C33   S    
C26   C30   A    
C7    C19   A    
Cu2   O4    S    
Cu1   O5    S    
C22   C24   A    
C34   H8    S    
C32   N1    A    
C4    O10   S    
C12   O4    A    
C6    C17   A    
C35   H16   S    
C34   C38   S    
C15   H2    S    
C31   H11   S    
O13   H24   S    
C10   C13   A    
C25   C27   A    
C30   H15   S    
C13   C17   A    
C36   C38   S    
C2    C3    S    
C24   H13   S    
C17   H4    S    
C3    C36   S    
Cu1   N1    S    
C4    H19   S    
C12   C38   S    
C32   H9    S    
C8    H7    S    
C10   C11   A    
C4    C37   S    
O14   H25   S    
C27   C28   A    
C14   C15   A    
C13   C14   A    
C21   H12   S    
C33   O7    A    
