data_mof_unit_39561.cif
_audit_creation_date              2012-10-26T20:33:20-0400
_audit_creation_method            fapswitch 2.2
_symmetry_space_group_name_H-M    P1
_symmetry_Int_Tables_number       1
_space_group_crystal_system       triclinic
_cell_length_a                    17.748553
_cell_length_b                    10.822119
_cell_length_c                    9.526748
_cell_angle_alpha                 89.770958
_cell_angle_beta                  89.793056
_cell_angle_gamma                 90.013962
_cell_volume                      1829.84210692

loop_
_atom_site_label
_atom_site_type_symbol
_atom_type_description
_atom_site_fract_x
_atom_site_fract_y
_atom_site_fract_z
_atom_type_partial_charge
C1    C     C_R   0.500652 0.262280 0.500191 0.597045
C2    C     C_R   0.113861 0.498983 0.497304 -0.089887
C3    C     C_R   0.498166 0.062790 0.625756 0.037012
C4    C     C_R   0.355526 0.497074 0.500550 0.611947
C5    C     C_R   0.506442 0.129111 0.500623 0.056577
C6    C     C_R   0.523611 0.064992 0.376483 -0.145275
C7    C     C_R   0.523653 0.936191 0.376156 -0.146445
C8    C     C_R   0.506936 0.870774 0.500088 0.017207
C9    C     C_R   0.498968 0.935603 0.625502 -0.035681
C10   C     C_3   0.438259 0.926864 0.734008 -0.211708
C11   C     C_3   0.437043 0.067637 0.734425 0.147980
C12   C     C_R   0.884998 0.501712 0.495897 0.039761
C13   C     C_R   0.525736 0.600423 0.073031 0.160520
C14   C     C_R   0.466771 0.407301 0.075058 -0.015706
C15   C     C_R   0.466719 0.407444 0.926108 -0.031698
C16   C     C_R   0.500903 0.737681 0.499783 0.555469
C17   C     C_R   0.525623 0.600459 0.925589 0.161773
C18   C     C_3   0.602529 0.655277 0.918368 -0.275197
C19   C     C_3   0.602893 0.654703 0.077729 -0.277057
C20   C     C_R   0.644473 0.499765 0.499655 0.535328
C21   C     C_R   0.846226 0.502930 0.623755 -0.099591
C22   C     C_R   0.767719 0.501721 0.625231 -0.131298
C23   C     C_1   0.965352 0.501937 0.494811 0.045133
C24   C     C_R   0.727376 0.499730 0.498558 0.013564
C25   C     C_R   0.767088 0.497771 0.370551 -0.127516
C26   C     C_R   0.845590 0.498874 0.369368 -0.107800
C27   C     C_3   0.315630 0.128284 0.785236 -0.079199
C28   C     C_2   0.112143 0.637883 0.709937 0.598213
C29   C     C_3   0.271491 0.537385 0.835663 -0.045449
C30   C     C_2   0.273347 0.350704 0.291069 0.623244
C31   C     C_2   0.110190 0.361136 0.285846 0.642691
C32   C     C_1   0.032873 0.501307 0.495271 0.050801
C33   C     C_R   0.153018 0.561882 0.603978 0.060399
C34   C     C_R   0.232179 0.553907 0.609153 0.222022
C35   C     C_R   0.272218 0.491439 0.502207 -0.040298
C36   C     C_R   0.232470 0.426224 0.396907 -0.014193
C37   C     C_R   0.152998 0.430857 0.394275 -0.046728
Cu1   Cu    Cu3+1 0.500000 0.499980 0.640670 0.971505
Cu2   Cu    Cu3+1 0.500000 0.500020 0.359330 0.974534
H1    H     H_    0.876661 0.504557 0.722150 0.147584
H2    H     H_    0.645115 0.590228 0.122658 0.144982
H3    H     H_    0.738838 0.502076 0.725361 0.119176
H4    H     H_    0.603187 0.748951 0.123374 0.118924
H5    H     H_    0.737699 0.494968 0.271361 0.120497
H6    H     H_    0.875509 0.497278 0.270018 0.137284
H7    H     H_    0.533980 0.113779 0.278804 0.128111
H8    H     H_    0.334274 0.194190 0.867247 0.074458
H9    H     H_    0.302294 0.036902 0.833154 0.146440
H10   H     H_    0.262981 0.165394 0.738940 0.172168
H11   H     H_    0.023229 0.654436 0.841234 0.342081
H12   H     H_    0.533697 0.888494 0.278253 0.125690
H13   H     H_    0.291802 0.442207 0.812415 0.111221
H14   H     H_    0.214764 0.532827 0.885070 0.164708
H15   H     H_    0.310593 0.577888 0.913580 0.157665
H16   H     H_    0.290226 0.311366 0.086585 0.312758
H17   H     H_    0.061399 0.514366 0.205524 0.299447
H18   H     H_    0.385951 0.883536 0.692998 0.193872
H19   H     H_    0.459261 0.886677 0.834049 0.096060
H20   H     H_    0.456940 0.110672 0.833739 0.084719
H21   H     H_    0.441088 0.331073 0.131142 0.143982
H22   H     H_    0.440849 0.331882 0.870718 0.118778
H23   H     H_    0.644714 0.591449 0.872278 0.145640
H24   H     H_    0.602008 0.749811 0.872282 0.127983
N1    N     N_R   0.500470 0.500930 0.147930 -0.232157
N2    N     N_R   0.500480 0.500890 0.852020 -0.232679
O1    O     O_R   0.500000 0.319640 0.618810 -0.504254
O2    O     O_2   0.137727 0.737850 0.745664 -0.461898
O3    O     O_R   0.045241 0.594553 0.770545 -0.704417
O4    O     O_3   0.271193 0.613689 0.714851 -0.532193
O5    O     O_2   0.319069 0.273093 0.329238 -0.489714
O6    O     O_R   0.258995 0.367999 0.148123 -0.700645
O7    O     O_2   0.118224 0.249440 0.276339 -0.420913
O8    O     O_R   0.060816 0.421308 0.194243 -0.649494
O9    O     O_R   0.500010 0.319680 0.381230 -0.504459
O10   O     O_R   0.391250 0.499990 0.618840 -0.463139
O11   O     O_R   0.391260 0.500020 0.381250 -0.480047
O12   O     O_R   0.499990 0.680320 0.618770 -0.498074
O13   O     O_R   0.500000 0.680360 0.381190 -0.507171
O14   O     O_R   0.608740 0.499980 0.618750 -0.512340
O15   O     O_R   0.608750 0.500010 0.381160 -0.513600
O16   O     O_3   0.369956 0.117222 0.677793 -0.529028

loop_
_geom_bond_atom_site_label_1
_geom_bond_atom_site_label_2
_ccdc_geom_bond_type
C27   H9    S    
C35   C36   A    
C30   O6    S    
C7    C8    A    
C11   O16   S    
Cu2   N1    S    
C13   N1    A    
C12   C23   S    
C1    C5    S    
C1    O9    A    
C36   C37   A    
C28   O3    S    
C34   C35   A    
Cu1   Cu2   S    
C18   H24   S    
C31   O8    S    
Cu1   O14   S    
C15   N2    A    
C2    C32   S    
C18   C19   S    
Cu2   O9    S    
C4    O10   A    
C26   H6    S    
Cu1   O1    S    
C8    C9    A    
C9    C10   S    
C4    C35   S    
C8    C16   S    
C21   C22   A    
C11   H20   S    
C25   H5    S    
C30   O5    D    
C19   H4    S    
C33   C34   A    
C29   O4    S    
Cu1   O10   S    
C13   C19   S    
Cu2   O13   S    
C20   C24   S    
C27   O16   S    
C10   H18   S    
C24   C25   A    
C20   O15   A    
C18   H23   S    
C25   C26   A    
C12   C21   A    
C31   C37   S    
C12   C26   A    
C1    O1    A    
C3    C9    A    
Cu1   N2    S    
C14   N1    A    
C28   O2    D    
C17   C18   S    
C15   H22   S    
Cu2   O11   S    
C34   O4    S    
C2    C33   A    
C31   O7    D    
C28   C33   S    
C22   C24   A    
C27   H8    S    
H17   O8    S    
C6    H7    S    
C20   O14   A    
C10   H19   S    
C3    C5    A    
C6    C7    A    
Cu1   O12   S    
C30   C36   S    
C14   H21   S    
C17   N2    A    
C13   C17   A    
Cu2   O15   S    
C7    H12   S    
C23   C32   T    
C2    C37   A    
C22   H3    S    
C21   H1    S    
C29   H14   S    
C16   O13   A    
C4    O11   A    
C3    C11   S    
C10   C11   S    
C27   H10   S    
C29   H15   S    
C5    C6    A    
C14   C15   A    
C16   O12   A    
H11   O3    S    
H16   O6    S    
C19   H2    S    
C29   H13   S    
