data_mof_unit_52194.cif
_audit_creation_date              2012-12-10T18:45:09-0500
_audit_creation_method            fapswitch 2.2
_symmetry_space_group_name_H-M    P1
_symmetry_Int_Tables_number       1
_space_group_crystal_system       triclinic
_cell_length_a                    10.631122
_cell_length_b                    9.948988
_cell_length_c                    10.633306
_cell_angle_alpha                 89.972817
_cell_angle_beta                  91.22006
_cell_angle_gamma                 90.607415
_cell_volume                      1124.35493906

loop_
_atom_site_label
_atom_site_type_symbol
_atom_type_description
_atom_site_fract_x
_atom_site_fract_y
_atom_site_fract_z
_atom_type_partial_charge
C1    C     C_R   0.260339 0.499797 0.499995 0.855006
C2    C     C_R   0.498146 0.499886 0.738906 0.892478
C3    C     C_R   0.730717 0.496635 0.135088 -0.140123
C4    C     C_R   0.730511 0.494329 0.873824 -0.165061
C5    C     C_R   0.844333 0.493578 0.072126 -0.145779
C6    C     C_R   0.844236 0.492391 0.941453 -0.141775
C7    C     C_R   0.614045 0.497147 0.936652 0.049418
C8    C     C_R   0.614126 0.497953 0.067685 0.057111
C9    C     C_R   0.497651 0.499612 0.128281 -0.171048
C10   C     C_R   0.497532 0.499460 0.871471 -0.168392
C11   C     C_R   0.380356 0.499387 0.063322 0.122934
C12   C     C_R   0.739549 0.500582 0.500620 0.828309
C13   C     C_R   0.380358 0.500555 0.931650 0.130695
C14   C     C_R   0.061550 0.406941 0.427238 -0.215678
C15   C     C_R   0.932740 0.406394 0.427706 -0.208152
C16   C     C_R   0.871938 0.501920 0.499703 0.005985
C17   C     C_R   0.127689 0.500850 0.500082 0.013665
C18   C     C_3   0.257105 0.496767 0.135208 -0.419388
C19   C     C_3   0.212315 0.638431 0.164621 -0.868163
C20   C     C_3   0.257277 0.502909 0.854524 -0.415858
C21   C     C_3   0.211213 0.361047 0.821258 -0.867285
C22   C     C_3   0.678335 0.136082 0.664346 -0.380527
C23   C     C_R   0.937767 0.599117 0.569779 -0.204364
C24   C     C_3   0.811634 0.112849 0.618388 -0.871556
C25   C     C_3   0.328623 0.130498 0.327762 -0.391380
C26   C     C_3   0.192959 0.084289 0.350392 -0.928648
C27   C     C_R   0.066870 0.598653 0.569881 -0.197319
C28   C     C_R   0.581136 0.070495 0.578007 0.197188
C29   C     C_R   0.420497 0.068166 0.420411 0.210955
C30   C     C_R   0.577718 0.927586 0.579058 -0.092366
C31   C     C_R   0.424762 0.925537 0.419108 -0.079048
C32   C     C_R   0.498351 0.500011 0.260962 0.893836
H1    H     H_    0.735192 0.497798 0.236595 0.124588
H2    H     H_    0.367019 0.868279 0.353292 0.141568
H3    H     H_    0.282423 0.691767 0.225328 0.273024
H4    H     H_    0.197418 0.697446 0.077137 0.251435
H5    H     H_    0.122192 0.632545 0.215328 0.250531
H6    H     H_    0.181698 0.440830 0.083542 0.209197
H7    H     H_    0.267679 0.440526 0.224550 0.184784
H8    H     H_    0.280124 0.309267 0.761843 0.287733
H9    H     H_    0.196745 0.300552 0.907538 0.248647
H10   H     H_    0.120388 0.366606 0.768057 0.249195
H11   H     H_    0.182101 0.556678 0.903661 0.208628
H12   H     H_    0.734914 0.493425 0.772355 0.117131
H13   H     H_    0.268822 0.561464 0.766886 0.198042
H14   H     H_    0.819968 0.146489 0.519342 0.275620
H15   H     H_    0.880092 0.170994 0.677706 0.252967
H16   H     H_    0.835987 0.004755 0.624651 0.246179
H17   H     H_    0.665671 0.244094 0.674123 0.269223
H18   H     H_    0.669738 0.093763 0.760606 0.181114
H19   H     H_    0.181463 0.973907 0.340309 0.260479
H20   H     H_    0.163928 0.114112 0.446092 0.278646
H21   H     H_    0.129170 0.130758 0.279151 0.245378
H22   H     H_    0.330816 0.239931 0.330830 0.261063
H23   H     H_    0.932498 0.492025 0.124912 0.140524
H24   H     H_    0.354718 0.101203 0.230961 0.189427
H25   H     H_    0.932339 0.490109 0.892310 0.140055
H26   H     H_    0.109573 0.337578 0.367878 0.151321
H27   H     H_    0.880745 0.333806 0.370491 0.148297
H28   H     H_    0.889507 0.673187 0.625242 0.143461
H29   H     H_    0.118927 0.673052 0.624861 0.145114
H30   H     H_    0.639424 0.872300 0.642239 0.145151
N1    N     N_R   0.500000 0.857200 0.500000 -0.115569
N2    N     N_R   0.500000 0.142810 0.500000 -0.124711
O1    O     O_R   0.316770 0.614620 0.499990 -0.623766
O2    O     O_R   0.683230 0.614620 0.500010 -0.616530
O3    O     O_R   0.316800 0.385290 0.500000 -0.631271
O4    O     O_R   0.683200 0.385290 0.500000 -0.626867
O5    O     O_R   0.500010 0.614690 0.316770 -0.609551
O6    O     O_R   0.499990 0.614690 0.683230 -0.621556
O7    O     O_R   0.500040 0.385360 0.316770 -0.645664
O8    O     O_R   0.499960 0.385360 0.683230 -0.640858
Zn1   Zn    Zn3+2 0.500000 0.653120 0.500000 0.935201
Zn2   Zn    Zn3+2 0.500000 0.346880 0.500000 0.916953

loop_
_geom_bond_atom_site_label_1
_geom_bond_atom_site_label_2
_ccdc_geom_bond_type
O7    Zn2   S    
C1    O1    A    
C18   H7    S    
N1    Zn1   S    
C11   C18   S    
O5    Zn1   S    
C32   O5    A    
C23   C27   A    
C7    C10   A    
C31   N1    A    
C12   O4    A    
C1    C17   S    
C20   H13   S    
C6    H25   S    
C25   H24   S    
O2    Zn1   S    
C22   H18   S    
C24   H14   S    
C2    O8    A    
O6    Zn1   S    
C28   C30   A    
C27   H29   S    
C18   H6    S    
C29   N2    A    
C7    C8    A    
C29   C31   A    
O3    Zn2   S    
C22   C28   S    
C26   H19   S    
C25   H22   S    
C11   C13   A    
C14   C17   A    
C9    C11   A    
C23   H28   S    
C21   H8    S    
C2    O6    A    
C22   H17   S    
C21   H9    S    
C28   N2    A    
C4    C6    A    
C1    O3    A    
C5    H23   S    
C10   C13   A    
C3    C8    A    
C16   C23   A    
C26   H20   S    
C19   H4    S    
C30   H30   S    
C25   C29   S    
C5    C6    A    
C14   H26   S    
C22   C24   S    
C31   H2    S    
C3    H1    S    
O4    Zn2   S    
C15   C16   A    
C24   H16   S    
C26   H21   S    
C32   O7    A    
C20   H11   S    
O1    Zn1   S    
C20   C21   S    
O8    Zn2   S    
C18   C19   S    
N2    Zn2   S    
C14   C15   A    
C19   H3    S    
C21   H10   S    
C19   H5    S    
C9    C32   S    
C4    C7    A    
C25   C26   S    
C30   N1    A    
C24   H15   S    
C12   O2    A    
C13   C20   S    
C2    C10   S    
C12   C16   S    
C4    H12   S    
C8    C9    A    
C3    C5    A    
C15   H27   S    
C17   C27   A    
