data_mof_unit_7973.cif
_audit_creation_date              2012-12-10T16:56:37-0500
_audit_creation_method            fapswitch 2.2
_symmetry_space_group_name_H-M    P1
_symmetry_Int_Tables_number       1
_space_group_crystal_system       triclinic
_cell_length_a                    10.782283
_cell_length_b                    10.950887
_cell_length_c                    9.674651
_cell_angle_alpha                 89.814841
_cell_angle_beta                  90.358372
_cell_angle_gamma                 90.087078
_cell_volume                      1142.31026644

loop_
_atom_site_label
_atom_site_type_symbol
_atom_type_description
_atom_site_fract_x
_atom_site_fract_y
_atom_site_fract_z
_atom_type_partial_charge
C1    C     C_R   0.496460 0.265323 0.499711 0.840853
C2    C     C_3   0.877154 0.498355 0.499980 0.068031
C3    C     C_3   0.923519 0.620710 0.432544 -0.023771
C4    C     C_3   0.927396 0.390705 0.408222 -0.024701
C5    C     C_2   0.504044 0.937150 0.385257 0.204614
C6    C     C_2   0.483889 0.866492 0.497547 -0.370975
C7    C     C_2   0.463871 0.065148 0.390102 0.183489
C8    C     C_2   0.503422 0.133326 0.497847 -0.422858
C9    C     C_2   0.424686 0.433350 0.921773 -0.067050
C10   C     C_2   0.421655 0.436801 0.077569 -0.082510
C11   C     C_R   0.259846 0.504695 0.499417 0.771772
C12   C     C_R   0.499548 0.734896 0.499330 0.854579
C13   C     C_R   0.739718 0.498226 0.500517 0.803095
C14   C     C_3   0.072094 0.498388 0.648124 -0.408569
C15   C     C_3   0.931209 0.482422 0.648652 -0.363655
C16   C     C_3   0.068501 0.624920 0.429288 -0.092474
C17   C     C_3   0.072833 0.386649 0.418558 0.029239
C18   C     C_3   0.121406 0.503430 0.497037 0.033241
Cu1   Cu    Cu3+1 0.500030 0.500020 0.638630 0.924802
Cu2   Cu    Cu3+1 0.499970 0.499980 0.361370 0.906909
H1    H     H_    0.097730 0.583508 0.703868 0.165870
H2    H     H_    0.904825 0.412745 0.298371 0.129201
H3    H     H_    0.890564 0.615130 0.323564 0.130841
H4    H     H_    0.444617 0.906306 0.590298 0.126974
H5    H     H_    0.555355 0.091497 0.582212 0.137861
H6    H     H_    0.359657 0.372928 0.869993 0.147362
H7    H     H_    0.557477 0.559409 0.894176 0.188515
H8    H     H_    0.350911 0.382953 0.128739 0.141722
H9    H     H_    0.114933 0.422438 0.708128 0.185723
H10   H     H_    0.568372 0.546885 0.106310 0.190138
H11   H     H_    0.908173 0.390151 0.689059 0.170479
H12   H     H_    0.890590 0.546247 0.723984 0.184601
H13   H     H_    0.101563 0.702132 0.494323 0.167277
H14   H     H_    0.109513 0.388952 0.311389 0.124627
N1    N     N_2   0.498630 0.498660 0.846910 -0.282323
N2    N     N_2   0.498590 0.498630 0.153040 -0.283719
O1    O     O_R   0.500020 0.321960 0.617040 -0.567523
O2    O     O_R   0.499980 0.321920 0.382900 -0.576070
O3    O     O_R   0.317710 0.500000 0.617070 -0.580022
O4    O     O_R   0.317670 0.499960 0.382930 -0.601615
O5    O     O_R   0.500020 0.678080 0.617100 -0.580240
O6    O     O_R   0.499980 0.678040 0.382960 -0.572316
O7    O     O_R   0.682330 0.500040 0.617070 -0.581634
O8    O     O_R   0.682290 0.500000 0.382930 -0.600994
C19   C     C_3   0.117827 0.652730 0.280666 -0.412854
C20   C     C_3   0.066659 0.770302 0.216149 -0.893338
H15   H     H_    0.967874 0.760386 0.185675 0.245601
H16   H     H_    0.077003 0.847477 0.289134 0.257219
H17   H     H_    0.119500 0.792324 0.121061 0.249730
H18   H     H_    0.219409 0.667047 0.284542 0.246564
H19   H     H_    0.097447 0.575869 0.209583 0.200594
C21   C     C_3   0.565359 0.892302 0.254495 -0.809068
H20   H     H_    0.589982 0.969839 0.185726 0.209705
H21   H     H_    0.652887 0.843828 0.279763 0.213125
H22   H     H_    0.501993 0.831168 0.196029 0.241867
C22   C     C_3   0.379302 0.112409 0.274561 -0.341225
C23   C     C_3   0.270323 0.026219 0.248134 -0.897980
H23   H     H_    0.302529 0.939170 0.202436 0.269298
H24   H     H_    0.221583 0.006631 0.346531 0.253004
H25   H     H_    0.203908 0.069305 0.174634 0.237515
H26   H     H_    0.337504 0.201685 0.299745 0.212535
H27   H     H_    0.433179 0.123660 0.177915 0.198988
C24   C     C_3   0.862567 0.741954 0.483337 -0.387463
C25   C     C_3   0.879411 0.775781 0.635466 -0.838117
H28   H     H_    0.809999 0.727677 0.699906 0.248150
H29   H     H_    0.974613 0.757218 0.673234 0.242567
H30   H     H_    0.861708 0.875012 0.648020 0.233798
H31   H     H_    0.899012 0.818917 0.420939 0.210046
H32   H     H_    0.761687 0.739392 0.460778 0.189510
C26   C     C_3   0.124251 0.266604 0.482397 -0.846632
H33   H     H_    0.105176 0.188785 0.412471 0.234715
H34   H     H_    0.226144 0.270637 0.496324 0.215877
H35   H     H_    0.082762 0.246579 0.584533 0.239796
C27   C     C_3   0.861245 0.266559 0.432566 -0.855012
H36   H     H_    0.898405 0.196308 0.361609 0.232998
H37   H     H_    0.871075 0.234099 0.540640 0.233210
H38   H     H_    0.760905 0.273301 0.408282 0.236476

loop_
_geom_bond_atom_site_label_1
_geom_bond_atom_site_label_2
_ccdc_geom_bond_type
C16   C19   S    
Cu2   O6    S    
C5    C21   S    
C15   H11   S    
C26   H33   S    
C2    C15   S    
C3    C24   S    
C16   H13   S    
C1    C8    S    
C4    H2    S    
C9    C10   S    
C14   C18   S    
C3    H3    S    
Cu1   Cu2   S    
C14   C15   S    
C21   H22   S    
H10   N2    S    
C6    H4    S    
C25   H28   S    
C26   H35   S    
C17   C18   S    
C15   H12   S    
C11   C18   S    
Cu1   N1    S    
C19   C20   S    
C22   C23   S    
C11   O3    A    
C8    H5    S    
C20   H17   S    
C23   H23   S    
C12   O5    A    
C27   H37   S    
C1    O2    A    
C5    C6    D    
C2    C4    S    
C7    C22   S    
C14   H1    S    
C16   C18   S    
Cu2   O8    S    
Cu1   O7    S    
C9    H6    S    
C2    C3    S    
C22   H27   S    
C6    C12   S    
C11   O4    A    
Cu2   O4    S    
C20   H16   S    
C23   H24   S    
C7    C8    D    
C27   H36   S    
C4    C17   S    
C14   H9    S    
C12   O6    A    
C24   C25   S    
Cu2   N2    S    
C25   H30   S    
Cu1   O5    S    
C13   O7    A    
Cu2   O2    S    
C21   H20   S    
C4    C27   S    
Cu1   O3    S    
C17   H14   S    
C10   H8    S    
C5    C7    S    
C2    C13   S    
C19   H19   S    
C22   H26   S    
C9    N1    D    
C10   N2    D    
C19   H18   S    
Cu1   O1    S    
H7    N1    S    
C24   H31   S    
C20   H15   S    
C17   C26   S    
C26   H34   S    
C13   O8    A    
C3    C16   S    
C24   H32   S    
C21   H21   S    
C1    O1    A    
C23   H25   S    
C27   H38   S    
C25   H29   S    
