data_mof_unit_31437.cif
_audit_creation_date              2012-12-11T19:09:20-0500
_audit_creation_method            fapswitch 2.2
_symmetry_space_group_name_H-M    P1
_symmetry_Int_Tables_number       1
_space_group_crystal_system       triclinic
_cell_length_a                    8.260923
_cell_length_b                    15.039512
_cell_length_c                    26.943563
_cell_angle_alpha                 97.288297
_cell_angle_beta                  92.581855
_cell_angle_gamma                 81.420407
_cell_volume                      3282.10714528

loop_
_atom_site_label
_atom_site_type_symbol
_atom_type_description
_atom_site_fract_x
_atom_site_fract_y
_atom_site_fract_z
_atom_type_partial_charge
Ba1   Ba    Ba6+2 0.860050 0.456430 0.522540 1.714017
Ba2   Ba    Ba6+2 0.329780 0.543490 0.477450 1.718577
C1    C     C_3   0.758789 0.113982 0.640127 -0.231383
C2    C     C_3   0.702902 0.209639 0.626282 0.357828
C3    C     C_3   0.456148 0.703688 0.635423 0.646417
C4    C     C_3   0.342666 0.772468 0.668866 -0.253061
C5    C     C_3   0.926415 0.828111 0.353891 0.667202
C6    C     C_3   0.964646 0.824663 0.298372 -0.175189
C7    C     C_3   0.471470 0.778114 0.334800 0.739144
C8    C     C_3   0.387671 0.851344 0.303884 -0.208404
C9    C     C_R   0.979275 0.425590 0.175744 0.627242
C10   C     C_R   0.986815 0.585313 0.186427 0.673751
C11   C     C_2   0.763439 0.563930 0.272500 0.322054
C12   C     C_3   0.160875 0.267850 0.659773 0.379639
C13   C     C_3   0.736612 0.595547 0.328017 -0.115250
C14   C     C_1   0.985104 0.488963 0.344335 0.048052
C15   C     C_2   0.026417 0.478671 0.296553 -0.146819
C16   C     C_2   0.909313 0.515441 0.257605 0.209403
C17   C     C_R   0.036215 0.500600 0.104125 -0.077332
C18   C     C_R   0.021075 0.420610 0.124783 -0.035438
C19   C     C_R   0.046005 0.337854 0.093863 -0.052796
C20   C     C_R   0.017693 0.583526 0.135291 -0.017668
C21   C     C_2   0.853276 0.542623 0.362102 -0.305795
C22   C     C_2   0.352791 0.477252 0.640540 -0.203315
C23   C     C_3   0.120611 0.249939 0.712084 0.291898
C24   C     C_R   0.152719 0.410373 0.971752 0.019745
C25   C     C_R   0.098798 0.576954 0.979148 0.020756
C26   C     C_R   0.143755 0.492325 0.949886 0.053568
C27   C     C_R   0.212136 0.328396 0.942315 -0.101182
C28   C     C_R   0.256951 0.326951 0.892978 -0.041686
C29   C     C_R   0.240853 0.406884 0.870281 -0.028822
C30   C     C_R   0.181615 0.489615 0.898362 -0.081276
C31   C     C_R   0.162615 0.569655 0.875174 -0.040362
C32   C     C_R   0.197976 0.565353 0.823764 0.618491
C33   C     C_R   0.284752 0.405326 0.820135 0.576035
C34   C     C_3   0.272593 0.255836 0.385185 0.348890
C35   C     C_2   0.437768 0.434138 0.725419 -0.018816
C36   C     C_3   0.456015 0.409795 0.669860 -0.074143
C37   C     C_1   0.210064 0.518578 0.658046 0.006300
C38   C     C_2   0.171094 0.520597 0.705967 -0.102898
C39   C     C_2   0.293675 0.479140 0.743213 0.192540
C40   C     C_R   0.104844 0.413072 0.022294 0.023047
C41   C     C_R   0.071791 0.497735 0.052442 0.055926
C42   C     C_R   0.074949 0.579658 0.031504 0.020924
C43   C     C_R   0.088359 0.333946 0.043941 -0.093240
C44   C     C_R   0.031134 0.663260 0.114891 -0.042050
C45   C     C_3   0.357920 0.219188 0.335734 -0.329052
C46   C     C_R   0.078793 0.656105 0.954776 -0.095671
C47   C     C_R   0.108666 0.652312 0.903920 -0.047269
C48   C     C_R   0.057016 0.661647 0.064070 -0.091609
C49   C     C_R   0.358363 0.176486 0.542249 0.009129
C50   C     C_R   0.574574 0.209159 0.490881 0.024673
C51   C     C_R   0.754532 0.772846 0.482765 -0.221258
C52   C     C_R   0.855299 0.833488 0.471634 0.014376
C53   C     C_R   0.811535 0.927386 0.487660 0.035145
C54   C     C_R   0.649157 0.960528 0.504818 0.071026
C55   C     C_R   0.558984 0.896606 0.520298 -0.036698
C56   C     C_3   0.962879 0.736478 0.588053 0.302446
C57   C     C_R   0.576471 0.054200 0.510062 -0.028735
C58   C     C_R   0.430638 0.083453 0.538642 -0.064160
C59   C     C_R   0.363291 0.016932 0.560697 0.311998
C60   C     C_R   0.419773 0.926636 0.548389 -0.053660
C61   C     C_R   0.639197 0.117692 0.484606 -0.119936
C62   C     C_R   0.437097 0.238138 0.520317 -0.294050
C63   C     C_R   0.616294 0.803377 0.510976 0.089266
C64   C     C_3   0.898615 0.833824 0.608876 -0.356580
C65   C     C_3   0.695709 0.346819 0.372245 0.277746
C66   C     C_3   0.739912 0.322172 0.317448 -0.342133
H1    H     H_    0.757043 0.213901 0.589824 0.077433
H2    H     H_    0.382235 0.277030 0.316575 0.101548
H3    H     H_    0.474978 0.174457 0.342412 0.130033
H4    H     H_    0.277915 0.179178 0.310446 0.119214
H5    H     H_    0.859739 0.702314 0.571994 0.025087
H6    H     H_    0.051915 0.736753 0.558512 0.025112
H7    H     H_    0.809777 0.834570 0.638683 0.172736
H8    H     H_    0.837522 0.871748 0.579307 0.026013
H9    H     H_    0.000158 0.869861 0.624808 0.149244
H10   H     H_    0.796054 0.378397 0.392649 0.028622
H11   H     H_    0.582087 0.396174 0.374722 0.072962
H12   H     H_    0.746069 0.063839 0.606745 0.071156
H13   H     H_    0.863240 0.281133 0.314386 0.151742
H14   H     H_    0.739371 0.384523 0.299503 0.073643
H15   H     H_    0.650088 0.282320 0.296838 0.126306
H16   H     H_    0.567253 0.220721 0.622045 -0.069373
H17   H     H_    0.383327 0.657643 0.611553 -0.033167
H18   H     H_    0.261045 0.816231 0.645458 0.091783
H19   H     H_    0.268398 0.737581 0.691455 0.122954
H20   H     H_    0.414738 0.816180 0.694587 0.156897
H21   H     H_    0.889738 0.106417 0.652190 0.216585
H22   H     H_    0.848151 0.775756 0.358417 -0.059399
H23   H     H_    0.051839 0.762424 0.287264 0.160267
H24   H     H_    0.022868 0.884454 0.292948 0.126589
H25   H     H_    0.598659 0.760463 0.322654 -0.081539
H26   H     H_    0.461693 0.907736 0.306793 0.119648
H27   H     H_    0.269202 0.880808 0.320466 0.153927
H28   H     H_    0.109657 0.339625 0.655263 -0.040561
H29   H     H_    0.146184 0.443769 0.285189 0.113668
H30   H     H_    0.033765 0.275218 0.108286 0.120741
H31   H     H_    0.532393 0.405458 0.750479 0.113248
H32   H     H_    0.303324 0.262141 0.872392 0.151800
H33   H     H_    0.230732 0.264083 0.956939 0.077780
H34   H     H_    0.102916 0.267735 0.022707 0.073238
H35   H     H_    0.019367 0.728010 0.138182 0.109168
H36   H     H_    0.035509 0.722233 0.973843 0.073940
H37   H     H_    0.296849 0.257856 0.656053 -0.035415
H38   H     H_    0.090658 0.715058 0.887241 0.130788
H39   H     H_    0.050511 0.552157 0.718390 0.142301
H40   H     H_    0.067725 0.725793 0.051622 0.070473
H41   H     H_    0.840225 0.560878 0.402140 0.086610
H42   H     H_    0.391483 0.485509 0.603665 0.079296
H43   H     H_    0.383899 0.308736 0.523035 0.072481
H44   H     H_    0.736585 0.096607 0.458392 0.138934
H45   H     H_    0.792847 0.700740 0.474031 0.030872
H46   H     H_    0.125526 0.311947 0.738666 0.027894
H47   H     H_    0.354572 0.880107 0.563815 0.121493
H48   H     H_    0.995176 0.232880 0.713128 0.107425
H49   H     H_    0.352033 0.295765 0.410439 0.022957
N1    N     N_R   0.959121 0.508068 0.205719 -0.405700
N2    N     N_R   0.257393 0.483454 0.796383 -0.431475
O1    O     O_2   0.906490 0.548660 0.619040 -0.397500
O2    O     O_3   0.670829 0.268298 0.392007 -0.629629
O3    O     O_3   0.086567 0.208694 0.624123 -0.534345
O4    O     O_2   0.283210 0.451320 0.380930 -0.483226
O5    O     O_3   0.051220 0.451340 0.441130 -0.474983
O6    O     O_3   0.503420 0.617610 0.414270 -0.435896
O7    O     O_3   0.121614 0.306523 0.373853 -0.630233
O8    O     O_3   0.617160 0.609950 0.527080 -0.463833
O9    O     O_3   0.088220 0.664410 0.439630 -0.476882
O10   O     O_2   0.195553 0.819245 0.470369 -0.426160
O11   O     O_3   0.077131 0.811655 0.380481 -0.557506
O12   O     O_3   0.138490 0.548590 0.558860 -0.504362
O13   O     O_3   0.572560 0.389970 0.472910 -0.500681
O14   O     O_2   0.345680 0.723560 0.528460 -0.482409
O15   O     O_3   0.549622 0.751177 0.608691 -0.656559
O16   O     O_2   0.438906 0.525886 0.325951 -0.466207
O17   O     O_3   0.388112 0.701813 0.328922 -0.551839
O18   O     O_2   0.960095 0.356869 0.193220 -0.591275
O19   O     O_2   0.347830 0.333773 0.797678 -0.571767
O20   O     O_2   0.985163 0.656058 0.214054 -0.622536
O21   O     O_2   0.179036 0.634865 0.803777 -0.570586
O22   O     O_3   0.686290 0.382320 0.585720 -0.479419
O23   O     O_2   0.787866 0.446703 0.676401 -0.434543
O24   O     O_3   0.039549 0.693440 0.627533 -0.625990
O25   O     O_3   0.757943 0.274104 0.663183 -0.617252
O26   O     O_2   0.844020 0.276410 0.471510 -0.439859
O27   O     O_3   0.101490 0.335510 0.560360 -0.491285
O28   O     O_2   0.020088 0.179212 0.528528 -0.482758
P1    P     P_3+3 0.071960 0.575810 0.612130 1.026309
P2    P     P_3+3 0.664360 0.290070 0.457280 0.986751
P3    P     P_3+3 0.146704 0.221221 0.564314 1.008139
P4    P     P_3+3 0.117760 0.424110 0.387870 0.992105
P5    P     P_3+3 0.050127 0.783243 0.440653 1.045333
P6    P     P_3+3 0.672693 0.382187 0.649810 1.009233
P7    P     P_3+3 0.531998 0.722044 0.543705 0.962239
P8    P     P_3+3 0.518486 0.608900 0.348928 1.063667
C67   C     C_3   0.657652 0.092367 0.681728 -0.325855
H50   H     H_    0.663784 0.142741 0.715413 0.185524
H51   H     H_    0.528451 0.092795 0.668542 0.202886
H52   H     H_    0.705742 0.023887 0.691863 0.142461
Cl1   Cl    Cl    0.591305 0.638576 0.674659 -0.673681
Cl2   Cl    Cl    0.257821 0.157570 0.732363 -0.610894
Cl3   Cl    Cl    0.822310 0.939597 0.373538 -0.756803
C68   C     C_3   0.814547 0.826998 0.263242 -0.399871
H53   H     H_    0.722010 0.886379 0.274774 0.157244
H54   H     H_    0.851456 0.832727 0.224792 0.158624
H55   H     H_    0.761647 0.763508 0.261958 0.185266
Cl4   Cl    Cl    0.472579 0.827118 0.398383 -0.680518
C69   C     C_3   0.363788 0.816681 0.248600 -0.429526
H56   H     H_    0.296401 0.757497 0.243922 0.206203
H57   H     H_    0.292269 0.871345 0.229242 0.122388
H58   H     H_    0.483805 0.796956 0.230520 0.174260
Cl5   Cl    Cl    0.615348 0.602005 0.227670 -0.717297
Cl6   Cl    Cl    0.221378 0.033927 0.608621 -0.717246
C70   C     C_3   0.947492 0.983781 0.499604 -0.338538
H59   H     H_    0.995358 0.002742 0.465179 0.174277
H60   H     H_    0.905991 0.044027 0.526144 0.145842
H61   H     H_    0.047929 0.946358 0.520584 0.139413
C71   C     C_3   0.237111 0.176527 0.411691 -0.341848
H62   H     H_    0.175317 0.203489 0.447521 0.122723
H63   H     H_    0.154118 0.135509 0.388200 0.150205
H64   H     H_    0.352339 0.131466 0.419634 0.083006

loop_
_geom_bond_atom_site_label_1
_geom_bond_atom_site_label_2
_ccdc_geom_bond_type
C25   C46   A    
C53   C54   A    
C12   O3    S    
C10   C20   A    
C33   N2    Am   
C17   C18   A    
Ba1   O13   S    
C71   H62   S    
O16   P8    D    
C5    C6    S    
C53   C70   S    
O15   P7    S    
C51   C52   A    
C26   C30   A    
C56   C64   S    
C27   C28   A    
C11   C16   D    
C66   H13   S    
O3    P3    S    
C67   H50   S    
C68   H54   S    
C35   C36   S    
C33   O19   D    
C28   C29   A    
C8    H26   S    
C31   C47   A    
C46   H36   S    
C28   H32   S    
O25   P6    S    
C22   C37   D    
C4    H20   S    
C54   C55   A    
C34   C45   S    
Ba1   Ba2   S    
C32   O21   D    
C61   H44   S    
C70   H59   S    
C5    O11   S    
C51   H45   S    
O27   P3    S    
Ba1   O26   S    
C56   O24   S    
O9    P5    S    
C11   Cl5   S    
C68   H53   S    
C49   P3    S    
C23   Cl2   S    
C14   C15   D    
C37   P1    S    
C22   C36   S    
Ba1   P2    S    
C6    H24   S    
C51   C63   A    
C7    C8    S    
C16   N1    S    
C13   P8    S    
C3    H17   S    
Ba2   O8    S    
C69   H57   S    
C57   C58   A    
O23   P6    D    
C48   H40   S    
O13   P2    S    
Ba1   O27   S    
O24   P1    S    
C65   H10   S    
C22   H42   S    
C1    H12   S    
C65   O2    S    
O8    P7    S    
C12   H28   S    
C2    H1    S    
C17   C41   A    
Ba2   O12   S    
C68   H55   S    
C19   C43   A    
C12   H37   S    
C3    O15   S    
C21   H41   S    
C5    Cl3   S    
O4    P4    D    
C9    C18   A    
Ba2   O14   S    
C65   C66   S    
C55   C60   A    
C17   C20   A    
C59   Cl6   S    
O10   P5    D    
C50   C62   A    
C23   H48   S    
C37   C38   D    
O17   P8    S    
C50   P2    S    
C62   H43   S    
C52   P5    S    
Ba2   O4    S    
C5    H22   S    
C50   C61   A    
C4    H19   S    
C34   C71   S    
C58   C59   A    
C40   C43   A    
C41   C42   A    
C7    O17   S    
C45   H2    S    
C63   P7    S    
O7    P4    S    
Ba2   O13   S    
C29   C30   A    
C2    H16   S    
C7    Cl4   S    
C3    Cl1   S    
C64   H8    S    
O28   P3    D    
C15   C16   S    
C10   O20   D    
C27   H33   S    
O12   P1    S    
C6    H23   S    
C39   N2    S    
C34   H49   S    
C70   H61   S    
C45   H3    S    
C38   H39   S    
C10   N1    Am   
C69   H56   S    
C20   C44   A    
O5    P4    S    
O1    P1    D    
C14   C21   D    
C11   C13   S    
O11   P5    S    
C29   C33   A    
C40   C41   A    
C1    C2    S    
C7    H25   S    
C35   H31   S    
C56   H6    S    
C42   C48   A    
C32   N2    Am   
C24   C40   A    
C64   H9    S    
C52   C53   A    
C38   C39   S    
C66   H15   S    
C24   C26   A    
O2    P2    S    
C67   H52   S    
C34   O7    S    
C49   C62   A    
Ba1   O8    S    
C55   C63   A    
Ba1   O12   S    
C6    C68   S    
C2    O25   S    
C71   H63   S    
C47   H38   S    
Ba2   O5    S    
C44   H35   S    
C44   C48   A    
C57   C61   A    
C4    H18   S    
C54   C57   A    
C1    H21   S    
C66   H14   S    
C30   C31   A    
C67   H51   S    
C9    O18   D    
Ba1   O5    S    
C60   H47   S    
C23   H46   S    
Ba2   P4    S    
C19   H30   S    
O22   P6    S    
C3    C4    S    
C8    H27   S    
C46   C47   A    
C64   H7    S    
C13   C21   S    
C1    C67   S    
C31   C32   A    
C14   P4    S    
C12   C23   S    
C35   C39   D    
C59   C60   A    
C70   H60   S    
C45   H4    S    
C71   H64   S    
Ba1   O22   S    
C43   H34   S    
Ba2   O6    S    
C18   C19   A    
C24   C27   A    
C8    C69   S    
C25   C26   A    
Ba1   P1    S    
C49   C58   A    
C69   H58   S    
C36   P6    S    
C25   C42   A    
C9    N1    Am   
C15   H29   S    
O14   P7    D    
Ba1   O1    S    
C65   H11   S    
O26   P2    D    
O6    P8    S    
C56   H5    S    
Ba2   O9    S    
