data_mof_unit_6526.cif
_audit_creation_date              2013-03-05T15:41:23-0500
_audit_creation_method            fapswitch 2.2
_symmetry_space_group_name_H-M    P1
_symmetry_Int_Tables_number       1
_space_group_crystal_system       triclinic
_cell_length_a                    7.769779
_cell_length_b                    8.565564
_cell_length_c                    10.627104
_cell_angle_alpha                 91.457825
_cell_angle_beta                  85.082395
_cell_angle_gamma                 93.857474
_cell_volume                      702.923210298

loop_
_atom_site_label
_atom_site_type_symbol
_atom_site_description
_atom_site_fract_x
_atom_site_fract_y
_atom_site_fract_z
_atom_type_partial_charge
O1    O     O_R   0.389250 0.738570 0.508370 -0.620797
O2    O     O_R   0.678390 0.711620 0.486510 -0.611271
C1    C     C_R   0.545921 0.794798 0.496575 0.951280
O3    O     O_R   0.355430 0.513500 0.696140 -0.635759
O4    O     O_R   0.644580 0.486550 0.674270 -0.645485
C2    C     C_R   0.501900 0.504464 0.742010 0.860387
Zn1   Zn    Zn3+2 0.306940 0.517990 0.514600 0.993815
Zn2   Zn    Zn3+2 0.693060 0.482010 0.485400 1.032700
O5    O     O_R   0.321610 0.288380 0.513490 -0.623432
O6    O     O_R   0.610750 0.261430 0.491630 -0.601105
O7    O     O_R   0.355420 0.513450 0.325730 -0.597263
O8    O     O_R   0.644570 0.486500 0.303860 -0.565816
C3    C     C_R   0.454066 0.205221 0.503720 1.017064
C4    C     C_R   0.500025 0.501786 0.257750 0.929727
C5    C     C_3   0.407027 0.644923 0.936922 -0.373685
H1    H     H_    0.476807 0.756995 0.906001 0.218470
C6    C     C_3   0.395019 0.635875 0.081118 -0.334116
H2    H     H_    0.441364 0.749742 0.122585 0.240759
H3    H     H_    0.269362 0.351004 0.908236 0.213583
C7    C     C_3   0.407937 0.350058 0.927199 -0.454149
C8    C     C_3   0.692842 0.517479 0.915584 -0.438701
C9    C     C_3   0.503352 0.504311 0.878024 0.018121
H4    H     H_    0.760467 0.412392 0.880022 0.206644
H5    H     H_    0.766022 0.620609 0.870525 0.210309
C10   C     C_3   0.501717 0.500182 0.120906 -0.199849
C11   C     C_3   0.425580 0.334697 0.071524 0.447562
C12   C     C_3   0.693528 0.528684 0.059253 0.141136
H6    H     H_    0.772313 0.433387 0.087265 0.203953
H7    H     H_    0.454417 0.248218 0.870488 0.190221
C13   C     C_2   0.570044 0.958375 0.494611 -0.302605
C14   C     C_2   0.429909 0.041633 0.505501 -0.319807
H8    H     H_    0.297677 0.990283 0.515660 0.183991
N1    N     N_2   0.950330 0.457950 0.465890 -0.143294
H9    H     H_    0.014030 0.382311 0.404273 0.245170
N2    N     N_2   0.049670 0.542050 0.534110 -0.172331
H10   H     H_    0.985950 0.617672 0.595734 0.187246
H11   H     H_    0.273669 0.644445 0.905954 0.208088
N3    N     N_R   0.546147 0.212309 0.094231 0.196008
O9    O     O_R   0.571080 0.176042 0.209165 -0.351622
O10   O     O_R   0.635453 0.143533 0.002064 -0.373806
H12   H     H_    0.702269 0.009735 0.484295 0.195465
H13   H     H_    0.257569 0.620861 0.118107 0.262713
N4    N     N_R   0.252776 0.289201 0.135546 0.201671
O11   O     O_R   0.119062 0.368188 0.120121 -0.411141
O12   O     O_R   0.227098 0.160200 0.198662 -0.324155
N5    N     N_R   0.779888 0.677904 0.099842 0.221404
O13   O     O_R   0.743495 0.810816 0.055274 -0.332199
O14   O     O_R   0.910032 0.676080 0.169009 -0.345098

loop_
_geom_bond_atom_site_label_1
_geom_bond_atom_site_label_2
_geom_bond_distance
_ccdc_geom_bond_type
O4    Zn2   2.010073 S    
N3    O10   1.302689 A    
N4    O11   1.301305 A    
C13   H12   1.087822 S    
C5    C6    1.530833 S    
C11   N3    1.489476 S    
C1    C13   1.401502 S    
C14   H8    1.087794 S    
Zn2   O8    1.998938 S    
C6    C10   1.559400 S    
H3    C7    1.112836 S    
N1    H9    1.029316 S    
C8    C12   1.527803 S    
O1    Zn1   1.954409 S    
C8    C9    1.554293 S    
Zn1   O7    2.010072 S    
N4    O12   1.302210 A    
O4    C2    1.284988 A    
C7    C11   1.561171 S    
O3    Zn1   1.998939 S    
C12   N5    1.475179 S    
O3    C2    1.283600 A    
N1    N2    1.278604 D    
O8    C4    1.279049 A    
C11   N4    1.484578 S    
C6    H2    1.110510 S    
O2    C1    1.286209 A    
C7    H7    1.110360 S    
C8    H4    1.114191 S    
C4    C10   1.452918 S    
C13   C14   1.336475 D    
O7    C4    1.290936 A    
N5    O14   1.301223 A    
C10   C12   1.581687 S    
C5    H1    1.113077 S    
C2    C9    1.446485 S    
N3    O9    1.301486 A    
Zn2   O6    1.954408 S    
C8    H5    1.113634 S    
C12   H6    1.113776 S    
Zn1   O5    1.977358 S    
O5    C3    1.286027 A    
N5    O13   1.301572 A    
C5    H11   1.113454 S    
C10   C11   1.592833 S    
C6    H13   1.106209 S    
Zn1   N2    2.015784 S    
C3    C14   1.401556 S    
C5    C9    1.550856 S    
O2    Zn2   1.977358 S    
N2    H10   1.029337 S    
C7    C9    1.550919 S    
Zn2   N1    2.015784 S    
O1    C1    1.275744 A    
O6    C3    1.275871 A    
