data_mof_unit_39652.cif
_audit_creation_date              2012-12-10T20:21:45-0500
_audit_creation_method            fapswitch 2.2
_symmetry_space_group_name_H-M    P1
_symmetry_Int_Tables_number       1
_space_group_crystal_system       triclinic
_cell_length_a                    19.336133
_cell_length_b                    18.451532
_cell_length_c                    8.916004
_cell_angle_alpha                 89.995913
_cell_angle_beta                  89.906545
_cell_angle_gamma                 90.003234
_cell_volume                      3181.05904637

loop_
_atom_site_label
_atom_site_type_symbol
_atom_type_description
_atom_site_fract_x
_atom_site_fract_y
_atom_site_fract_z
_atom_type_partial_charge
C1    C     C_R   0.365641 0.499998 0.500091 0.856460
C2    C     C_R   0.461571 0.197816 0.606634 -0.301921
C3    C     C_R   0.499999 0.841162 0.499998 0.178973
C4    C     C_R   0.500000 0.158818 0.499999 0.180525
C5    C     C_R   0.453460 0.961238 0.405885 0.114569
C6    C     C_R   0.546582 0.038731 0.594000 0.114571
C7    C     C_R   0.546539 0.961236 0.594109 0.114654
C8    C     C_R   0.453419 0.038733 0.405995 0.114614
C9    C     C_R   0.500000 0.077326 0.499998 -0.043317
C10   C     C_R   0.500000 0.922645 0.499997 -0.043736
C11   C     C_R   0.500032 0.500001 0.218391 0.946049
C12   C     C_R   0.634359 0.500003 0.499910 0.856459
C13   C     C_R   0.499967 0.499998 0.781609 0.946055
C14   C     C_1   0.500013 0.500000 0.065312 -0.207358
C15   C     C_1   0.499987 0.499995 0.934688 -0.207358
C16   C     C_R   0.745615 0.434135 0.498164 -0.194355
C17   C     C_R   0.254388 0.565868 0.502085 -0.195162
C18   C     C_R   0.254392 0.434108 0.498981 -0.194344
C19   C     C_R   0.745605 0.565899 0.500782 -0.195195
C20   C     C_R   0.817243 0.434188 0.497994 -0.181136
C21   C     C_R   0.182760 0.565818 0.502245 -0.181123
C22   C     C_R   0.182765 0.434144 0.499006 -0.181360
C23   C     C_R   0.545542 0.726077 0.411119 0.021209
C24   C     C_R   0.817232 0.565865 0.500772 -0.181362
C25   C     C_R   0.853154 0.500031 0.499413 0.119534
C26   C     C_R   0.146844 0.499978 0.500596 0.119553
C27   C     C_R   0.709473 0.500012 0.499624 -0.028575
C28   C     C_R   0.290527 0.499992 0.500381 -0.028577
C29   C     C_R   0.964025 0.543934 0.601483 -0.187283
C30   C     C_R   0.035965 0.456078 0.398521 -0.187082
C31   C     C_R   0.035655 0.543900 0.601825 -0.187974
C32   C     C_R   0.964336 0.456107 0.398191 -0.187763
C33   C     C_R   0.071738 0.499973 0.500343 0.107658
C34   C     C_R   0.537877 0.273922 0.395578 0.019193
C35   C     C_R   0.928255 0.500038 0.499666 0.107604
C36   C     C_3   0.404668 0.918970 0.303470 -0.385759
C37   C     C_3   0.437614 0.905083 0.150336 -0.887358
C38   C     C_3   0.597232 0.081009 0.692037 -0.388212
C39   C     C_3   0.665095 0.095342 0.609239 -0.882371
C40   C     C_3   0.595332 0.918966 0.696524 -0.385853
C41   C     C_3   0.562387 0.905065 0.849659 -0.887414
C42   C     C_3   0.402770 0.081013 0.307955 -0.388213
C43   C     C_3   0.334907 0.095335 0.390748 -0.882526
C44   C     C_R   0.454458 0.726065 0.588880 0.021326
C45   C     C_R   0.462123 0.273909 0.604422 0.019258
C46   C     C_R   0.546407 0.802170 0.409486 -0.300804
C47   C     C_R   0.538430 0.197829 0.393365 -0.301930
C48   C     C_R   0.453592 0.802158 0.590510 -0.300797
H1    H     H_    0.718696 0.382652 0.497450 0.155879
H2    H     H_    0.063460 0.422597 0.318379 0.133279
H3    H     H_    0.062903 0.577366 0.682201 0.132731
H4    H     H_    0.937085 0.422636 0.317828 0.133044
H5    H     H_    0.581364 0.696190 0.341296 0.124232
H6    H     H_    0.567719 0.303794 0.313566 0.125911
H7    H     H_    0.418635 0.696170 0.658703 0.123947
H8    H     H_    0.432283 0.303772 0.686436 0.126108
H9    H     H_    0.583050 0.830476 0.338606 0.135436
H10   H     H_    0.568482 0.169536 0.309158 0.135016
H11   H     H_    0.416949 0.830455 0.661390 0.135358
H12   H     H_    0.281313 0.617349 0.503002 0.152683
H13   H     H_    0.431519 0.169513 0.690841 0.135074
H14   H     H_    0.451908 0.956822 0.095081 0.249839
H15   H     H_    0.484755 0.871352 0.162085 0.270655
H16   H     H_    0.400422 0.875881 0.077333 0.248649
H17   H     H_    0.389652 0.866262 0.353404 0.210526
H18   H     H_    0.354587 0.947093 0.288601 0.206443
H19   H     H_    0.689153 0.043867 0.571515 0.249414
H20   H     H_    0.656124 0.130179 0.509847 0.264068
H21   H     H_    0.701686 0.123608 0.685188 0.247798
H22   H     H_    0.575167 0.133527 0.728797 0.210470
H23   H     H_    0.281316 0.382630 0.498052 0.156027
H24   H     H_    0.608057 0.052753 0.798926 0.206057
H25   H     H_    0.548095 0.956800 0.904915 0.249865
H26   H     H_    0.515244 0.871332 0.837912 0.270655
H27   H     H_    0.599578 0.875861 0.922661 0.248629
H28   H     H_    0.610346 0.866263 0.646591 0.210455
H29   H     H_    0.645413 0.947094 0.711391 0.206422
H30   H     H_    0.310847 0.043855 0.428472 0.249472
H31   H     H_    0.343879 0.130166 0.490141 0.264130
H32   H     H_    0.298318 0.123603 0.314798 0.247611
H33   H     H_    0.424837 0.133535 0.271193 0.210433
H34   H     H_    0.718676 0.617375 0.501505 0.152860
H35   H     H_    0.391945 0.052762 0.201066 0.206066
H36   H     H_    0.844636 0.382968 0.498402 0.130189
H37   H     H_    0.155373 0.617041 0.502011 0.129196
H38   H     H_    0.155378 0.382916 0.499266 0.130130
H39   H     H_    0.844621 0.617091 0.500339 0.129182
H40   H     H_    0.936527 0.577419 0.681614 0.133060
N1    N     N_R   0.500000 0.689440 0.500000 -0.089348
N2    N     N_R   0.500000 0.310560 0.500000 -0.089538
O1    O     O_R   0.398180 0.560840 0.499960 -0.629925
O2    O     O_R   0.601820 0.439160 0.500040 -0.626481
O3    O     O_R   0.601820 0.560840 0.500040 -0.630015
O4    O     O_R   0.398180 0.439160 0.499960 -0.626556
O5    O     O_R   0.500000 0.560800 0.285330 -0.617298
O6    O     O_R   0.500000 0.439200 0.714670 -0.622457
O7    O     O_R   0.500000 0.560800 0.714670 -0.617449
O8    O     O_R   0.500000 0.439200 0.285330 -0.622606
Zn1   Zn    Zn3+2 0.500000 0.581210 0.500000 0.942203
Zn2   Zn    Zn3+2 0.500000 0.418790 0.500000 0.940430

loop_
_geom_bond_atom_site_label_1
_geom_bond_atom_site_label_2
_ccdc_geom_bond_type
C7    C10   A    
C21   C26   A    
C38   H22   S    
C39   H20   S    
C6    C9    A    
C37   H14   S    
C43   H30   S    
N1    Zn1   S    
C11   O8    A    
C36   C37   S    
C8    C42   S    
C38   C39   S    
C11   C14   S    
C36   H18   S    
C20   C25   A    
C43   H31   S    
C5    C36   S    
C3    C48   A    
C32   H4    S    
C29   H40   S    
O7    Zn1   S    
C41   H26   S    
C45   H8    S    
C1    O4    A    
C1    C28   S    
C7    C40   S    
C31   C33   A    
C19   H34   S    
C19   C27   A    
O3    Zn1   S    
C2    H13   S    
C16   C27   A    
C30   H2    S    
C1    O1    A    
C23   C46   A    
C42   H33   S    
N2    Zn2   S    
C37   H15   S    
C23   H5    S    
C21   H37   S    
C2    C45   A    
C38   H24   S    
C40   H29   S    
C12   C27   S    
C32   C35   A    
C18   C28   A    
C16   H1    S    
C36   H17   S    
C8    C9    A    
C13   O6    A    
C43   H32   S    
C17   C21   A    
C40   H28   S    
C2    C4    A    
C34   N2    A    
C41   H27   S    
C26   C33   S    
O4    Zn2   S    
C16   C20   A    
C23   N1    A    
C39   H21   S    
C24   C25   A    
C45   N2    A    
C25   C35   S    
C40   C41   S    
C34   H6    S    
O8    Zn2   S    
C20   H36   S    
C46   H9    S    
C12   O3    A    
C42   C43   S    
C37   H16   S    
O2    Zn2   S    
C48   H11   S    
C11   O5    A    
C18   H23   S    
C30   C33   A    
C18   C22   A    
C17   C28   A    
C39   H19   S    
C12   O2    A    
C42   H35   S    
C31   H3    S    
C5    C8    A    
C6    C7    A    
C29   C35   A    
C3    C46   A    
C13   C15   S    
C19   C24   A    
C5    C10   A    
C29   C31   A    
C3    C10   S    
C47   H10   S    
C30   C32   A    
C44   H7    S    
O6    Zn2   S    
O5    Zn1   S    
C22   H38   S    
C13   O7    A    
C24   H39   S    
C17   H12   S    
C41   H25   S    
C22   C26   A    
C14   C15   T    
C34   C47   A    
O1    Zn1   S    
C4    C9    S    
C6    C38   S    
C44   N1    A    
C44   C48   A    
C4    C47   A    
