data_mof_unit_17683.cif
_audit_creation_date              2012-12-10T20:40:53-0500
_audit_creation_method            fapswitch 2.2
_symmetry_space_group_name_H-M    P1
_symmetry_Int_Tables_number       1
_space_group_crystal_system       triclinic
_cell_length_a                    27.689755
_cell_length_b                    10.675289
_cell_length_c                    9.844824
_cell_angle_alpha                 89.967627
_cell_angle_beta                  90.195169
_cell_angle_gamma                 90.026658
_cell_volume                      2910.07428348

loop_
_atom_site_label
_atom_site_type_symbol
_atom_type_description
_atom_site_fract_x
_atom_site_fract_y
_atom_site_fract_z
_atom_type_partial_charge
C1    C     C_R   0.501347 0.259890 0.500082 0.875208
C2    C     C_R   0.975478 0.442390 0.596322 0.068016
C3    C     C_R   0.974870 0.638012 0.462451 -0.046511
C4    C     C_R   0.406203 0.497781 0.499893 0.867454
C5    C     C_R   0.949879 0.538496 0.527014 0.074561
C6    C     C_R   0.949192 0.340728 0.650944 -0.211653
C7    C     C_R   0.899306 0.336138 0.642262 -0.115259
C8    C     C_R   0.873741 0.432543 0.578950 0.013208
C9    C     C_R   0.898753 0.534427 0.521395 -0.127714
C10   C     C_R   0.872584 0.631661 0.457730 -0.173540
C11   C     C_R   0.821956 0.624468 0.453632 0.554519
C12   C     C_R   0.274541 0.430460 0.427484 0.141807
C13   C     C_R   0.823409 0.428687 0.570799 0.515506
C14   C     C_R   0.723030 0.502718 0.382592 -0.089777
C15   C     C_R   0.672870 0.496229 0.380228 -0.210017
C16   C     C_R   0.501465 0.740076 0.499993 0.886634
C17   C     C_R   0.671409 0.522193 0.625417 -0.207944
C18   C     C_R   0.721440 0.529226 0.627355 -0.090221
C19   C     C_R   0.747296 0.519212 0.506168 0.296143
C20   C     C_R   0.026416 0.449109 0.605982 0.042778
C21   C     C_R   0.051494 0.542503 0.531650 0.075977
C22   C     C_R   0.026025 0.635826 0.457752 0.082715
C23   C     C_R   0.253686 0.524311 0.507974 0.297396
C24   C     C_R   0.053366 0.364920 0.687239 -0.213827
C25   C     C_R   0.102834 0.718637 0.375624 -0.138743
C26   C     C_R   0.947664 0.736342 0.404113 -0.307450
C27   C     C_R   0.897568 0.733385 0.401490 0.700767
C28   C     C_R   0.594033 0.500771 0.500318 0.874289
C29   C     C_R   0.052768 0.722273 0.379032 -0.208429
C30   C     C_R   0.507643 0.063743 0.623566 0.151732
C31   C     C_R   0.508811 0.128508 0.500904 -0.107382
C32   C     C_R   0.519121 0.064852 0.379825 -0.216778
C33   C     C_R   0.519244 0.935320 0.379811 -0.213703
C34   C     C_R   0.102625 0.541444 0.529844 -0.056891
C35   C     C_R   0.509022 0.871423 0.500858 -0.107378
C36   C     C_R   0.507782 0.936005 0.623559 0.132010
C37   C     C_3   0.472248 0.928443 0.737304 -0.473368
C38   C     C_3   0.472016 0.070425 0.737115 -0.493202
C39   C     C_R   0.477066 0.406829 0.071114 0.202872
C40   C     C_R   0.178742 0.449700 0.599419 0.531450
C41   C     C_R   0.526260 0.585229 0.072253 -0.125269
C42   C     C_R   0.526266 0.585236 0.928115 -0.132693
C43   C     C_R   0.476979 0.407023 0.928410 0.209972
C44   C     C_3   0.424434 0.376958 0.922355 -0.495723
C45   C     C_R   0.128354 0.451838 0.606171 -0.025224
C46   C     C_3   0.424598 0.376052 0.076506 -0.490571
C47   C     C_R   0.178576 0.622683 0.445711 0.524524
C48   C     C_R   0.282349 0.605641 0.583985 -0.148902
C49   C     C_R   0.332107 0.594543 0.580236 -0.250670
C50   C     C_R   0.325074 0.416260 0.425208 0.031919
C51   C     C_R   0.103408 0.366207 0.686813 -0.132227
C52   C     C_R   0.128121 0.628935 0.450457 -0.027126
C53   C     C_R   0.353786 0.501604 0.500783 -0.077203
C54   C     C_R   0.646760 0.505694 0.501813 -0.044362
F1    F     F_    0.873956 0.831040 0.342842 -0.606692
H1    H     H_    0.265883 0.677119 0.646604 0.155297
H2    H     H_    0.488458 0.887616 0.830834 0.205010
H3    H     H_    0.436822 0.111205 0.705008 0.198974
H4    H     H_    0.487992 0.111738 0.830675 0.206543
H5    H     H_    0.546681 0.655496 0.126929 0.145289
H6    H     H_    0.546686 0.655513 0.873750 0.147406
H7    H     H_    0.402544 0.454385 0.878361 0.228776
H8    H     H_    0.417443 0.283249 0.877454 0.199543
H9    H     H_    0.402611 0.452543 0.121479 0.236600
H10   H     H_    0.418077 0.281525 0.120136 0.204367
H11   H     H_    0.122475 0.298644 0.749223 0.190685
H12   H     H_    0.121650 0.786064 0.312746 0.191758
H13   H     H_    0.654630 0.483509 0.283722 0.164490
H14   H     H_    0.743100 0.494418 0.288813 0.148987
H15   H     H_    0.880837 0.256008 0.685391 0.196883
H16   H     H_    0.966167 0.260726 0.697627 0.147563
H17   H     H_    0.036861 0.297783 0.754352 0.147014
H18   H     H_    0.353899 0.659443 0.638907 0.159226
H19   H     H_    0.332433 0.230473 0.392035 0.181647
H20   H     H_    0.382866 0.307853 0.361685 0.189319
H21   H     H_    0.254371 0.353891 0.247963 0.212104
H22   H     H_    0.248293 0.257734 0.384156 0.204061
H23   H     H_    0.964058 0.818964 0.361592 0.175270
H24   H     H_    0.652108 0.530477 0.720495 0.163796
H25   H     H_    0.740242 0.542314 0.722949 0.147399
H26   H     H_    0.036104 0.791747 0.314893 0.150224
H27   H     H_    0.523796 0.114012 0.284459 0.172381
H28   H     H_    0.523994 0.886311 0.284449 0.167684
H29   H     H_    0.437164 0.886621 0.705697 0.203811
N1    N     N_R   0.202497 0.533034 0.518347 -0.342089
N2    N     N_R   0.798763 0.523961 0.509416 -0.367228
N3    N     N_R   0.499670 0.499140 0.142800 -0.106255
N4    N     N_R   0.499670 0.499180 0.857150 -0.106161
N5    N     N_3   0.345548 0.313543 0.349699 -0.466976
N6    N     N_3   0.243725 0.349567 0.349647 -0.443166
O1    O     O_R   0.500010 0.316790 0.614690 -0.613146
O2    O     O_R   0.571250 0.500000 0.614690 -0.621377
O3    O     O_R   0.571240 0.499960 0.385340 -0.621972
O4    O     O_2   0.203935 0.364559 0.672241 -0.563916
O5    O     O_2   0.799131 0.330238 0.623196 -0.543321
O6    O     O_2   0.203573 0.704303 0.368260 -0.559304
O7    O     O_2   0.795909 0.717038 0.395541 -0.465356
O8    O     O_R   0.500000 0.316760 0.385350 -0.627821
O9    O     O_R   0.428760 0.500040 0.614660 -0.619823
O10   O     O_R   0.428750 0.500000 0.385310 -0.612726
O11   O     O_R   0.500000 0.683240 0.614650 -0.621632
O12   O     O_R   0.499990 0.683210 0.385310 -0.622897
Zn1   Zn    Zn3+2 0.500000 0.500020 0.653130 0.948693
Zn2   Zn    Zn3+2 0.500000 0.499980 0.346870 0.949357

loop_
_geom_bond_atom_site_label_1
_geom_bond_atom_site_label_2
_ccdc_geom_bond_type
C10   C27   A    
O9    Zn1   S    
C8    C13   A    
C22   C29   A    
C4    C53   S    
C41   C42   A    
C35   C36   A    
C25   H12   S    
C39   N3    A    
C19   N2    S    
C7    H15   S    
C7    C8    A    
C17   H24   S    
C29   H26   S    
C12   C23   A    
C26   C27   A    
C26   H23   S    
C13   O5    S    
C43   N4    A    
C47   N1    A    
H19   N5    S    
C12   N6    S    
C36   C37   S    
C16   C35   S    
C30   C31   A    
C27   F1    S    
C45   C51   A    
C11   N2    A    
C1    C31   S    
C30   C38   S    
C18   C19   A    
O2    Zn1   S    
C38   H3    S    
O10   Zn2   S    
C20   C24   A    
C8    C9    A    
C13   N2    A    
C47   O6    S    
C37   H29   S    
C9    C10   A    
C24   C51   A    
C1    O1    A    
C21   C22   A    
C2    C6    A    
O3    Zn2   S    
C44   C46   S    
C44   H8    S    
C25   C29   A    
C40   C45   A    
C41   N3    A    
H22   N6    S    
C50   C53   A    
C2    C20   A    
C15   C54   A    
C46   H10   S    
O1    Zn1   S    
C28   C54   S    
C39   C43   A    
C21   C34   A    
C44   H7    S    
N3    Zn2   S    
C46   H9    S    
C28   O3    A    
C51   H11   S    
C40   N1    A    
C43   C44   S    
C5    C9    A    
C37   C38   S    
C50   N5    S    
C31   C32   A    
C17   C18   A    
C28   O2    A    
C34   C45   A    
O12   Zn2   S    
C33   H28   S    
C42   H6    S    
C47   C52   A    
C39   C46   S    
C16   O12   A    
C48   C49   A    
C4    O10   A    
C14   H14   S    
C49   H18   S    
C2    C5    A    
C42   N4    A    
N4    Zn1   S    
C24   H17   S    
C48   H1    S    
C23   C48   A    
C14   C19   A    
C3    C26   A    
C41   H5    S    
C40   O4    S    
C6    H16   S    
C3    C5    A    
C1    O8    A    
C12   C50   A    
C6    C7    A    
C32   H27   S    
C34   C52   A    
C30   C36   A    
C11   O7    S    
C32   C33   A    
C25   C52   A    
C18   H25   S    
C49   C53   A    
C15   H13   S    
C33   C35   A    
C10   C11   A    
H20   N5    S    
C38   H4    S    
C16   O11   A    
C20   C21   A    
O11   Zn1   S    
C23   N1    S    
C4    O9    A    
C14   C15   A    
C3    C22   A    
C17   C54   A    
O8    Zn2   S    
C37   H2    S    
H21   N6    S    
