data_mof_unit_39955.cif
_audit_creation_date              2012-12-10T17:02:56-0500
_audit_creation_method            fapswitch 2.2
_symmetry_space_group_name_H-M    P1
_symmetry_Int_Tables_number       1
_space_group_crystal_system       triclinic
_cell_length_a                    9.96652
_cell_length_b                    11.148075
_cell_length_c                    13.36745
_cell_angle_alpha                 93.385206
_cell_angle_beta                  85.757565
_cell_angle_gamma                 107.90507
_cell_volume                      1408.38625556

loop_
_atom_site_label
_atom_site_type_symbol
_atom_type_description
_atom_site_fract_x
_atom_site_fract_y
_atom_site_fract_z
_atom_type_partial_charge
C1    C     C_R   0.550215 0.741850 0.511663 0.853010
C2    C     C_R   0.443924 0.565867 0.967952 -0.071875
C3    C     C_R   0.490365 0.524498 0.873472 0.054466
C4    C     C_R   0.542911 0.609774 0.044161 -0.039164
C5    C     C_R   0.688102 0.654703 0.014483 0.041356
C6    C     C_R   0.733497 0.621015 0.917100 -0.132549
C7    C     C_R   0.634371 0.531748 0.858742 -0.050506
C8    C     C_R   0.505182 0.593440 0.148016 0.377231
C9    C     C_R   0.751401 0.676127 0.188385 -0.094250
C10   C     C_R   0.388940 0.469278 0.800746 -0.120577
C11   C     C_2   0.557282 0.869047 0.545960 0.247621
C12   C     C_R   0.426350 0.480051 0.690307 0.773619
C13   C     C_2   0.539109 0.951129 0.481910 -0.091932
C14   C     C_2   0.430910 0.120384 0.501937 0.131643
C15   C     C_2   0.544423 0.079735 0.516103 0.346823
C16   C     C_2   0.927653 0.500083 0.485223 0.009479
C17   C     C_2   0.083977 0.522909 0.497478 0.138832
C18   C     C_R   0.447632 0.256162 0.497273 0.818185
C19   C     C_R   0.574664 0.536098 0.314155 0.861497
C20   C     C_R   0.784704 0.713925 0.088191 -0.114348
C21   C     C_R   0.612545 0.598485 0.214978 -0.159319
C22   C     C_R   0.247080 0.414991 0.836553 -0.085460
C23   C     C_R   0.200895 0.463132 0.928788 0.014924
C24   C     C_R   0.300489 0.559085 0.981846 0.076004
Cu1   Cu    Cu3+1 0.362000 0.479240 0.482530 0.995217
Cu2   Cu    Cu3+1 0.638000 0.520760 0.517470 1.009691
N1    N     N_2   0.845330 0.551960 0.543750 -0.292138
N2    N     N_2   0.154690 0.448120 0.456210 -0.072343
O1    O     O_R   0.426290 0.668220 0.490680 -0.638148
O2    O     O_R   0.659360 0.703290 0.520190 -0.550967
O3    O     O_R   0.326580 0.473880 0.629020 -0.555166
O4    O     O_R   0.559660 0.508940 0.658530 -0.598354
O5    O     O_R   0.340640 0.296710 0.479810 -0.562618
O6    O     O_R   0.573710 0.331780 0.509320 -0.512666
O7    O     O_R   0.440340 0.491060 0.341470 -0.593991
O8    O     O_R   0.673420 0.526120 0.370980 -0.572175
C25   C     C_2   0.858272 0.728652 0.264082 0.398178
H1    H     H_    0.968391 0.742601 0.243772 0.028130
O9    O     O_2   0.825879 0.764283 0.347693 -0.499465
C26   C     C_2   0.534856 0.926461 0.371735 0.279313
H2    H     H_    0.470031 0.964660 0.329008 0.111263
O10   O     O_2   0.611807 0.872273 0.326890 -0.553923
O11   O     O_3   0.299802 0.035155 0.484259 -0.625420
C27   C     C_3   0.221594 0.007399 0.577197 0.059834
H3    H     H_    0.240909 0.090438 0.631233 0.143086
H4    H     H_    0.249420 0.930924 0.612007 0.170280
C28   C     C_3   0.064290 0.962782 0.559941 -0.690008
H5    H     H_    0.040009 0.885145 0.501765 0.247137
H6    H     H_    0.003149 0.928266 0.630942 0.224489
H7    H     H_    0.031317 0.042294 0.535276 0.249777
O12   O     O_3   0.589093 0.906162 0.644590 -0.655713
C29   C     C_3   0.490362 0.830981 0.713988 0.059960
H8    H     H_    0.477138 0.729238 0.700121 0.162858
H9    H     H_    0.387072 0.848986 0.712055 0.193401
C30   C     C_3   0.543692 0.866891 0.818513 -0.713433
H10   H     H_    0.558005 0.968518 0.836173 0.257785
H11   H     H_    0.466180 0.810291 0.874360 0.190803
H12   H     H_    0.646140 0.847959 0.823214 0.273480
C31   C     C_2   0.161254 0.650361 0.534635 0.433988
H13   H     H_    0.165617 0.731161 0.491914 0.012342
O13   O     O_2   0.214469 0.666593 0.615540 -0.521790
C32   C     C_2   0.876926 0.434775 0.389803 0.568540
H14   H     H_    0.912373 0.482160 0.319850 0.003681
O14   O     O_2   0.798278 0.326946 0.387369 -0.473063
O15   O     O_3   0.077255 0.327730 0.435957 -0.506187
C33   C     C_3   0.116361 0.295103 0.336937 0.213289
H15   H     H_    0.230920 0.307933 0.325912 0.197635
H16   H     H_    0.087332 0.353044 0.282393 0.148240
C34   C     C_3   0.038251 0.157054 0.313343 -0.722476
H17   H     H_    0.922548 0.138863 0.326948 0.293418
H18   H     H_    0.061078 0.132880 0.233424 0.209818
H19   H     H_    0.073552 0.095875 0.361203 0.257049
C35   C     C_2   0.883486 0.606525 0.640183 0.507586
H20   H     H_    0.838620 0.678485 0.671731 0.106285
O16   O     O_2   0.956276 0.566939 0.691033 -0.587631
C36   C     C_2   0.885228 0.651955 0.886946 0.463508
H21   H     H_    0.941760 0.586137 0.898884 0.090897
O17   O     O_2   0.947147 0.750981 0.846821 -0.473831
C37   C     C_2   0.908621 0.825021 0.063730 0.497501
H22   H     H_    0.006642 0.843361 0.100384 0.069643
O18   O     O_2   0.899380 0.901286 0.004744 -0.469626
O19   O     O_3   0.365008 0.566047 0.182261 -0.574613
C38   C     C_3   0.348554 0.673345 0.238033 0.116104
H23   H     H_    0.396066 0.762352 0.197673 0.132678
H24   H     H_    0.398168 0.684754 0.310297 0.198521
C39   C     C_3   0.193885 0.657375 0.262381 -0.836150
H25   H     H_    0.182007 0.740792 0.307393 0.190937
H26   H     H_    0.148437 0.572449 0.305653 0.216784
H27   H     H_    0.135531 0.644770 0.193702 0.291433
C40   C     C_2   0.156634 0.301645 0.782356 0.347918
H28   H     H_    0.176415 0.284068 0.702985 0.105525
O20   O     O_2   0.065115 0.220442 0.827433 -0.540119
C41   C     C_2   0.267959 0.676742 0.015820 0.389133
H29   H     H_    0.352059 0.758938 0.039129 0.062362
O21   O     O_2   0.150403 0.687262 0.011169 -0.582432
C42   C     C_2   0.050970 0.419309 0.967690 0.492108
H30   H     H_    0.967355 0.375234 0.917683 0.073626
O22   O     O_2   0.019262 0.431582 0.056893 -0.542420
C43   C     C_2   0.673986 0.421709 0.812385 0.386337
H31   H     H_    0.782400 0.421415 0.809777 0.061672
O23   O     O_2   0.584843 0.325975 0.783912 -0.569044
O24   O     O_3   0.678246 0.165538 0.526650 -0.528514
C44   C     C_3   0.734745 0.149327 0.616709 0.157183
H32   H     H_    0.788476 0.075451 0.604916 0.201602
H33   H     H_    0.652760 0.129242 0.680145 0.197640
C45   C     C_3   0.846789 0.268708 0.646655 -0.685068
H34   H     H_    0.873074 0.263574 0.725048 0.213051
H35   H     H_    0.943709 0.281924 0.597345 0.272649
H36   H     H_    0.804646 0.348290 0.641442 0.279420

loop_
_geom_bond_atom_site_label_1
_geom_bond_atom_site_label_2
_ccdc_geom_bond_type
Cu1   O3    S    
C33   H16   S    
C30   H10   S    
Cu2   O4    S    
C41   H29   S    
C35   H20   S    
C14   C18   S    
C1    C11   S    
C4    C8    A    
C28   H6    S    
C5    C20   A    
C10   C22   A    
Cu1   N2    S    
Cu2   N1    S    
C25   H1    S    
C7    C43   S    
C8    O19   S    
C19   C21   S    
C36   O17   D    
C3    C7    A    
C19   O8    A    
C5    C6    A    
C39   H26   S    
C33   C34   S    
C45   H34   S    
C23   C42   S    
C34   H18   S    
C13   C26   S    
C32   O14   D    
Cu2   O6    S    
C38   H23   S    
C27   H4    S    
C16   C17   S    
C42   O22   D    
C23   C24   A    
C29   C30   S    
C16   N1    D    
C26   O10   D    
C33   H15   S    
C31   H13   S    
C41   O21   D    
C12   O4    A    
C35   O16   D    
O24   C44   S    
C16   C32   S    
C9    C25   S    
C29   H9    S    
C28   H7    S    
Cu1   O1    S    
C31   O13   D    
O12   C29   S    
C28   H5    S    
C36   H21   S    
C37   O18   D    
C39   H25   S    
Cu1   Cu2   S    
C34   H19   S    
C2    C4    A    
O11   C27   S    
C32   H14   S    
C9    C20   A    
C40   O20   D    
C43   H31   S    
C42   H30   S    
C1    O1    A    
C8    C21   A    
C22   C40   S    
C44   H33   S    
C18   O6    A    
C10   C12   S    
C17   C31   S    
Cu2   O8    S    
C26   H2    S    
C43   O23   D    
Cu1   O7    S    
Cu2   O2    S    
C13   C15   S    
C12   O3    A    
C2    C24   A    
C29   H8    S    
C20   C37   S    
C38   H24   S    
C14   C15   D    
C17   N2    D    
C27   H3    S    
C4    C5    A    
C39   H27   S    
C27   C28   S    
C6    C36   S    
C6    C7    A    
C30   H11   S    
C2    C3    A    
C25   O9    D    
C3    C10   A    
C19   O7    A    
C24   C41   S    
C11   C13   D    
C9    C21   A    
C40   H28   S    
C45   H35   S    
C1    O2    A    
N2    O15   S    
C44   C45   S    
O15   C33   S    
C15   O24   S    
C34   H17   S    
C18   O5    A    
C11   O12   S    
C37   H22   S    
C38   C39   S    
O19   C38   S    
C30   H12   S    
C44   H32   S    
C22   C23   A    
N1    C35   S    
Cu1   O5    S    
C14   O11   S    
C45   H36   S    
