data_mof_unit_37759.cif
_audit_creation_date              2012-12-10T17:06:15-0500
_audit_creation_method            fapswitch 2.2
_symmetry_space_group_name_H-M    P1
_symmetry_Int_Tables_number       1
_space_group_crystal_system       triclinic
_cell_length_a                    23.490401
_cell_length_b                    30.602056
_cell_length_c                    19.475697
_cell_angle_alpha                 89.997337
_cell_angle_beta                  128.212934
_cell_angle_gamma                 90.004665
_cell_volume                      11000.1940048

loop_
_atom_site_label
_atom_site_type_symbol
_atom_type_description
_atom_site_fract_x
_atom_site_fract_y
_atom_site_fract_z
_atom_type_partial_charge
C1    C     C_R   0.689344 0.809959 0.880202 0.865023
C2    C     C_R   0.293118 0.130389 0.191187 0.041449
C3    C     C_R   0.799493 0.072606 0.806160 0.478829
C4    C     C_R   0.236638 0.355708 0.668500 0.473973
C5    C     C_R   0.700538 0.572423 0.193613 0.478803
C6    C     C_R   0.763114 0.355787 0.331203 0.473985
C7    C     C_R   0.299471 0.572476 0.806335 0.478816
C8    C     C_R   0.668795 0.873188 0.637273 0.435845
C9    C     C_R   0.273601 0.061730 0.236273 0.434096
C10   C     C_R   0.330929 0.873278 0.362466 0.435555
C11   C     C_R   0.726426 0.061783 0.763653 0.433958
C12   C     C_R   0.169134 0.373342 0.637641 0.436756
C13   C     C_R   0.312739 0.848651 0.231696 0.047574
C14   C     C_R   0.773636 0.561669 0.236183 0.434244
C15   C     C_R   0.830662 0.373406 0.362169 0.436468
C16   C     C_R   0.226380 0.561703 0.763778 0.434168
C17   C     C_R   0.648122 0.874762 0.692560 -0.114457
C18   C     C_R   0.322481 0.093025 0.244525 -0.106964
C19   C     C_R   0.351747 0.874809 0.307316 -0.114194
C20   C     C_R   0.677534 0.093046 0.755448 -0.106855
C21   C     C_R   0.148296 0.374853 0.692764 -0.114527
C22   C     C_R   0.822495 0.593000 0.244487 -0.107071
C23   C     C_R   0.851611 0.374884 0.307150 -0.114345
C24   C     C_R   0.706885 0.130413 0.808786 0.041429
C25   C     C_R   0.177515 0.593014 0.755498 -0.107025
C26   C     C_3   0.802925 0.827864 0.623897 0.058714
C27   C     C_3   0.882224 0.842758 0.680862 -0.334654
C28   C     C_3   0.932390 0.805431 0.697343 -0.945017
C29   C     C_3   0.083573 0.046480 0.136223 0.052427
C30   C     C_3   0.051367 0.073630 0.170982 -0.335064
C31   C     C_3   0.971879 0.084523 0.098670 -0.963300
C32   C     C_3   0.196610 0.827979 0.375522 0.058787
C33   C     C_3   0.117295 0.842840 0.318465 -0.334717
C34   C     C_3   0.067134 0.805489 0.301915 -0.944876
C35   C     C_R   0.187332 0.348725 0.768413 0.047607
C36   C     C_3   0.916441 0.046590 0.863664 0.052362
C37   C     C_3   0.948699 0.073758 0.828983 -0.335041
C38   C     C_3   0.028189 0.084628 0.901343 -0.963224
C39   C     C_3   0.303474 0.328123 0.624610 0.058723
C40   C     C_3   0.382757 0.343045 0.681556 -0.334732
C41   C     C_3   0.432968 0.305725 0.698138 -0.944783
C42   C     C_3   0.583608 0.546362 0.136154 0.052470
C43   C     C_3   0.551497 0.573504 0.171041 -0.335124
C44   C     C_3   0.471990 0.584401 0.098831 -0.963304
C45   C     C_3   0.696147 0.328224 0.374931 0.058800
C46   C     C_R   0.793109 0.630359 0.191141 0.041453
C47   C     C_3   0.616859 0.343138 0.317886 -0.334812
C48   C     C_3   0.566622 0.305810 0.301220 -0.944660
C49   C     C_3   0.416402 0.546434 0.863786 0.052438
C50   C     C_3   0.448536 0.573593 0.828941 -0.335131
C51   C     C_3   0.528045 0.584480 0.901175 -0.963244
C52   C     C_3   0.579033 0.847083 0.500300 0.063749
C53   C     C_3   0.593165 0.834774 0.435950 -0.288818
C54   C     C_3   0.545918 0.796303 0.378606 -0.970088
C55   C     C_3   0.287788 0.996113 0.192356 0.070648
C56   C     C_3   0.227899 0.961699 0.152883 -0.298505
C57   C     C_R   0.812603 0.348755 0.231496 0.047535
C58   C     C_3   0.218836 0.936900 0.078707 -0.952596
C59   C     C_3   0.420328 0.847239 0.499671 0.064354
C60   C     C_3   0.406268 0.835390 0.564271 -0.288481
C61   C     C_3   0.453172 0.796866 0.621772 -0.970527
C62   C     C_3   0.712444 0.996113 0.807629 0.070773
C63   C     C_3   0.772162 0.961616 0.846689 -0.298306
C64   C     C_3   0.781463 0.936784 0.920987 -0.952719
C65   C     C_3   0.079152 0.347191 0.500820 0.062899
C66   C     C_3   0.093605 0.334302 0.437008 -0.289353
C67   C     C_3   0.046051 0.295877 0.379837 -0.969983
C68   C     C_R   0.206894 0.630374 0.808846 0.041446
C69   C     C_3   0.788027 0.496105 0.192312 0.070497
C70   C     C_3   0.727989 0.461770 0.152458 -0.298730
C71   C     C_3   0.719154 0.436996 0.078403 -0.952409
C72   C     C_3   0.920355 0.347302 0.499173 0.063395
C73   C     C_3   0.905973 0.334790 0.563210 -0.289057
C74   C     C_3   0.953246 0.296318 0.620501 -0.970313
C75   C     C_3   0.212083 0.496109 0.807668 0.070575
C76   C     C_3   0.272036 0.461734 0.847321 -0.298642
C77   C     C_3   0.280988 0.436946 0.921441 -0.952481
C78   C     C_R   0.659971 0.842717 0.814583 -0.041559
C79   C     C_R   0.338746 0.157149 0.185450 -0.034559
C80   C     C_R   0.340046 0.842713 0.185421 -0.041556
C81   C     C_R   0.309361 0.190110 0.119989 0.860538
C82   C     C_R   0.661256 0.157149 0.814554 -0.034516
C83   C     C_R   0.159939 0.342711 0.814576 -0.041362
C84   C     C_R   0.838737 0.657151 0.185454 -0.034626
C85   C     C_R   0.840074 0.342707 0.185428 -0.041376
C86   C     C_R   0.161265 0.657151 0.814548 -0.034601
C87   C     C_R   0.600851 0.865960 0.794637 -0.243304
C88   C     C_R   0.412938 0.150244 0.237395 -0.215199
C89   C     C_R   0.399281 0.865884 0.205529 -0.243414
C90   C     C_R   0.587073 0.150216 0.762648 -0.215225
C91   C     C_R   0.100550 0.365768 0.794281 -0.243613
C92   C     C_R   0.310675 0.809959 0.119799 0.865061
C93   C     C_R   0.912944 0.650283 0.237469 -0.215131
C94   C     C_R   0.899545 0.365714 0.205840 -0.243697
C95   C     C_R   0.087064 0.650266 0.762554 -0.215144
C96   C     C_R   0.567538 0.895711 0.727617 -0.217964
C97   C     C_R   0.443287 0.116507 0.296524 -0.203470
C98   C     C_R   0.432579 0.895633 0.272548 -0.217880
C99   C     C_R   0.556731 0.116478 0.703524 -0.203478
C100  C     C_R   0.067222 0.395506 0.727234 -0.217605
C101  C     C_R   0.943303 0.616549 0.296606 -0.203495
C102  C     C_R   0.932862 0.395450 0.272887 -0.217515
C103  C     C_R   0.690637 0.190110 0.880012 0.860530
C104  C     C_R   0.056708 0.616532 0.703419 -0.203493
C105  C     C_R   0.590496 0.900893 0.676622 -0.106753
C106  C     C_R   0.399342 0.088216 0.301952 -0.092878
C107  C     C_R   0.409477 0.900889 0.323379 -0.106951
C108  C     C_R   0.600674 0.088212 0.698057 -0.092868
C109  C     C_R   0.090468 0.400862 0.676575 -0.107473
C110  C     C_R   0.899359 0.588225 0.301972 -0.092878
C111  C     C_R   0.909510 0.400860 0.323425 -0.107630
C112  C     C_R   0.100651 0.588224 0.698032 -0.092881
C113  C     C_R   0.063457 0.557583 0.625824 0.913918
C114  C     C_R   0.189334 0.309958 0.880202 0.865095
C115  C     C_R   0.941917 0.436930 0.385062 0.900335
C116  C     C_R   0.936547 0.557584 0.374179 0.913931
C117  C     C_R   0.058074 0.436928 0.614933 0.900309
C118  C     C_R   0.563466 0.057576 0.625837 0.913816
C119  C     C_R   0.441917 0.936931 0.385063 0.901162
C120  C     C_R   0.436540 0.057579 0.374169 0.913834
C121  C     C_R   0.558074 0.936931 0.614934 0.901129
C122  C     C_R   0.640417 0.749778 0.999572 0.885550
C123  C     C_R   0.359650 0.250155 0.000558 0.888574
C124  C     C_R   0.359582 0.749780 0.000425 0.885491
C125  C     C_R   0.809350 0.690110 0.119989 0.860539
C126  C     C_R   0.640351 0.250153 0.999444 0.888552
C127  C     C_R   0.140416 0.249779 0.999571 0.885529
C128  C     C_R   0.859650 0.750155 0.000557 0.888550
C129  C     C_R   0.859582 0.249780 0.000426 0.885479
C130  C     C_R   0.140351 0.750153 0.999444 0.888535
C131  C     C_1   0.580166 0.748949 0.999473 -0.194480
C132  C     C_1   0.419904 0.250949 0.000660 -0.197111
C133  C     C_1   0.419827 0.748951 0.000513 -0.194486
C134  C     C_1   0.580104 0.250946 0.999355 -0.197097
C135  C     C_1   0.080166 0.248948 0.999473 -0.194458
C136  C     C_R   0.810681 0.309957 0.119799 0.865116
C137  C     C_1   0.919904 0.750948 0.000660 -0.197102
C138  C     C_1   0.919827 0.248951 0.000513 -0.194461
C139  C     C_1   0.080104 0.750945 0.999355 -0.197085
C140  C     C_1   0.529507 0.748511 0.999751 -0.001278
C141  C     C_1   0.470524 0.251357 0.000308 -0.003972
C142  C     C_1   0.470483 0.748512 0.000229 -0.001277
C143  C     C_1   0.529487 0.251355 0.999713 -0.003963
C144  C     C_1   0.029507 0.248510 0.999752 -0.001274
C145  C     C_1   0.970524 0.751355 0.000308 -0.003925
C146  C     C_1   0.970483 0.248511 0.000229 -0.001271
C147  C     C_R   0.190650 0.690110 0.880012 0.860532
C148  C     C_1   0.029487 0.751354 0.999713 -0.003913
C149  C     C_R   0.753144 0.829528 0.797023 -0.248870
C150  C     C_R   0.219320 0.140428 0.145542 -0.236671
C151  C     C_R   0.246692 0.829620 0.202700 -0.248883
C152  C     C_R   0.780672 0.140480 0.854403 -0.236723
C153  C     C_R   0.253456 0.329780 0.797498 -0.248940
C154  C     C_R   0.719292 0.640359 0.145441 -0.236626
C155  C     C_R   0.746430 0.329838 0.202308 -0.248952
C156  C     C_R   0.280706 0.640392 0.854533 -0.236647
C157  C     C_R   0.779237 0.835000 0.750310 -0.370550
C158  C     C_R   0.687168 0.848604 0.768173 0.047718
C159  C     C_R   0.174671 0.113184 0.150579 -0.369481
C160  C     C_R   0.220493 0.835119 0.249284 -0.370470
C161  C     C_R   0.825325 0.113266 0.849332 -0.369403
C162  C     C_R   0.279668 0.335318 0.750924 -0.370690
C163  C     C_R   0.674651 0.613082 0.150439 -0.369572
C164  C     C_R   0.720137 0.335397 0.248781 -0.370648
C165  C     C_R   0.325349 0.613133 0.849518 -0.369531
C166  C     C_R   0.736204 0.855456 0.667953 0.473866
C167  C     C_R   0.200520 0.072521 0.193738 0.478818
C168  C     C_R   0.263462 0.855569 0.331645 0.473889
H1    H     H_    0.580889 0.861268 0.831585 0.148603
H2    H     H_    0.196174 0.170266 0.108113 0.165484
H3    H     H_    0.198469 0.959222 0.022893 0.258306
H4    H     H_    0.179254 0.909935 0.056172 0.271896
H5    H     H_    0.271292 0.922841 0.101049 0.283183
H6    H     H_    0.478177 0.855892 0.537875 0.140590
H7    H     H_    0.411431 0.817725 0.460152 0.100200
H8    H     H_    0.418108 0.864069 0.606205 0.232925
H9    H     H_    0.348604 0.826397 0.528250 0.231068
H10   H     H_    0.438024 0.767056 0.581272 0.261571
H11   H     H_    0.444817 0.790534 0.671112 0.267892
H12   H     H_    0.511396 0.803973 0.656303 0.282661
H13   H     H_    0.213305 0.811781 0.141785 0.166644
H14   H     H_    0.660155 0.979589 0.779291 0.147324
H15   H     H_    0.723473 0.017477 0.861321 0.109701
H16   H     H_    0.758660 0.938285 0.794886 0.239827
H17   H     H_    0.824397 0.977574 0.872725 0.234061
H18   H     H_    0.802179 0.959057 0.976969 0.258286
H19   H     H_    0.820860 0.909747 0.943174 0.271902
H20   H     H_    0.729026 0.922819 0.898916 0.283168
H21   H     H_    0.021444 0.356281 0.462026 0.141370
H22   H     H_    0.087194 0.318048 0.540703 0.100306
H23   H     H_    0.082660 0.362654 0.394769 0.233350
H24   H     H_    0.803806 0.170319 0.891836 0.165485
H25   H     H_    0.151131 0.324764 0.473703 0.229993
H26   H     H_    0.060156 0.266346 0.420710 0.261551
H27   H     H_    0.054886 0.288719 0.331172 0.267930
H28   H     H_    0.987904 0.303594 0.344509 0.282674
H29   H     H_    0.840264 0.479449 0.220939 0.147623
H30   H     H_    0.777570 0.517562 0.139032 0.109783
H31   H     H_    0.740906 0.438380 0.203913 0.240103
H32   H     H_    0.675753 0.477867 0.125978 0.233719
H33   H     H_    0.699062 0.459353 0.022718 0.258322
H34   H     H_    0.679438 0.410084 0.055588 0.271885
H35   H     H_    0.286868 0.311969 0.858445 0.166599
H36   H     H_    0.771636 0.422868 0.100981 0.283146
H37   H     H_    0.978116 0.356250 0.537809 0.141014
H38   H     H_    0.912047 0.318021 0.459448 0.100339
H39   H     H_    0.917242 0.363260 0.605347 0.233114
H40   H     H_    0.848379 0.325463 0.526705 0.230371
H41   H     H_    0.938769 0.266687 0.579754 0.261601
H42   H     H_    0.944531 0.289458 0.669367 0.267930
H43   H     H_    0.011436 0.303805 0.655594 0.282651
H44   H     H_    0.159830 0.479485 0.779110 0.147565
H45   H     H_    0.222685 0.517541 0.861053 0.109770
H46   H     H_    0.696122 0.670194 0.108001 0.165490
H47   H     H_    0.258965 0.438358 0.795778 0.240014
H48   H     H_    0.324273 0.477797 0.873686 0.233816
H49   H     H_    0.301251 0.459281 0.977206 0.258313
H50   H     H_    0.320614 0.410000 0.944091 0.271880
H51   H     H_    0.228514 0.422863 0.898997 0.283144
H52   H     H_    0.713046 0.312029 0.141356 0.166625
H53   H     H_    0.303870 0.670226 0.891976 0.165492
H54   H     H_    0.832183 0.821899 0.778240 0.176978
H55   H     H_    0.119791 0.124050 0.118534 0.172210
H56   H     H_    0.167507 0.822046 0.221253 0.176995
H57   H     H_    0.447420 0.171200 0.232312 0.142849
H58   H     H_    0.880194 0.124152 0.881358 0.172221
H59   H     H_    0.332691 0.322303 0.778989 0.177030
H60   H     H_    0.619754 0.623923 0.118357 0.172189
H61   H     H_    0.667084 0.322399 0.220639 0.177043
H62   H     H_    0.380242 0.623987 0.881593 0.172198
H63   H     H_    0.523866 0.915071 0.716375 0.170525
H64   H     H_    0.501718 0.113065 0.339277 0.167734
H65   H     H_    0.476359 0.914932 0.283921 0.170763
H66   H     H_    0.498302 0.113016 0.660803 0.167758
H67   H     H_    0.023319 0.414721 0.715718 0.170992
H68   H     H_    0.419342 0.861140 0.168703 0.148537
H69   H     H_    0.001740 0.613133 0.339411 0.167692
H70   H     H_    0.976844 0.414621 0.284500 0.171188
H71   H     H_    0.998273 0.613104 0.660631 0.167708
H72   H     H_    0.785526 0.821307 0.557294 0.155736
H73   H     H_    0.796306 0.796115 0.646315 0.126806
H74   H     H_    0.887764 0.869908 0.647440 0.229452
H75   H     H_    0.899411 0.855316 0.744608 0.222204
H76   H     H_    0.929376 0.778490 0.733231 0.264421
H77   H     H_    0.989134 0.817418 0.737475 0.270868
H78   H     H_    0.917045 0.792765 0.634459 0.262816
H79   H     H_    0.552592 0.171153 0.767758 0.142828
H80   H     H_    0.060139 0.013106 0.122016 0.157472
H81   H     H_    0.067292 0.058604 0.072560 0.125851
H82   H     H_    0.055994 0.054871 0.223113 0.228251
H83   H     H_    0.082018 0.104565 0.200448 0.225998
H84   H     H_    0.966857 0.105976 0.049181 0.260402
H85   H     H_    0.949326 0.102136 0.126867 0.274552
H86   H     H_    0.939997 0.054170 0.066697 0.259755
H87   H     H_    0.213954 0.821428 0.442102 0.155581
H88   H     H_    0.203281 0.796232 0.353153 0.126895
H89   H     H_    0.111685 0.869979 0.351842 0.229415
H90   H     H_    0.080397 0.360949 0.830992 0.148522
H91   H     H_    0.100159 0.855404 0.254745 0.222238
H92   H     H_    0.070214 0.778560 0.266064 0.264421
H93   H     H_    0.010378 0.817454 0.261720 0.270921
H94   H     H_    0.082428 0.792814 0.364771 0.262773
H95   H     H_    0.939858 0.013214 0.877846 0.157399
H96   H     H_    0.932698 0.058695 0.927326 0.125893
H97   H     H_    0.944081 0.055021 0.776839 0.228245
H98   H     H_    0.918076 0.104702 0.799554 0.225998
H99   H     H_    0.033206 0.106052 0.950857 0.260396
H100  H     H_    0.050777 0.102262 0.873204 0.274561
H101  H     H_    0.947426 0.671264 0.232430 0.142896
H102  H     H_    0.060044 0.054264 0.933270 0.259754
H103  H     H_    0.286086 0.321528 0.558023 0.155855
H104  H     H_    0.296894 0.296388 0.647107 0.126693
H105  H     H_    0.388279 0.370174 0.648080 0.229473
H106  H     H_    0.399918 0.355639 0.745268 0.222184
H107  H     H_    0.429977 0.278807 0.734085 0.264460
H108  H     H_    0.489699 0.317732 0.738251 0.270857
H109  H     H_    0.417647 0.293020 0.635289 0.262771
H110  H     H_    0.560159 0.512992 0.121945 0.157545
H111  H     H_    0.567268 0.558498 0.072472 0.125791
H112  H     H_    0.919769 0.360860 0.169217 0.148473
H113  H     H_    0.556200 0.554738 0.223214 0.228289
H114  H     H_    0.582160 0.604437 0.200483 0.225984
H115  H     H_    0.466898 0.605862 0.049308 0.260398
H116  H     H_    0.449507 0.602005 0.127121 0.274533
H117  H     H_    0.440093 0.554050 0.066877 0.259784
H118  H     H_    0.713468 0.321640 0.441492 0.155734
H119  H     H_    0.702761 0.296485 0.352486 0.126769
H120  H     H_    0.611285 0.370263 0.351318 0.229441
H121  H     H_    0.599766 0.355735 0.254205 0.222212
H122  H     H_    0.569664 0.278897 0.265311 0.264461
H123  H     H_    0.052582 0.671235 0.767607 0.142883
H124  H     H_    0.509887 0.317812 0.261039 0.270897
H125  H     H_    0.581875 0.293100 0.364036 0.262736
H126  H     H_    0.439844 0.513066 0.877978 0.157509
H127  H     H_    0.432729 0.558557 0.927468 0.125817
H128  H     H_    0.443837 0.554843 0.776757 0.228285
H129  H     H_    0.417887 0.604530 0.799523 0.225988
H130  H     H_    0.533136 0.605919 0.950721 0.260394
H131  H     H_    0.550541 0.602106 0.872917 0.274540
H132  H     H_    0.559930 0.554124 0.933092 0.259782
H133  H     H_    0.521246 0.855912 0.461919 0.140998
H134  H     H_    0.786565 0.811682 0.857928 0.166610
H135  H     H_    0.587615 0.817734 0.540021 0.100181
H136  H     H_    0.581708 0.863314 0.393880 0.233198
H137  H     H_    0.650753 0.825522 0.472186 0.230622
H138  H     H_    0.560651 0.766603 0.419265 0.261505
H139  H     H_    0.554382 0.789624 0.329464 0.267897
H140  H     H_    0.487745 0.803682 0.343842 0.282674
H141  H     H_    0.340050 0.979522 0.220849 0.147431
H142  H     H_    0.277060 0.017524 0.138878 0.109728
H143  H     H_    0.241097 0.938335 0.204503 0.239988
H144  H     H_    0.175665 0.977728 0.126618 0.233881
O1    O     O_R   0.678330 0.769930 0.856640 -0.617247
O2    O     O_R   0.269970 0.178360 0.039920 -0.616969
O3    O     O_R   0.269970 0.821640 0.039920 -0.622040
O4    O     O_R   0.730030 0.178360 0.960080 -0.616965
O5    O     O_R   0.230030 0.321640 0.960080 -0.622077
O6    O     O_R   0.769970 0.678360 0.039920 -0.616953
O7    O     O_R   0.769970 0.321640 0.039920 -0.622074
O8    O     O_R   0.230030 0.678360 0.960080 -0.616953
O9    O     O_R   0.641350 0.724120 0.948260 -0.617173
O10   O     O_R   0.358650 0.275880 0.051740 -0.617432
O11   O     O_R   0.358650 0.724120 0.051740 -0.617189
O12   O     O_R   0.321670 0.230070 0.143360 -0.619041
O13   O     O_R   0.641350 0.275880 0.948260 -0.617413
O14   O     O_R   0.141350 0.224120 0.948260 -0.617202
O15   O     O_R   0.858650 0.775880 0.051740 -0.617351
O16   O     O_R   0.858650 0.224120 0.051740 -0.617205
O17   O     O_R   0.141350 0.775880 0.948260 -0.617336
O18   O     O_R   0.693050 0.775840 0.051700 -0.612398
O19   O     O_R   0.306950 0.224160 0.948300 -0.612026
O20   O     O_R   0.306950 0.775840 0.948300 -0.612396
O21   O     O_R   0.693050 0.224160 0.051700 -0.612012
O22   O     O_R   0.193050 0.275840 0.051700 -0.612365
O23   O     O_R   0.321670 0.769930 0.143360 -0.617244
O24   O     O_R   0.806950 0.724160 0.948300 -0.612095
O25   O     O_R   0.806950 0.275840 0.948300 -0.612367
O26   O     O_R   0.193050 0.724160 0.051700 -0.612071
O27   O     O_R   0.999060 0.545790 0.591600 -0.648043
O28   O     O_R   0.000940 0.454210 0.408400 -0.628571
O29   O     O_R   0.000940 0.545790 0.408400 -0.648036
O30   O     O_R   0.999060 0.454210 0.591600 -0.628730
O31   O     O_R   0.499060 0.045790 0.591600 -0.648083
O32   O     O_R   0.500940 0.954210 0.408400 -0.628585
O33   O     O_R   0.500940 0.045790 0.408400 -0.648071
O34   O     O_R   0.678330 0.230070 0.856640 -0.619040
O35   O     O_R   0.499060 0.954210 0.591600 -0.628793
O36   O     O_R   0.092510 0.545780 0.591590 -0.575922
O37   O     O_R   0.907490 0.454220 0.408410 -0.544171
O38   O     O_R   0.907490 0.545780 0.408410 -0.575953
O39   O     O_R   0.092510 0.454220 0.591590 -0.544354
O40   O     O_R   0.592510 0.045780 0.591590 -0.575802
O41   O     O_R   0.407490 0.954220 0.408410 -0.544320
O42   O     O_R   0.407490 0.045780 0.408410 -0.575858
O43   O     O_R   0.592510 0.954220 0.591590 -0.544582
O44   O     O_3   0.758436 0.861776 0.616750 -0.624089
O45   O     O_R   0.178330 0.269930 0.856640 -0.617186
O46   O     O_3   0.159508 0.042511 0.200882 -0.624022
O47   O     O_3   0.241095 0.861909 0.382700 -0.624190
O48   O     O_3   0.840508 0.042635 0.798960 -0.624095
O49   O     O_3   0.258947 0.362034 0.617380 -0.623685
O50   O     O_3   0.659550 0.542373 0.200721 -0.623979
O51   O     O_3   0.740701 0.362136 0.382208 -0.623781
O52   O     O_3   0.340461 0.542449 0.799197 -0.624019
O53   O     O_3   0.620668 0.884284 0.549794 -0.601716
O54   O     O_3   0.294268 0.018667 0.260591 -0.600671
O55   O     O_3   0.378920 0.884443 0.449925 -0.601676
O56   O     O_R   0.821670 0.730070 0.143360 -0.619066
O57   O     O_3   0.705792 0.018716 0.739324 -0.600709
O58   O     O_3   0.121069 0.384354 0.550116 -0.601428
O59   O     O_3   0.794353 0.518611 0.260489 -0.600663
O60   O     O_3   0.878626 0.384471 0.449678 -0.601401
O61   O     O_3   0.205680 0.518642 0.739463 -0.600681
O62   O     O_R   0.821670 0.269930 0.143360 -0.617184
O63   O     O_R   0.178330 0.730070 0.856640 -0.619064
O64   O     O_R   0.730030 0.821640 0.960080 -0.622038
Zn1   Zn    Zn3+2 0.715450 0.715450 0.930910 0.959339
Zn2   Zn    Zn3+2 0.062420 0.500000 0.500010 1.046153
Zn3   Zn    Zn3+2 0.437580 0.000000 0.499990 1.046001
Zn4   Zn    Zn3+2 0.562420 1.000000 0.500010 1.046056
Zn5   Zn    Zn3+2 0.284550 0.284550 0.069090 0.954882
Zn6   Zn    Zn3+2 0.284550 0.715450 0.069090 0.959345
Zn7   Zn    Zn3+2 0.715450 0.284550 0.930910 0.954922
Zn8   Zn    Zn3+2 0.215450 0.215450 0.930910 0.959362
Zn9   Zn    Zn3+2 0.784550 0.784550 0.069090 0.954918
Zn10  Zn    Zn3+2 0.784550 0.215450 0.069090 0.959379
Zn11  Zn    Zn3+2 0.215450 0.784550 0.930910 0.954961
Zn12  Zn    Zn3+2 0.937580 0.500000 0.499990 1.046109

loop_
_geom_bond_atom_site_label_1
_geom_bond_atom_site_label_2
_ccdc_geom_bond_type
O17   Zn11  S    
C121  O43   A    
C55   C56   S    
C86   C147  S    
C92   O23   A    
C124  C133  S    
C89   H68   S    
C37   H98   S    
C136  O7    A    
C131  C140  T    
C25   C112  A    
C62   H15   S    
C91   C100  A    
C4    C12   A    
C88   C97   A    
O32   Zn4   S    
C59   C60   S    
C16   O61   S    
C83   C114  S    
C102  C111  A    
C52   O53   S    
C51   H132  S    
C45   C47   S    
O42   Zn3   S    
C75   H44   S    
C150  C159  A    
O40   Zn4   S    
C119  O32   A    
C13   C151  A    
O11   Zn6   S    
C93   C101  A    
C13   C80   A    
C72   H38   S    
C60   H9    S    
C44   H115  S    
C115  O37   A    
C45   H118  S    
C26   O44   S    
C3    O48   S    
C80   C92   S    
C75   C76   S    
C127  O14   A    
C125  O6    A    
O62   Zn10  S    
C56   H143  S    
C9    C167  A    
C90   H79   S    
C155  H52   S    
C46   C84   A    
C160  H56   S    
O23   Zn6   S    
C65   H21   S    
C61   H11   S    
C60   H8    S    
C14   O59   S    
C47   H121  S    
C27   H74   S    
C110  C116  S    
C145  C148  S    
C16   C25   A    
C70   H32   S    
C31   H86   S    
C52   H133  S    
C34   H92   S    
C53   H136  S    
C127  C135  S    
C72   C73   S    
C45   H119  S    
C6    O51   S    
O16   Zn10  S    
C21   C35   A    
C83   C91   A    
C8    C17   A    
O10   Zn5   S    
C74   H43   S    
C58   H3    S    
C152  H24   S    
C91   H90   S    
C76   H47   S    
C77   H49   S    
C150  H2    S    
C130  O17   A    
C124  O20   A    
C32   H87   S    
C159  C167  A    
C49   H127  S    
C5    O50   S    
C160  C168  A    
C55   H141  S    
C69   C70   S    
C3    C11   A    
C86   C95   A    
C94   H112  S    
C30   H82   S    
C81   O2    A    
C93   H101  S    
C126  C134  S    
C62   O57   S    
C10   C168  A    
C33   H89   S    
C156  H53   S    
C28   H76   S    
O6    Zn1   S    
O7    Zn7   S    
C29   H81   S    
C120  O33   A    
C153  H35   S    
C78   C87   A    
C2    C150  A    
C123  C132  S    
C32   O47   S    
C53   C54   S    
C44   H117  S    
C133  C142  T    
C5    C163  A    
C36   C37   S    
C55   H142  S    
C17   C105  A    
C47   H120  S    
C117  O30   A    
O28   Zn2   S    
C87   H1    S    
C80   C89   A    
C30   H83   S    
C43   H113  S    
C78   C158  A    
C47   C48   S    
C57   C85   A    
C95   H123  S    
O56   Zn9   S    
C56   H144  S    
C149  C158  A    
C72   O60   S    
C152  C161  A    
C41   H107  S    
O21   Zn10  S    
C114  O45   A    
C66   C67   S    
C134  C143  T    
C8    O53   S    
C87   C96   A    
C52   H135  S    
C39   H103  S    
O24   Zn1   S    
C71   H36   S    
C139  C148  T    
C74   H41   S    
C101  H69   S    
C36   H95   S    
C54   H139  S    
O4    Zn10  S    
C39   C40   S    
C104  C112  A    
C15   O60   S    
C77   H51   S    
C13   C19   A    
C22   C110  A    
O1    Zn1   S    
C11   C20   A    
C75   H45   S    
C53   H137  S    
C38   H99   S    
C18   C106  A    
C29   C30   S    
C65   O58   S    
C113  O36   A    
C75   O61   S    
C33   H91   S    
C128  O15   A    
C147  O63   A    
C114  O5    A    
C28   H78   S    
C121  O35   A    
O13   Zn7   S    
C64   H20   S    
C124  O11   A    
C69   H30   S    
C29   H80   S    
C129  O16   A    
C67   H28   S    
C90   C99   A    
C52   C53   S    
C113  O27   A    
C161  H58   S    
O14   Zn8   S    
C132  C141  T    
C23   C57   A    
C135  C144  T    
C128  O24   A    
C34   H93   S    
C35   C153  A    
C27   H75   S    
C21   C109  A    
C23   C111  A    
C147  O8    A    
C14   C22   A    
C40   H105  S    
C138  C146  T    
C126  O13   A    
C56   C58   S    
C51   H130  S    
C73   H39   S    
C64   H18   S    
C117  O39   A    
C41   H109  S    
C122  O9    A    
C63   C64   S    
C26   H72   S    
C9    C18   A    
C100  C109  A    
C167  O46   S    
C49   C50   S    
O5    Zn5   S    
C20   C108  A    
C1    O64   A    
C19   C107  A    
C71   H34   S    
C96   C105  A    
C73   C74   S    
C122  C131  S    
C154  H46   S    
C59   H6    S    
C122  O18   A    
C51   H131  S    
C26   H73   S    
C109  C117  S    
C10   O55   S    
C95   C104  A    
C168  O47   S    
C42   O50   S    
O3    Zn11  S    
C26   C27   S    
C137  C145  T    
C140  C142  S    
C141  C143  S    
C55   O54   S    
C30   C31   S    
C42   H110  S    
O20   Zn11  S    
C97   H64   S    
C44   H116  S    
O45   Zn8   S    
O19   Zn8   S    
C96   H63   S    
C9    O54   S    
C39   O49   S    
C2    C79   A    
C24   C152  A    
C63   H17   S    
C70   C71   S    
C67   H26   S    
C4    O49   S    
C7    C165  A    
C92   O3    A    
C61   H10   S    
O35   Zn3   S    
C1    C78   S    
C25   C68   A    
C46   C154  A    
C130  C139  S    
C107  C119  S    
C79   C88   A    
C151  H13   S    
C11   O57   S    
C31   H85   S    
C129  O25   A    
C120  O42   A    
C144  C146  S    
C99   H66   S    
C35   C83   A    
C7    O52   S    
O38   Zn12  S    
C98   C107  A    
C60   C61   S    
C58   H4    S    
C62   C63   S    
C99   C108  A    
C62   H14   S    
C76   H48   S    
C59   O55   S    
C123  O19   A    
C10   C19   A    
C32   H88   S    
C50   C51   S    
C49   H126  S    
C37   H97   S    
C38   H102  S    
C119  O41   A    
C5    C14   A    
C97   C106  A    
O39   Zn2   S    
C7    C16   A    
C22   C46   A    
C6    C164  A    
C165  H62   S    
C4    C162  A    
C58   H5    S    
C42   C43   S    
C103  O34   A    
C118  O40   A    
C163  H60   S    
C66   H25   S    
C84   C125  S    
C63   H16   S    
C72   H37   S    
O33   Zn4   S    
C89   C98   A    
C82   C90   A    
C153  C162  A    
C84   C93   A    
C32   C33   S    
C101  C110  A    
O41   Zn3   S    
O31   Zn3   S    
O30   Zn12  S    
C156  C165  A    
C31   H84   S    
C3    C161  A    
C65   H22   S    
C61   H12   S    
C149  H134  S    
O18   Zn9   S    
C164  H61   S    
C100  H67   S    
O22   Zn5   S    
C149  C157  A    
C48   H125  S    
O43   Zn4   S    
C104  H71   S    
C123  O10   A    
O2    Zn8   S    
C70   H31   S    
C1    O1    A    
C2    C18   A    
C68   C86   A    
C43   C44   S    
C162  H59   S    
C81   O12   A    
C57   C155  A    
C37   C38   S    
C74   H42   S    
C48   H124  S    
C36   H96   S    
C54   H140  S    
C50   H129  S    
C59   H7    S    
C77   H50   S    
C24   C82   A    
O26   Zn6   S    
C38   H100  S    
C6    C15   A    
C69   O59   S    
C129  C138  S    
C20   C24   A    
O63   Zn11  S    
O34   Zn7   S    
O9    Zn1   S    
O37   Zn12  S    
C15   C23   A    
C136  O62   A    
O25   Zn7   S    
C69   H29   S    
C67   H27   S    
C112  C113  S    
C29   O46   S    
C102  H70   S    
C130  O26   A    
C34   H94   S    
C126  O21   A    
O64   Zn9   S    
C108  C118  S    
C154  C163  A    
O29   Zn2   S    
C48   H122  S    
C76   C77   S    
C79   C81   S    
C85   C136  S    
C12   C21   A    
C103  O4    A    
C45   O51   S    
C116  O29   A    
C128  C137  S    
O36   Zn2   S    
O15   Zn9   S    
C43   H114  S    
C85   C94   A    
C88   H57   S    
C40   H106  S    
C82   C103  S    
C66   H23   S    
C118  O31   A    
C33   C34   S    
C105  C121  S    
C17   C158  A    
C41   H108  S    
C8    C166  A    
C115  O28   A    
C40   C41   S    
O8    Zn6   S    
C116  O38   A    
C157  H54   S    
C39   H104  S    
C166  O44   S    
C71   H33   S    
C106  C120  S    
C73   H40   S    
C54   H138  S    
C68   C156  A    
C157  C166  A    
C155  C164  A    
C36   O48   S    
C151  C160  A    
C98   H65   S    
O27   Zn12  S    
C42   H111  S    
C125  O56   A    
C159  H55   S    
C127  O22   A    
C49   O52   S    
C12   O58   S    
C28   H77   S    
C50   H128  S    
C64   H19   S    
C65   C66   S    
C27   C28   S    
C111  C115  S    
O12   Zn5   S    
C94   C102  A    
