data_mof_unit_60296.cif
_audit_creation_date              2012-12-10T22:08:23-0500
_audit_creation_method            fapswitch 2.2
_symmetry_space_group_name_H-M    P1
_symmetry_Int_Tables_number       1
_space_group_crystal_system       triclinic
_cell_length_a                    15.981437
_cell_length_b                    16.135084
_cell_length_c                    29.937355
_cell_angle_alpha                 91.079769
_cell_angle_beta                  90.115049
_cell_angle_gamma                 90.238033
_cell_volume                      7718.24688834

loop_
_atom_site_label
_atom_site_type_symbol
_atom_type_description
_atom_site_fract_x
_atom_site_fract_y
_atom_site_fract_z
_atom_type_partial_charge
C1    C     C_R   0.618518 0.999144 0.559296 0.898508
C2    C     C_R   0.381445 0.000853 0.440713 0.903058
C3    C     C_R   0.925523 0.863453 0.152930 0.535916
C4    C     C_R   0.074745 0.136719 0.846891 0.538150
C5    C     C_R   0.065795 0.881043 0.208296 -0.253337
C6    C     C_R   0.933932 0.118705 0.791965 -0.255654
C7    C     C_R   0.062830 0.818036 0.175977 0.603682
C8    C     C_R   0.937011 0.181671 0.824293 0.602235
C9    C     C_R   0.929173 0.136644 0.213965 -0.103603
C10   C     C_R   0.070765 0.863464 0.785952 -0.103298
C11   C     C_R   0.927109 0.202601 0.184156 -0.035679
C12   C     C_R   0.072997 0.797498 0.815770 -0.035862
C13   C     C_R   0.086587 0.937244 0.307578 -0.200073
C14   C     C_R   0.912636 0.062958 0.692720 -0.201365
C15   C     C_R   0.150072 0.934624 0.339307 -0.129200
C16   C     C_R   0.849133 0.065565 0.661016 -0.129270
C17   C     C_R   0.915521 0.073204 0.315163 -0.024152
C18   C     C_R   0.083021 0.927372 0.684243 -0.024280
C19   C     C_R   0.849765 0.068475 0.345488 -0.195628
C20   C     C_R   0.147429 0.933114 0.653146 -0.196734
C21   C     C_3   0.000796 0.009506 0.248510 0.032941
C22   C     C_3   0.998874 0.990497 0.751507 0.033451
C23   C     C_R   0.617478 0.000575 0.440718 0.894476
C24   C     C_R   0.382546 0.999437 0.559304 0.890575
C25   C     C_R   0.078551 0.005586 0.279012 0.114188
C26   C     C_R   0.920886 0.994488 0.721182 0.115030
C27   C     C_R   0.206333 0.000486 0.343443 0.162678
C28   C     C_R   0.793052 0.999582 0.656810 0.163017
C29   C     C_R   0.926114 0.009140 0.281890 0.006610
C30   C     C_R   0.073214 0.990939 0.717893 0.007326
C31   C     C_R   0.794681 0.001556 0.344814 0.048720
C32   C     C_R   0.201737 0.000632 0.653324 0.047143
C33   C     C_R   0.000471 0.085689 0.218105 -0.020171
C34   C     C_R   0.999405 0.914337 0.781899 -0.019779
C35   C     C_R   0.997012 0.215084 0.156344 -0.031105
C36   C     C_R   0.003175 0.784938 0.843645 -0.031386
C37   C     C_R   0.997622 0.935747 0.214555 -0.193290
C38   C     C_R   0.002236 0.064244 0.785467 -0.197650
C39   C     C_R   0.992662 0.809118 0.148501 -0.264387
C40   C     C_R   0.007436 0.190805 0.851553 -0.267080
C41   C     C_1   0.731958 0.000319 0.378624 0.038050
C42   C     C_1   0.266042 0.000622 0.620346 0.042693
C43   C     C_1   0.679827 0.000208 0.407190 -0.108298
C44   C     C_1   0.319325 0.999991 0.592379 -0.105880
C45   C     C_R   0.137023 0.071302 0.283728 -0.050308
C46   C     C_R   0.862490 0.928712 0.716457 -0.050599
C47   C     C_1   0.267892 0.000397 0.377822 -0.043291
C48   C     C_1   0.731672 0.999596 0.622358 -0.044800
C49   C     C_1   0.319466 0.000774 0.406801 -0.144424
C50   C     C_1   0.680291 0.999213 0.593294 -0.146702
C51   C     C_1   0.998097 0.276895 0.122958 0.078112
C52   C     C_1   0.002106 0.723063 0.877005 0.078471
C53   C     C_1   0.999149 0.327951 0.094567 -0.094126
C54   C     C_1   0.000944 0.672005 0.905398 -0.094630
C55   C     C_1   0.990458 0.744704 0.115264 0.207184
C56   C     C_1   0.009681 0.255203 0.884796 0.207411
C57   C     C_1   0.990518 0.689992 0.087742 -0.106254
C58   C     C_1   0.009549 0.309944 0.912300 -0.106276
C59   C     C_R   0.993504 0.624022 0.055814 0.874372
C60   C     C_R   0.006505 0.375961 0.944197 0.874031
C61   C     C_R   0.999432 0.388369 0.060906 0.885690
C62   C     C_R   0.000581 0.611614 0.939080 0.885410
C63   C     C_R   0.200527 0.068250 0.315476 -0.146381
C64   C     C_R   0.798962 0.931750 0.684725 -0.147493
C65   C     C_R   0.872017 0.939391 0.283971 -0.135402
C66   C     C_R   0.126968 0.060921 0.715614 -0.131535
C67   C     C_R   0.805236 0.935552 0.314064 -0.037914
C68   C     C_R   0.191771 0.066201 0.684402 -0.037806
C69   C     C_R   0.067610 0.098264 0.188240 0.601520
C70   C     C_R   0.932391 0.901713 0.811837 0.601305
C71   C     C_R   0.066043 0.162891 0.158430 -0.238335
C72   C     C_R   0.934108 0.837083 0.841631 -0.238890
C73   C     C_R   0.928040 0.926697 0.185180 0.521071
C74   C     C_R   0.072109 0.073495 0.814621 0.527746
H1    H     H_    0.243480 0.120093 0.319187 0.149738
H2    H     H_    0.756119 0.879830 0.680959 0.149136
H3    H     H_    0.882095 0.885552 0.262863 0.176166
H4    H     H_    0.116850 0.114808 0.736698 0.170428
H5    H     H_    0.123144 0.887422 0.227169 0.237273
H6    H     H_    0.876382 0.112148 0.773283 0.238314
H7    H     H_    0.874140 0.125244 0.233842 0.219937
H8    H     H_    0.125634 0.874894 0.765942 0.219908
H9    H     H_    0.042265 0.886335 0.305710 0.157672
H10   H     H_    0.956868 0.113941 0.694610 0.153896
H11   H     H_    0.118640 0.171216 0.136105 0.192881
H12   H     H_    0.881579 0.828706 0.863997 0.192887
H13   H     H_    0.154152 0.882097 0.361223 0.150915
H14   H     H_    0.844950 0.118150 0.639144 0.150495
H15   H     H_    0.842433 0.117073 0.370766 0.165497
H16   H     H_    0.154655 0.884520 0.627856 0.165789
H17   H     H_    0.131950 0.127613 0.265079 0.158854
H18   H     H_    0.867693 0.872352 0.735055 0.159053
O1    O     O_R   0.591150 0.068800 0.545430 -0.611776
O2    O     O_R   0.408850 0.931200 0.454570 -0.610671
O3    O     O_R   0.588750 0.931200 0.454570 -0.600756
O4    O     O_R   0.411250 0.068800 0.545430 -0.593898
O5    O     O_R   0.590220 0.070350 0.455860 -0.617242
O6    O     O_R   0.409780 0.929650 0.544140 -0.619660
O7    O     O_R   0.589680 0.929650 0.544140 -0.612417
O8    O     O_R   0.410320 0.070350 0.455860 -0.610904
O9    O     O_R   0.065580 0.596830 0.043410 -0.597461
O10   O     O_R   0.934420 0.403170 0.956590 -0.597403
O11   O     O_R   0.928990 0.412290 0.044840 -0.595500
O12   O     O_R   0.071010 0.587710 0.955160 -0.595425
O13   O     O_R   0.069930 0.417270 0.047240 -0.611691
O14   O     O_R   0.930070 0.582730 0.952760 -0.611769
O15   O     O_R   0.924640 0.591850 0.041010 -0.599915
O16   O     O_R   0.075360 0.408150 0.958990 -0.599821
Zn1   Zn    Zn3+2 0.500990 0.093570 0.500870 1.018382
Zn2   Zn    Zn3+2 0.499010 0.906430 0.499130 1.013954
Zn3   Zn    Zn3+2 0.094790 0.503330 0.001610 1.061555
Zn4   Zn    Zn3+2 0.905210 0.496670 0.998390 1.061310
F1    F     F_    0.134832 0.047086 0.187441 -0.657370
F2    F     F_    0.865118 0.952822 0.812712 -0.657460
F3    F     F_    0.861415 0.978360 0.188209 -0.612098
F4    F     F_    0.138856 0.022028 0.811368 -0.607760
C75   C     C_2   0.975312 0.142109 0.323327 0.880409
O17   O     O_2   0.980345 0.199578 0.297506 -0.638640
O18   O     O_R   0.022578 0.143336 0.362671 -0.786338
H19   H     H_    0.060726 0.193573 0.365187 0.350828
C76   C     C_2   0.023681 0.857897 0.676502 0.880497
O19   O     O_2   0.018995 0.800954 0.702669 -0.640394
O20   O     O_R   0.976412 0.855532 0.637158 -0.786365
H20   H     H_    0.938582 0.805020 0.634953 0.350439
C77   C     C_2   0.749013 0.861325 0.312864 0.944355
O21   O     O_2   0.772701 0.796626 0.295159 -0.606222
O22   O     O_R   0.668525 0.865216 0.331007 -0.787556
H21   H     H_    0.636922 0.810802 0.327815 0.360040
C78   C     C_2   0.246186 0.141721 0.684803 0.927802
O23   O     O_2   0.250750 0.185592 0.718516 -0.582021
O24   O     O_R   0.291231 0.163916 0.646827 -0.796638
H22   H     H_    0.325321 0.216479 0.651626 0.358596
F5    F     F_    0.857591 0.855507 0.125822 -0.578515
F6    F     F_    0.142938 0.144880 0.873793 -0.575869
F7    F     F_    0.129263 0.766467 0.171031 -0.613551
F8    F     F_    0.870430 0.232985 0.829464 -0.613684
C79   C     C_2   0.851074 0.255979 0.182684 0.971141
O25   O     O_2   0.784999 0.231103 0.198195 -0.582749
O26   O     O_R   0.854666 0.335120 0.164514 -0.792993
H23   H     H_    0.798899 0.364799 0.165772 0.361531
C80   C     C_2   0.149083 0.744182 0.817167 0.970595
O27   O     O_2   0.214990 0.768968 0.801417 -0.583895
O28   O     O_R   0.145738 0.665207 0.835549 -0.793556
H24   H     H_    0.201517 0.635560 0.834213 0.361268

loop_
_geom_bond_atom_site_label_1
_geom_bond_atom_site_label_2
_ccdc_geom_bond_type
C16   C28   A    
C66   C68   A    
O6    Zn2   S    
C5    C37   A    
C8    F8    S    
C17   C29   A    
O15   Zn4   S    
O10   Zn4   S    
C14   H10   S    
C19   C31   A    
C1    O7    A    
O20   H20   S    
C47   C49   T    
O14   Zn4   S    
C70   F2    S    
C31   C67   A    
C79   O26   S    
C69   F1    S    
C63   H1    S    
C24   O6    A    
C4    F6    S    
C61   O11   A    
C67   C77   S    
C20   C32   A    
C60   O10   A    
C57   C59   S    
C21   C33   S    
C58   C60   S    
O28   H24   S    
C22   C38   S    
C23   C43   S    
C12   C80   S    
C69   C71   A    
C37   C73   A    
C71   H11   S    
C3    C73   A    
C15   C27   A    
C39   C55   S    
C4    C40   A    
C23   O3    A    
C65   C67   A    
C6    C38   A    
C18   C30   A    
C12   C36   A    
C61   O13   A    
C1    C50   S    
C34   C70   A    
C4    C74   A    
C36   C52   S    
C17   C75   S    
C32   C68   A    
C48   C50   T    
O13   Zn3   S    
C79   O25   D    
C2    O8    A    
O8    Zn1   S    
C45   C63   A    
C9    C33   A    
C41   C43   T    
C13   C25   A    
C42   C44   T    
C22   C34   S    
C52   C54   T    
C62   O12   A    
C66   H4    S    
C16   H14   S    
C65   H3    S    
C59   O9    A    
C2    O2    A    
C5    C7    A    
C6    C8    A    
C54   C62   S    
C40   C56   S    
O7    Zn2   S    
C20   H16   S    
O2    Zn2   S    
C59   O15   A    
C46   C64   A    
O11   Zn4   S    
C3    F5    S    
C80   O28   S    
C7    F7    S    
C19   H15   S    
C2    C49   S    
O5    Zn1   S    
C6    H6    S    
C13   C15   A    
O18   H19   S    
C74   F4    S    
C24   O4    A    
C64   H2    S    
C21   C37   S    
C10   C34   A    
C14   C26   A    
C9    C11   A    
C76   O19   D    
C30   C66   A    
C10   C12   A    
C29   C65   A    
C28   C64   A    
C23   O5    A    
C55   C57   T    
C35   C51   S    
C77   O21   D    
C24   C44   S    
C14   C16   A    
C5    H5    S    
C53   C61   S    
O24   H22   S    
C25   C45   A    
C15   H13   S    
C78   O23   D    
C38   C74   A    
C27   C47   S    
C21   C25   S    
C28   C48   S    
C32   C42   S    
C31   C41   S    
O3    Zn2   S    
C60   O16   A    
O12   Zn3   S    
C10   H8    S    
O26   H23   S    
O22   H21   S    
C62   O14   A    
C33   C69   A    
C72   H12   S    
O9    Zn3   S    
O4    Zn1   S    
C13   H9    S    
C73   F3    S    
O16   Zn3   S    
C75   O18   S    
C11   C79   S    
C22   C30   S    
C80   O27   D    
C21   C29   S    
C11   C35   A    
C17   C19   A    
C56   C58   T    
C18   C20   A    
C68   C78   S    
C45   H17   S    
C76   O20   S    
C26   C46   A    
C18   C76   S    
C35   C71   A    
C46   H18   S    
C1    O1    A    
C22   C26   S    
O1    Zn1   S    
C77   O22   S    
C7    C39   A    
C27   C63   A    
C70   C72   A    
C8    C40   A    
C51   C53   T    
C75   O17   D    
C3    C39   A    
C36   C72   A    
C9    H7    S    
C78   O24   S    
