data_mof_unit_32545.cif
_audit_creation_date              2012-12-10T17:40:27-0500
_audit_creation_method            fapswitch 2.2
_symmetry_space_group_name_H-M    P1
_symmetry_Int_Tables_number       1
_space_group_crystal_system       triclinic
_cell_length_a                    13.697113
_cell_length_b                    15.082773
_cell_length_c                    15.871615
_cell_angle_alpha                 89.936185
_cell_angle_beta                  70.155379
_cell_angle_gamma                 89.867319
_cell_volume                      3084.20217306

loop_
_atom_site_label
_atom_site_type_symbol
_atom_type_description
_atom_site_fract_x
_atom_site_fract_y
_atom_site_fract_z
_atom_type_partial_charge
C1    C     C_R   0.499973 0.671534 0.499831 0.822215
C2    C     C_R   0.500026 0.328467 0.500172 0.822033
C3    C     C_R   0.373681 0.474937 0.094940 -0.222469
C4    C     C_R   0.625304 0.468866 0.905659 -0.221082
C5    C     C_R   0.302498 0.474452 0.050230 -0.230699
C6    C     C_R   0.696477 0.467440 0.950374 -0.229889
C7    C     C_R   0.409687 0.185473 0.504578 -0.241903
C8    C     C_R   0.590313 0.814534 0.495404 -0.242132
C9    C     C_R   0.500045 0.231619 0.500376 -0.074669
C10   C     C_R   0.499948 0.768386 0.499634 -0.075432
C11   C     C_R   0.590347 0.185047 0.496250 -0.247331
C12   C     C_R   0.409635 0.814959 0.503794 -0.247528
C13   C     C_R   0.590997 0.092661 0.495970 0.108380
C14   C     C_R   0.408987 0.907346 0.504064 0.108365
C15   C     C_R   0.499988 0.046474 0.500150 0.063297
C16   C     C_R   0.500000 0.953534 0.499872 0.063312
C17   C     C_R   0.408974 0.093131 0.504585 0.108675
C18   C     C_R   0.591021 0.906877 0.495415 0.108717
C19   C     C_R   0.681090 0.045729 0.491466 -0.210760
C20   C     C_R   0.318899 0.954277 0.508558 -0.210721
C21   C     C_R   0.681121 0.953289 0.491143 -0.214325
C22   C     C_R   0.318875 0.046717 0.508852 -0.214290
C23   C     C_R   0.437266 0.499240 0.672284 0.806271
C24   C     C_R   0.562741 0.499485 0.327707 0.805464
C25   C     C_R   0.228507 0.555721 0.444021 0.023332
C26   C     C_R   0.771453 0.444335 0.556053 0.023188
C27   C     C_R   0.185107 0.444127 0.556067 0.010326
C28   C     C_R   0.814870 0.555935 0.444013 0.010268
C29   C     C_R   0.081336 0.441577 0.557069 -0.022626
C30   C     C_R   0.918601 0.558542 0.443094 -0.023203
C31   C     C_R   0.051792 0.499663 0.500058 0.028959
C32   C     C_R   0.948150 0.500429 0.500081 0.029290
C33   C     C_R   0.126027 0.557043 0.442918 -0.024127
C34   C     C_R   0.873905 0.443067 0.557233 -0.023038
C35   C     C_R   0.006410 0.383424 0.613677 0.260462
C36   C     C_R   0.993465 0.616824 0.386628 0.259953
C37   C     C_R   0.903378 0.385467 0.613906 -0.283192
C38   C     C_R   0.096500 0.614764 0.386378 -0.281527
C39   C     C_R   0.400394 0.494214 0.770484 -0.055462
C40   C     C_R   0.599585 0.494259 0.229514 -0.054984
C41   C     C_R   0.262483 0.482118 0.913507 -0.195947
C42   C     C_R   0.736911 0.476834 0.086800 -0.196293
C43   C     C_R   0.294542 0.488614 0.820540 -0.189460
C44   C     C_R   0.705161 0.485289 0.179596 -0.189703
C45   C     C_R   0.473568 0.492495 0.814164 -0.252565
C46   C     C_R   0.526450 0.494907 0.185793 -0.249433
C47   C     C_R   0.443594 0.482503 0.907465 0.088975
C48   C     C_R   0.555918 0.482756 0.092780 0.089094
C49   C     C_R   0.335938 0.479637 0.957277 0.165986
C50   C     C_R   0.663360 0.475715 0.043099 0.166124
C51   C     C_R   0.517415 0.477420 0.952558 0.067394
C52   C     C_R   0.481881 0.479052 0.047840 0.066390
Cu1   Cu    Cu3+1 0.402580 0.500010 0.499990 0.937723
Cu2   Cu    Cu3+1 0.597420 0.499990 0.500010 0.937600
H1    H     H_    0.220405 0.470972 0.088949 0.143014
H2    H     H_    0.778325 0.460538 0.911825 0.141427
H3    H     H_    0.286387 0.599480 0.400396 0.125358
H4    H     H_    0.713557 0.400596 0.599696 0.125285
H5    H     H_    0.209870 0.401598 0.599948 0.163080
H6    H     H_    0.790112 0.598486 0.400145 0.163938
H7    H     H_    0.846584 0.340875 0.657717 0.137069
H8    H     H_    0.153248 0.659460 0.342676 0.138422
H9    H     H_    0.446724 0.506650 0.225890 0.149445
H10   H     H_    0.553779 0.501134 0.773869 0.152930
H11   H     H_    0.763018 0.484648 0.212151 0.156737
H12   H     H_    0.236671 0.489570 0.788002 0.156842
H13   H     H_    0.180141 0.478986 0.951284 0.131940
H14   H     H_    0.819056 0.470699 0.049139 0.131812
H15   H     H_    0.340950 0.469231 0.166720 0.145097
H16   H     H_    0.657609 0.460263 0.834144 0.140309
H17   H     H_    0.339809 0.221298 0.507849 0.151534
H18   H     H_    0.660197 0.778706 0.492101 0.151675
H19   H     H_    0.660297 0.220547 0.492983 0.155411
H20   H     H_    0.339680 0.779456 0.507086 0.155612
H21   H     H_    0.751436 0.080509 0.488173 0.142537
H22   H     H_    0.248552 0.919496 0.511854 0.142662
H23   H     H_    0.751493 0.918104 0.487593 0.143539
H24   H     H_    0.248509 0.081901 0.512382 0.143446
N1    N     N_R   0.256170 0.500070 0.500040 -0.192219
N2    N     N_R   0.743830 0.499930 0.499960 -0.192350
O1    O     O_R   0.417730 0.629750 0.499970 -0.588749
O2    O     O_R   0.582270 0.370250 0.500030 -0.589164
O3    O     O_R   0.582270 0.629730 0.499980 -0.588814
O4    O     O_R   0.417730 0.370270 0.500020 -0.589179
O5    O     O_R   0.371590 0.500020 0.629830 -0.586341
O6    O     O_R   0.628410 0.499980 0.370170 -0.586578
O7    O     O_R   0.536130 0.499990 0.629840 -0.588950
O8    O     O_R   0.463870 0.500010 0.370160 -0.588877
N3    N     N_2   0.033807 0.322664 0.670652 -0.445233
H25   H     H_    0.974859 0.311310 0.730572 0.252353
C53   C     C_3   0.079001 0.240820 0.627034 -0.724336
H26   H     H_    0.020650 0.202658 0.607572 0.228663
H27   H     H_    0.105065 0.200034 0.673729 0.233791
H28   H     H_    0.147337 0.254383 0.566390 0.225778
N4    N     N_2   0.965979 0.677789 0.329877 -0.444132
H29   H     H_    0.024909 0.689372 0.270004 0.254062
C54   C     C_3   0.920656 0.759470 0.373804 -0.724119
H30   H     H_    0.978940 0.797557 0.393427 0.228542
H31   H     H_    0.852334 0.745677 0.434387 0.225876
H32   H     H_    0.894548 0.800435 0.327258 0.233850

loop_
_geom_bond_atom_site_label_1
_geom_bond_atom_site_label_2
_ccdc_geom_bond_type
C12   H20   S    
C27   C29   A    
C18   C21   A    
C2    O4    A    
N4    H29   S    
C4    H16   S    
C54   H30   S    
C19   H21   S    
C41   H13   S    
Cu1   Cu2   S    
C40   C46   A    
C25   H3    S    
Cu1   O4    S    
C19   C21   A    
C27   N1    A    
C7    H17   S    
Cu2   O7    S    
C1    O1    A    
C15   C16   A    
C34   C37   A    
C20   H22   S    
Cu1   O1    S    
C26   C34   A    
C7    C17   A    
C31   C33   A    
N3    C53   S    
C39   C45   A    
C3    H15   S    
C48   C50   A    
C23   O7    A    
C42   H14   S    
C41   C43   A    
C5    C49   A    
C44   H11   S    
C42   C44   A    
C41   C49   A    
Cu2   O3    S    
C54   H31   S    
Cu2   N2    S    
C45   C47   A    
C39   C43   A    
C46   C48   A    
C8    H18   S    
C13   C19   A    
C4    C51   A    
C51   C52   A    
C14   C20   A    
C22   H24   S    
C4    C6    A    
C11   H19   S    
C6    H2    S    
C53   H26   S    
Cu2   O6    S    
C47   C51   A    
C8    C18   A    
C32   C34   A    
C53   H27   S    
C9    C11   A    
C31   C32   A    
C40   C44   A    
C24   O8    A    
C6    C50   A    
C26   H4    S    
C28   H6    S    
C10   C12   A    
C42   C50   A    
C35   N3    S    
C16   C18   A    
C20   C22   A    
C13   C15   A    
C14   C16   A    
C2    O2    A    
Cu2   O2    S    
C54   H32   S    
C15   C17   A    
C35   C37   A    
C25   N1    A    
C5    H1    S    
C1    C10   S    
C33   C38   A    
C12   C14   A    
C3    C5    A    
C37   H7    S    
C3    C52   A    
N4    C54   S    
C1    O3    A    
C29   C35   A    
C45   H10   S    
C17   C22   A    
C30   C36   A    
C46   H9    S    
Cu1   N1    S    
C36   C38   A    
C29   C31   A    
C27   H5    S    
C47   C49   A    
C53   H28   S    
C30   C32   A    
C11   C13   A    
C36   N4    S    
C43   H12   S    
C23   C39   S    
C28   C30   A    
C24   C40   S    
Cu1   O8    S    
C28   N2    A    
C26   N2    A    
C7    C9    A    
C48   C52   A    
C8    C10   A    
C23   O5    A    
C21   H23   S    
Cu1   O5    S    
N3    H25   S    
C2    C9    S    
C24   O6    A    
C25   C33   A    
C38   H8    S    
