data_mof_unit_8752.cif
_audit_creation_date              2012-12-11T19:47:12-0500
_audit_creation_method            fapswitch 2.2
_symmetry_space_group_name_H-M    P1
_symmetry_Int_Tables_number       1
_space_group_crystal_system       triclinic
_cell_length_a                    8.449962
_cell_length_b                    15.29624
_cell_length_c                    18.842087
_cell_angle_alpha                 101.765171
_cell_angle_beta                  91.618375
_cell_angle_gamma                 99.497026
_cell_volume                      2346.71323999

loop_
_atom_site_label
_atom_site_type_symbol
_atom_type_description
_atom_site_fract_x
_atom_site_fract_y
_atom_site_fract_z
_atom_type_partial_charge
Ba1   Ba    Ba6+2 0.853520 0.540910 0.466490 1.787153
Ba2   Ba    Ba6+2 0.336320 0.459170 0.533520 1.810791
C1    C     C_3   0.685858 0.838785 0.253824 -0.176044
C2    C     C_R   0.885756 0.434090 0.098048 0.397967
C3    C     C_R   0.797545 0.392082 0.937190 -0.050209
C4    C     C_3   0.106715 0.701890 0.270234 0.300047
C5    C     C_R   0.938680 0.452009 0.971031 -0.021232
C6    C     C_R   0.729981 0.404417 0.872330 -0.170399
C7    C     C_R   0.818336 0.456647 0.829155 -0.022596
C8    C     C_R   0.975246 0.502741 0.855174 0.055889
C9    C     C_R   0.034034 0.502547 0.927280 0.013628
C10   C     C_R   0.760526 0.455861 0.757685 0.074916
C11   C     C_R   0.866570 0.492393 0.710656 -0.161351
C12   C     C_3   0.640292 0.757633 0.289181 0.254812
C13   C     C_R   0.023469 0.537821 0.734334 0.020751
C14   C     C_R   0.074918 0.546826 0.808695 -0.053454
C15   C     C_R   0.152028 0.499326 0.069752 0.007726
C16   C     C_3   0.071865 0.712681 0.192568 -0.169121
C17   C     C_R   0.210904 0.497039 0.141517 0.006119
C18   C     C_R   0.107100 0.458172 0.189582 -0.115755
C19   C     C_R   0.948258 0.423866 0.164270 0.011280
C20   C     C_R   0.224307 0.596880 0.837784 -0.038165
C21   C     C_R   0.280931 0.598571 0.908353 -0.055040
C22   C     C_R   0.191070 0.548675 0.953618 -0.007845
C23   C     C_3   0.416044 0.279682 0.307213 0.314089
C24   C     C_R   0.253611 0.542392 0.023505 0.046244
C25   C     C_R   0.415111 0.577280 0.048825 -0.046633
C26   C     C_R   0.372850 0.534477 0.165417 -0.009372
C27   C     C_R   0.472789 0.573308 0.117856 -0.015039
C28   C     C_3   0.253874 0.758868 0.644098 0.735074
C29   C     C_R   0.431352 0.527914 0.234929 0.030770
C30   C     C_R   0.331780 0.478470 0.275990 -0.111174
C31   C     C_R   0.165941 0.455147 0.261059 0.065225
C32   C     C_R   0.847180 0.174961 0.553294 0.057098
C33   C     C_R   0.780297 0.081505 0.544664 -0.035076
C34   C     C_3   0.328203 0.217389 0.238893 0.177099
C35   C     C_R   0.648150 0.891892 0.526967 -0.001769
C36   C     C_R   0.793727 0.932987 0.569793 0.407139
C37   C     C_R   0.861783 0.023378 0.572620 -0.104492
C38   C     C_R   0.585107 0.796012 0.514438 0.000106
C39   C     C_R   0.433778 0.764977 0.475663 -0.290218
C40   C     C_3   0.269479 0.860437 0.679151 0.114545
C41   C     C_R   0.610548 0.197263 0.486615 -0.006405
C42   C     C_R   0.544273 0.104708 0.478889 -0.013686
C43   C     C_R   0.627105 0.045881 0.508185 0.064661
C44   C     C_R   0.397885 0.069948 0.440468 -0.075895
C45   C     C_3   0.067738 0.192188 0.717339 0.277590
C46   C     C_R   0.326784 0.980125 0.430802 -0.072960
C47   C     C_R   0.406322 0.916901 0.458499 -0.020938
C48   C     C_R   0.560446 0.950923 0.497597 0.060468
C49   C     C_R   0.341524 0.822801 0.448962 -0.099752
C50   C     C_R   0.758834 0.231597 0.525198 -0.241191
C51   C     C_3   0.864455 0.243976 0.311706 0.218567
C52   C     C_3   0.779191 0.233351 0.236449 -0.299009
C53   C     C_3   0.715941 0.752266 0.721376 0.128861
C54   C     C_3   0.713970 0.836057 0.785107 -0.252977
C55   C     C_2   0.883082 0.152359 0.325967 0.887718
C56   C     C_3   0.110452 0.118684 0.755160 -0.358104
C57   C     C_2   0.884228 0.742648 0.715747 0.773255
C58   C     C_2   0.632472 0.662331 0.735058 0.789018
C59   C     C_2   0.555183 0.859628 0.807172 0.844516
C60   C     C_2   0.625531 0.920450 0.293345 0.887666
C61   C     C_2   0.202034 0.777602 0.168850 0.926583
C62   C     C_2   0.097918 0.283237 0.769024 0.901281
C63   C     C_2   0.731740 0.306666 0.960468 0.936275
C64   C     C_2   0.173133 0.962286 0.387155 0.928437
C65   C     C_2   0.367064 0.669322 0.465956 0.851319
C66   C     C_3   0.569103 0.232103 0.691633 0.619700
C67   C     C_3   0.514291 0.135297 0.701613 -0.299356
C68   C     C_R   0.990486 0.460666 0.045570 -0.045573
H1    H     H_    0.690495 0.775241 0.346565 0.072771
H2    H     H_    0.776596 0.828603 0.835597 0.063294
H3    H     H_    0.507074 0.739895 0.287410 -0.012060
H4    H     H_    0.325058 0.310341 0.340345 0.061406
H5    H     H_    0.502017 0.334557 0.291786 0.011248
H6    H     H_    0.235779 0.165463 0.255017 0.097401
H7    H     H_    0.414504 0.182280 0.205522 0.074846
H8    H     H_    0.636541 0.821071 0.196482 0.133188
H9    H     H_    0.939002 0.171018 0.699641 -0.020438
H10   H     H_    0.232420 0.139225 0.782975 0.172413
H11   H     H_    0.022126 0.105899 0.796060 0.118950
H12   H     H_    0.296536 0.874078 0.738143 0.128339
H13   H     H_    0.108567 0.054503 0.715104 0.094918
H14   H     H_    0.544173 0.231501 0.633442 0.040649
H15   H     H_    0.596412 0.090718 0.675123 0.087317
H16   H     H_    0.391927 0.108057 0.675786 0.145748
H17   H     H_    0.020952 0.642409 0.278934 0.086940
H18   H     H_    0.515541 0.133457 0.760242 0.141371
H19   H     H_    0.824993 0.486931 0.654839 0.075193
H20   H     H_    0.614719 0.364119 0.852325 0.146055
H21   H     H_    0.865947 0.393722 0.197374 0.123778
H22   H     H_    0.299808 0.635281 0.806042 0.175212
H23   H     H_    0.152709 0.882367 0.673508 0.127395
H24   H     H_    0.598893 0.598504 0.132077 0.104610
H25   H     H_    0.385704 0.458660 0.320921 -0.016045
H26   H     H_    0.396452 0.640291 0.926044 0.110687
H27   H     H_    0.231074 0.688589 0.276910 -0.046868
H28   H     H_    0.502327 0.606032 0.015561 0.059406
H29   H     H_    0.979379 0.047927 0.599644 0.083042
H30   H     H_    0.334353 0.112851 0.415793 0.126547
H31   H     H_    0.811092 0.302040 0.528897 0.043690
H32   H     H_    0.058498 0.646053 0.154614 -0.023902
H33   H     H_    0.956266 0.737125 0.188633 0.119699
H34   H     H_    0.795634 0.277248 0.355172 -0.013470
H35   H     H_    0.370288 0.744858 0.624757 -0.009558
H36   H     H_    0.489946 0.910261 0.666490 0.318073
H37   H     H_    0.984771 0.208406 0.424852 0.260738
H38   H     H_    0.049187 0.742458 0.794625 0.284093
H39   H     H_    0.650303 0.696529 0.846150 0.273785
H40   H     H_    0.341476 0.821942 0.847084 0.318947
H41   H     H_    0.487659 0.015245 0.289525 0.327201
H42   H     H_    0.193714 0.223736 0.156350 0.326081
H43   H     H_    0.265004 0.896345 0.137598 0.342289
H44   H     H_    0.177587 0.357441 0.868707 0.319070
H45   H     H_    0.716763 0.290867 0.235479 0.089957
H46   H     H_    0.751701 0.257032 0.761482 0.281910
H47   H     H_    0.538211 0.211539 0.965118 0.332393
H48   H     H_    0.694315 0.464086 0.057500 0.283040
H49   H     H_    0.927130 0.930426 0.654145 0.268947
H50   H     H_    0.066320 0.951963 0.288101 0.352822
H51   H     H_    0.366831 0.549008 0.412191 0.310445
H52   H     H_    0.163749 0.783242 0.556808 0.282915
H53   H     H_    0.684034 0.172105 0.223682 0.119896
H54   H     H_    0.866278 0.228100 0.193334 0.135832
H55   H     H_    0.818580 0.855415 0.253370 0.099580
H56   H     H_    0.785603 0.896682 0.769813 0.118805
O1    O     O_2   0.871960 0.437280 0.322960 -0.491931
O2    O     O_2   0.156699 0.183323 0.522414 -0.445034
O3    O     O_3   0.163800 0.196491 0.657946 -0.602749
O4    O     O_3   0.121410 0.444460 0.412450 -0.473493
O5    O     O_3   0.580430 0.613240 0.540320 -0.449253
O6    O     O_2   0.337390 0.273050 0.457610 -0.456487
O7    O     O_3   0.502630 0.229008 0.343310 -0.704549
O8    O     O_2   0.423694 0.457676 0.754480 -0.408580
O9    O     O_3   0.483946 0.292469 0.735239 -0.597445
O10   O     O_3   0.661450 0.607570 0.372550 -0.457925
O11   O     O_2   0.756387 0.527332 0.248096 -0.480576
O12   O     O_3   0.651397 0.770666 0.656358 -0.658076
O13   O     O_3   0.021101 0.292281 0.315360 -0.653641
O14   O     O_3   0.707440 0.686283 0.249879 -0.617316
O15   O     O_2   0.852310 0.726980 0.542430 -0.342014
O16   O     O_3   0.084010 0.657370 0.410280 -0.452645
O17   O     O_2   0.001821 0.813791 0.453639 -0.434931
O18   O     O_3   0.382663 0.913306 0.645409 -0.787567
O19   O     O_2   0.850965 0.083780 0.278235 -0.579962
O20   O     O_R   0.949902 0.146217 0.392654 -0.688113
O21   O     O_2   0.913344 0.686192 0.665718 -0.577327
O22   O     O_R   0.001344 0.786944 0.771198 -0.791579
O23   O     O_3   0.083291 0.780405 0.319367 -0.596631
O24   O     O_2   0.611834 0.597599 0.683984 -0.549976
O25   O     O_R   0.602112 0.645923 0.804270 -0.758653
O26   O     O_2   0.535314 0.938305 0.814190 -0.608107
O27   O     O_R   0.437967 0.795559 0.827608 -0.775729
O28   O     O_2   0.682105 0.957398 0.354461 -0.583862
O29   O     O_R   0.511467 0.956862 0.258849 -0.708025
O30   O     O_3   0.254673 0.268071 0.197942 -0.746784
O31   O     O_2   0.336298 0.758741 0.161380 -0.644386
O32   O     O_R   0.167906 0.858380 0.153499 -0.718658
O33   O     O_2   0.077808 0.350176 0.746619 -0.618546
O34   O     O_2   0.317750 0.562750 0.677090 -0.411915
O35   O     O_R   0.152630 0.292056 0.841373 -0.742646
O36   O     O_3   0.734497 0.257603 0.709249 -0.819910
O37   O     O_2   0.821503 0.266663 0.988729 -0.585264
O38   O     O_R   0.567913 0.270197 0.947617 -0.729476
O39   O     O_3   0.720652 0.424163 0.089751 -0.718467
O40   O     O_3   0.869884 0.886767 0.611452 -0.704375
O41   O     O_2   0.048789 0.971357 0.417242 -0.526112
O42   O     O_R   0.175713 0.952939 0.311906 -0.720238
O43   O     O_2   0.299405 0.639189 0.514085 -0.558219
O44   O     O_R   0.378710 0.611485 0.401570 -0.799076
O45   O     O_3   0.068300 0.555620 0.587560 -0.393600
O46   O     O_3   0.136501 0.738023 0.587129 -0.627434
O47   O     O_3   0.528270 0.392500 0.627460 -0.457617
O48   O     O_3   0.210850 0.708076 0.696895 -0.630800
O49   O     O_3   0.609290 0.386840 0.459690 -0.481657
O50   O     O_3   0.105700 0.342700 0.589730 -0.450381
P1    P     P_3+3 0.039430 0.410940 0.333230 0.988155
P2    P     P_3+3 0.676770 0.715000 0.563590 1.168391
P3    P     P_3+3 0.130530 0.771113 0.408449 1.001470
P4    P     P_3+3 0.150290 0.589140 0.666780 1.152532
P5    P     P_3+3 0.061436 0.224693 0.585215 1.032626
P6    P     P_3+3 0.633115 0.586194 0.277526 0.985542
P7    P     P_3+3 0.517651 0.271827 0.437397 0.921054
P8    P     P_3+3 0.550588 0.402148 0.720733 1.093814

loop_
_geom_bond_atom_site_label_1
_geom_bond_atom_site_label_2
_ccdc_geom_bond_type
C52   H53   S    
C25   H28   S    
C2    C19   A    
C55   O19   D    
C25   C27   A    
C40   H23   S    
C12   H1    S    
C17   C18   A    
C40   H12   S    
C45   H9    S    
C53   C54   S    
C5    C68   A    
C2    C68   A    
C39   C65   S    
C10   P8    S    
C51   C52   S    
C65   O43   D    
C5    C9    A    
H50   O42   S    
C24   C25   A    
C53   O12   S    
C64   O41   D    
C45   O3    S    
C15   C24   A    
H46   O36   S    
C26   C27   A    
H39   O25   S    
C22   C24   A    
C23   H4    S    
C35   C38   A    
C53   C57   S    
C34   H7    S    
O6    P7    D    
C36   C37   A    
C16   C61   S    
C51   H34   S    
C13   C14   A    
C44   H30   S    
C9    C22   A    
O23   P3    S    
C21   H26   S    
C63   O38   S    
C32   P5    S    
C32   C33   A    
C16   H32   S    
O34   P4    D    
C52   H54   S    
Ba1   O16   S    
C34   H6    S    
Ba2   O50   S    
C4    O23   S    
Ba1   P1    S    
O7    P7    S    
Ba1   O49   S    
C29   C30   A    
O47   P8    S    
C6    C7    A    
C47   C49   A    
Ba2   O6    S    
C21   C22   A    
O17   P3    D    
H43   O32   S    
Ba1   O10   S    
C23   O7    S    
C7    C8    A    
C56   H10   S    
Ba2   O45   S    
C53   C58   S    
C57   O22   S    
H51   O44   S    
C15   C68   A    
H47   O38   S    
C13   P4    S    
Ba2   P4    S    
O9    P8    S    
C49   P3    S    
C7    C10   A    
O5    P2    S    
C42   C44   A    
C26   C29   A    
C65   O44   S    
O50   P5    S    
C4    C16   S    
C44   C46   A    
C50   H31   S    
C31   P1    S    
O15   P2    D    
O1    P1    D    
C12   H3    S    
C3    C63   S    
Ba1   O4    S    
C56   H11   S    
C45   C62   S    
C3    C5    A    
H37   O20   S    
C51   C55   S    
C66   C67   S    
H44   O35   S    
O11   P6    D    
C54   H2    S    
Ba1   O45   S    
O14   P6    S    
C4    H17   S    
C60   O28   D    
C23   H5    S    
C58   O25   S    
C66   H14   S    
C33   C37   A    
C41   C42   A    
C4    H27   S    
C35   C36   A    
O13   P1    S    
O4    P1    S    
Ba2   O49   S    
Ba1   P2    S    
C37   H29   S    
O16   P3    S    
C52   H45   S    
C63   O37   D    
Ba2   O5    S    
C54   C59   S    
C58   O24   D    
C10   C11   A    
C17   C26   A    
C67   H18   S    
H49   O40   S    
C28   O46   S    
C1    C12   S    
C38   P2    S    
C18   C31   A    
C38   C39   A    
C12   O14   S    
H52   O46   S    
C11   C13   A    
C28   H35   S    
C40   O18   S    
O45   P4    S    
C6    H20   S    
C61   O31   D    
C54   H56   S    
O12   P2    S    
O48   P4    S    
Ba2   O4    S    
C67   H15   S    
C42   C43   A    
C34   O30   S    
O49   P7    S    
C60   O29   S    
C19   H21   S    
C1    C60   S    
C29   P6    S    
C36   O40   S    
O3    P5    S    
C46   C47   A    
C14   C20   A    
C11   H19   S    
C51   O13   S    
C66   O9    S    
O2    P5    D    
Ba1   O1    S    
O8    P8    D    
C62   O35   S    
Ba1   O5    S    
C59   O27   S    
C3    C6    A    
C1    H55   S    
H36   O18   S    
C66   O36   S    
H48   O39   S    
C32   C50   A    
C64   O42   S    
C30   C31   A    
Ba2   O47   S    
H40   O27   S    
C8    C14   A    
C56   H13   S    
C45   C56   S    
C35   C48   A    
C27   H24   S    
C43   C48   A    
Ba1   Ba2   S    
C62   O33   D    
C41   P7    S    
C15   C17   A    
C39   C49   A    
C16   H33   S    
C41   C50   A    
C59   O26   D    
Ba1   O15   S    
C8    C9    A    
C23   C34   S    
C30   H25   S    
C18   C19   A    
Ba2   O34   S    
C47   C48   A    
H42   O30   S    
O10   P6    S    
C20   H22   S    
C20   C21   A    
C28   C40   S    
C61   O32   S    
C46   C64   S    
C2    O39   S    
C55   O20   S    
C1    H8    S    
H41   O29   S    
C28   O48   S    
C67   H16   S    
C57   O21   D    
H38   O22   S    
C33   C43   A    
