data_mof_unit_52072.cif
_audit_creation_date              2012-12-10T18:07:32-0500
_audit_creation_method            fapswitch 2.2
_symmetry_space_group_name_H-M    P1
_symmetry_Int_Tables_number       1
_space_group_crystal_system       triclinic
_cell_length_a                    11.51807
_cell_length_b                    12.80547
_cell_length_c                    12.968996
_cell_angle_alpha                 80.481608
_cell_angle_beta                  92.936175
_cell_angle_gamma                 103.357985
_cell_volume                      1835.31028356

loop_
_atom_site_label
_atom_site_type_symbol
_atom_type_description
_atom_site_fract_x
_atom_site_fract_y
_atom_site_fract_z
_atom_type_partial_charge
C1    C     C_R   0.488139 0.437943 0.691956 0.839449
C2    C     C_R   0.545976 0.600105 0.199260 -0.215600
C3    C     C_R   0.395512 0.300175 0.844221 0.176041
C4    C     C_R   0.374449 0.276080 0.951493 -0.135527
C5    C     C_R   0.426368 0.350013 0.016832 -0.207223
C6    C     C_R   0.506280 0.448584 0.977250 0.120755
C7    C     C_R   0.544982 0.463472 0.874111 -0.041280
C8    C     C_R   0.549207 0.532509 0.037297 -0.005818
C9    C     C_R   0.647080 0.620365 0.002839 -0.068392
C10   C     C_R   0.697314 0.622965 0.905245 0.616147
C11   C     C_R   0.646328 0.546116 0.842318 -0.276280
C12   C     C_R   0.717617 0.501805 0.500725 0.892450
C13   C     C_R   0.493918 0.531348 0.130228 -0.301795
C14   C     C_R   0.642293 0.687024 0.168272 0.597738
C15   C     C_R   0.480022 0.396642 0.804498 -0.100848
C16   C     C_R   0.289382 0.078991 0.396066 0.544874
C17   C     C_R   0.666707 0.804399 0.602494 0.050804
C18   C     C_R   0.726472 0.912715 0.593346 0.139198
C19   C     C_R   0.668301 0.991426 0.542972 -0.194419
C20   C     C_R   0.546188 0.963989 0.513938 -0.014066
C21   C     C_R   0.498491 0.853501 0.507068 0.192882
C22   C     C_R   0.473937 0.041290 0.481291 -0.066994
C23   C     C_R   0.516085 0.561785 0.308583 0.900034
C24   C     C_R   0.357761 0.004761 0.439598 -0.054905
C25   C     C_R   0.314324 0.895254 0.434371 -0.197833
C26   C     C_R   0.393695 0.827344 0.444752 0.167474
C27   C     C_R   0.506964 0.151997 0.493753 0.266790
C28   C     C_R   0.335386 0.188620 0.395497 -0.138374
C29   C     C_R   0.282367 0.498060 0.499638 0.869388
C30   C     C_1   0.839307 0.504823 0.501371 -0.162821
C31   C     C_1   0.941177 0.502482 0.500845 0.015274
C32   C     C_1   0.058826 0.497436 0.499697 0.013108
C33   C     C_1   0.160680 0.495053 0.499114 -0.176500
C34   C     C_R   0.691255 0.700696 0.068304 0.055423
H1    H     H_    0.228781 0.869449 0.396170 0.218157
H2    H     H_    0.711345 0.741051 0.636751 0.161414
H3    H     H_    0.721847 0.072501 0.524355 0.175623
H4    H     H_    0.412676 0.472469 0.154207 0.173239
H5    H     H_    0.404891 0.326665 0.098698 0.150789
H6    H     H_    0.313107 0.201786 0.984599 0.157383
H7    H     H_    0.688091 0.551343 0.768153 0.173708
H8    H     H_    0.283485 0.246940 0.362857 0.172152
N1    N     N_R   0.440320 0.222190 0.444690 -0.134576
N2    N     N_R   0.559060 0.776980 0.554780 -0.147452
O1    O     O_R   0.471500 0.366730 0.627160 -0.624195
O2    O     O_R   0.509620 0.544830 0.662520 -0.605621
O3    O     O_R   0.646490 0.410960 0.482310 -0.608736
O4    O     O_R   0.684610 0.589050 0.517670 -0.600356
O5    O     O_R   0.490380 0.455170 0.337480 -0.605368
O6    O     O_R   0.528500 0.633270 0.372840 -0.569620
O7    O     O_R   0.315390 0.410950 0.482330 -0.609833
O8    O     O_R   0.353510 0.589040 0.517690 -0.601926
Zn1   Zn    Zn3+2 0.474550 0.381080 0.476390 0.931236
Zn2   Zn    Zn3+2 0.525450 0.618920 0.523610 0.973019
F1    F     F_    0.692752 0.754004 0.237409 -0.666324
F2    F     F_    0.180133 0.046023 0.352209 -0.669279
C35   C     C_3   0.600068 0.189551 0.574178 -0.826306
H9    H     H_    0.575599 0.246643 0.616830 0.275076
H10   H     H_    0.607645 0.122983 0.638842 0.206499
H11   H     H_    0.687320 0.228452 0.537007 0.235313
C36   C     C_3   0.852867 0.944713 0.631758 -0.840188
H12   H     H_    0.886429 0.872711 0.669395 0.265861
H13   H     H_    0.911470 0.987212 0.565111 0.258216
H14   H     H_    0.857817 0.000188 0.690020 0.240905
C37   C     C_3   0.399117 0.784760 0.343857 -0.758938
H15   H     H_    0.350969 0.698863 0.349303 0.239648
H16   H     H_    0.354896 0.828339 0.277374 0.203935
H17   H     H_    0.492902 0.802297 0.318179 0.279847
F3    F     F_    0.794323 0.699654 0.867830 -0.699325
C38   C     C_3   0.791715 0.798211 0.035803 -0.683111
H18   H     H_    0.767659 0.845425 0.961315 0.249348
H19   H     H_    0.810473 0.854612 0.094033 0.260701
H20   H     H_    0.875058 0.771319 0.026728 0.265775
C39   C     C_3   0.324147 0.223632 0.775197 -0.846360
H21   H     H_    0.259383 0.155853 0.820674 0.228261
H22   H     H_    0.272334 0.267914 0.715965 0.248934
H23   H     H_    0.384697 0.186933 0.736028 0.253320

loop_
_geom_bond_atom_site_label_1
_geom_bond_atom_site_label_2
_ccdc_geom_bond_type
C16   C28   A    
C21   C26   A    
C8    C13   A    
C19   C20   A    
C12   O4    A    
O4    Zn2   S    
O6    Zn2   S    
C39   H22   S    
C5    C6    A    
C1    O2    A    
C35   H10   S    
C29   C33   S    
C18   C19   A    
C36   H13   S    
C2    C13   A    
C19   H3    S    
N1    Zn1   S    
C4    H6    S    
C8    C9    A    
C37   H16   S    
C39   H23   S    
C38   H18   S    
C1    C15   S    
C17   H2    S    
C9    C10   A    
C34   C38   S    
O3    Zn1   S    
C7    C15   A    
C14   F1    S    
O1    Zn1   S    
C16   C24   A    
C12   O3    A    
O8    Zn2   S    
C39   H21   S    
C24   C25   A    
C27   C35   S    
C35   H11   S    
C6    C8    A    
C25   C26   A    
C3    C39   S    
C36   H14   S    
C7    C11   A    
C16   F2    S    
N2    Zn2   S    
C21   N2    A    
C31   C32   S    
C37   H17   S    
O2    Zn2   S    
C38   H20   S    
C17   C18   A    
C13   H4    S    
C25   H1    S    
C20   C22   A    
C22   C27   A    
C5    H5    S    
C9    C34   A    
C22   C24   A    
C3    C4    A    
C3    C15   A    
C29   O7    A    
C12   C30   S    
C26   C37   S    
C4    C5    A    
C23   O6    A    
C14   C34   A    
C18   C36   S    
C6    C7    A    
C28   N1    A    
C32   C33   T    
C17   N2    A    
C1    O1    A    
C35   H9    S    
C30   C31   T    
O5    Zn1   S    
C28   H8    S    
C11   H7    S    
C36   H12   S    
C2    C14   A    
C23   O5    A    
C10   C11   A    
C10   F3    S    
C27   N1    A    
C20   C21   A    
C37   H15   S    
C2    C23   S    
C38   H19   S    
O7    Zn1   S    
C29   O8    A    
