data_mof_unit_34068.cif
_audit_creation_date              2012-12-11T16:49:20-0500
_audit_creation_method            fapswitch 2.2
_symmetry_space_group_name_H-M    P1
_symmetry_Int_Tables_number       1
_space_group_crystal_system       triclinic
_cell_length_a                    6.913819
_cell_length_b                    25.953565
_cell_length_c                    28.949772
_cell_angle_alpha                 89.846695
_cell_angle_beta                  90.619428
_cell_angle_gamma                 89.852675
_cell_volume                      5194.35672046

loop_
_atom_site_label
_atom_site_type_symbol
_atom_type_description
_atom_site_fract_x
_atom_site_fract_y
_atom_site_fract_z
_atom_type_partial_charge
O1    O     O_R   0.601010 0.796750 0.202520 -0.533176
O2    O     O_R   0.398990 0.203250 0.797480 -0.536164
O3    O     O_R   0.271260 0.802890 0.297300 -0.527945
O4    O     O_R   0.728740 0.197110 0.702700 -0.528393
O5    O     O_R   0.100940 0.703200 0.297630 -0.503576
O6    O     O_R   0.899060 0.296800 0.702370 -0.504579
C1    C     C_R   0.440980 0.814758 0.313953 0.742825
C2    C     C_R   0.559023 0.185246 0.686044 0.744800
O7    O     O_R   0.271300 0.802890 0.202860 -0.543390
O8    O     O_R   0.728700 0.197110 0.797140 -0.537302
O9    O     O_R   0.100980 0.703210 0.202520 -0.545143
O10   O     O_R   0.899020 0.296790 0.797480 -0.543802
C3    C     C_R   0.439248 0.815136 0.186501 0.702722
C4    C     C_R   0.560530 0.185064 0.813746 0.709417
O11   O     O_R   0.600970 0.796740 0.297640 -0.540881
O12   O     O_R   0.399030 0.203260 0.702360 -0.540076
O13   O     O_3   0.434500 0.717270 0.250080 -0.368623
O14   O     O_3   0.565500 0.282730 0.749920 -0.370565
V1    V     V_3+5 0.159650 0.756040 0.250080 1.498192
V2    V     V_3+5 0.840350 0.243960 0.749920 1.509401
O15   O     O_R   0.771260 0.697060 0.202850 -0.546405
O16   O     O_R   0.228740 0.302940 0.797150 -0.547891
C5    C     C_R   0.939678 0.684497 0.186792 0.717514
C6    C     C_R   0.060305 0.315580 0.813147 0.723313
O17   O     O_R   0.771230 0.697050 0.297300 -0.545799
O18   O     O_R   0.228770 0.302950 0.702700 -0.546547
C7    C     C_R   0.941652 0.684967 0.313991 0.780610
C8    C     C_R   0.058348 0.315033 0.686010 0.777517
V3    V     V_3+5 0.659640 0.743910 0.250080 1.464987
V4    V     V_3+5 0.340360 0.256090 0.749920 1.468921
O19   O     O_3   0.934660 0.782680 0.250080 -0.368094
O20   O     O_3   0.065340 0.217320 0.749920 -0.364660
C9    C     C_R   0.131743 0.642558 0.379669 0.359666
C10   C     C_R   0.868257 0.357443 0.620332 0.359351
C11   C     C_R   0.149467 0.604008 0.414467 0.277083
C12   C     C_R   0.850533 0.395993 0.585534 0.277058
C13   C     C_R   0.988981 0.572211 0.425167 -0.100256
C14   C     C_R   0.011020 0.427790 0.574834 -0.100256
C15   C     C_R   0.818128 0.577691 0.398855 -0.140835
C16   C     C_R   0.181872 0.422309 0.601146 -0.141146
H1    H     H_    0.693898 0.553787 0.406109 0.170641
H2    H     H_    0.306102 0.446214 0.593892 0.170563
C17   C     C_R   0.803265 0.614281 0.363363 -0.237619
C18   C     C_R   0.196735 0.385720 0.636638 -0.238004
H3    H     H_    0.669195 0.616848 0.343785 0.167123
H4    H     H_    0.330804 0.383152 0.656216 0.166880
C19   C     C_R   0.958628 0.646944 0.353008 -0.148867
C20   C     C_R   0.041372 0.353056 0.646993 -0.148042
N1    N     N_R   0.896274 0.489329 0.461619 -0.280933
N2    N     N_R   0.103726 0.510673 0.538382 -0.281341
N3    N     N_R   0.902087 0.455549 0.496448 -0.248646
N4    N     N_R   0.097913 0.544452 0.503552 -0.248962
C21   C     C_R   0.005164 0.465527 0.535714 0.524099
C22   C     C_R   0.994836 0.534474 0.464288 0.524127
C23   C     C_R   0.120205 0.639264 0.123701 -0.153385
C24   C     C_R   0.879791 0.360885 0.876201 -0.152112
H5    H     H_    0.247287 0.662067 0.131571 0.132851
H6    H     H_    0.752620 0.338124 0.868315 0.132997
C25   C     C_R   0.129268 0.603641 0.087621 -0.227190
C26   C     C_R   0.870803 0.396509 0.912281 -0.227286
H7    H     H_    0.262329 0.600289 0.068451 0.146210
H8    H     H_    0.737726 0.399893 0.931439 0.146572
C27   C     C_R   0.968426 0.573212 0.075733 0.066063
C28   C     C_R   0.031729 0.426901 0.924181 0.066122
C29   C     C_R   0.796054 0.578975 0.101075 0.372772
C30   C     C_R   0.204119 0.421092 0.898854 0.372687
C31   C     C_R   0.787370 0.615716 0.137024 -0.249393
C32   C     C_R   0.212748 0.384334 0.862918 -0.251470
H9    H     H_    0.654820 0.620059 0.156262 0.117496
H10   H     H_    0.345325 0.379948 0.843698 0.117017
C33   C     C_R   0.949021 0.645992 0.148749 -0.074364
C34   C     C_R   0.051006 0.354100 0.851178 -0.074905
C35   C     C_R   0.839165 0.532605 0.002519 -0.075549
C36   C     C_R   0.161040 0.467523 0.997387 -0.074835
H11   H     H_    0.714954 0.558071 0.003372 0.145079
H12   H     H_    0.285242 0.442053 0.996538 0.145626
C37   C     C_R   0.855132 0.497507 0.966040 -0.177575
C38   C     C_R   0.145078 0.502624 0.033864 -0.176964
H13   H     H_    0.742173 0.496513 0.939855 0.144678
H14   H     H_    0.258034 0.503619 0.060050 0.145097
C39   C     C_R   0.016621 0.464653 0.962890 0.105869
C40   C     C_R   0.983579 0.535474 0.037016 0.105878
C41   C     C_R   0.380908 0.143423 0.618040 -0.050871
C42   C     C_R   0.619114 0.856597 0.381945 -0.051587
C43   C     C_R   0.375500 0.106838 0.582591 -0.263419
C44   C     C_R   0.624527 0.893188 0.417389 -0.264095
H15   H     H_    0.247406 0.103906 0.560771 0.157528
H16   H     H_    0.752627 0.896125 0.439206 0.157736
C45   C     C_R   0.532411 0.073873 0.574755 0.113640
C46   C     C_R   0.467613 0.926152 0.425223 0.113751
C47   C     C_R   0.700049 0.078214 0.602553 0.435533
C48   C     C_R   0.299970 0.921807 0.397429 0.435088
C49   C     C_R   0.705195 0.114690 0.638659 -0.250147
C50   C     C_R   0.294817 0.885324 0.361328 -0.253431
H17   H     H_    0.833751 0.117347 0.660231 0.134164
H18   H     H_    0.166255 0.882662 0.339758 0.132553
C51   C     C_R   0.546706 0.147398 0.647226 -0.124774
C52   C     C_R   0.453304 0.852614 0.352764 -0.125327
C53   C     C_R   0.538591 0.982446 0.545395 0.447499
C54   C     C_R   0.461430 0.017581 0.454583 0.446703
C55   C     C_R   0.520644 0.947317 0.508530 -0.340893
C56   C     C_R   0.479377 0.052710 0.491447 -0.340795
H19   H     H_    0.535448 0.906366 0.515114 0.143345
H20   H     H_    0.464572 0.093661 0.484864 0.143310
C57   C     C_R   0.481131 0.964405 0.463317 0.061648
C58   C     C_R   0.518891 0.035622 0.536661 0.061422
C59   C     C_R   0.391690 0.143482 0.882517 -0.047847
C60   C     C_R   0.297665 0.860962 0.115661 -0.053648
C61   C     C_R   0.392066 0.107306 0.918496 -0.185700
C62   C     C_R   0.316238 0.897671 0.080326 -0.235715
H21   H     H_    0.267488 0.104677 0.940868 0.152423
H22   H     H_    0.199776 0.902858 0.055317 0.160343
C63   C     C_R   0.550044 0.074338 0.926195 0.045229
C64   C     C_R   0.483571 0.927774 0.076707 0.042236
C65   C     C_R   0.713581 0.078283 0.897174 0.424692
C66   C     C_R   0.636339 0.920634 0.108568 0.385647
C67   C     C_R   0.711618 0.114111 0.860788 -0.147462
C68   C     C_R   0.617437 0.883985 0.144254 -0.228444
H23   H     H_    0.837119 0.116193 0.838773 0.157836
H24   H     H_    0.734944 0.879040 0.168947 0.132146
C69   C     C_R   0.552646 0.147086 0.852652 -0.174200
C70   C     C_R   0.449138 0.853945 0.148479 -0.125966
C71   C     C_R   0.527997 0.983225 0.955860 0.397558
C72   C     C_R   0.505539 0.020109 0.047403 0.439085
C73   C     C_R   0.508794 0.948553 0.993121 -0.290101
C74   C     C_R   0.525972 0.054255 0.010240 -0.231083
H25   H     H_    0.502645 0.907494 0.986558 0.140300
H26   H     H_    0.530721 0.095297 0.016967 0.165042
C75   C     C_R   0.498679 0.966280 0.038837 -0.001055
C76   C     C_R   0.537847 0.036445 0.964654 -0.051571
O21   O     O_3   0.282246 0.676119 0.370708 -0.635985
H27   H     H_    0.389460 0.670856 0.393147 0.329778
O22   O     O_3   0.717753 0.323882 0.629292 -0.636335
H28   H     H_    0.610546 0.329143 0.606851 0.329713
C77   C     C_1   0.215650 0.177233 0.622135 0.318178
N5    N     N_1   0.083042 0.204269 0.625191 -0.342934
C78   C     C_1   0.784377 0.822789 0.377852 0.317860
N6    N     N_1   0.916989 0.795755 0.374797 -0.342153
O23   O     O_3   0.857780 0.047269 0.593329 -0.625728
H29   H     H_    0.963577 0.055452 0.615500 0.291315
O24   O     O_3   0.142240 0.952754 0.406649 -0.626108
H30   H     H_    0.036441 0.944567 0.384480 0.290000
O25   O     O_3   0.570563 0.965660 0.590153 -0.616886
H31   H     H_    0.580436 0.927536 0.590310 0.300835
O26   O     O_3   0.429457 0.034366 0.409825 -0.618204
H32   H     H_    0.419584 0.072490 0.409668 0.300440
C79   C     C_1   0.225711 0.177201 0.878478 0.331779
N7    N     N_1   0.092525 0.204153 0.875439 -0.369300
C80   C     C_1   0.125198 0.829666 0.115970 0.311086
N8    N     N_1   0.987198 0.804516 0.116121 -0.362110
O27   O     O_3   0.878851 0.048870 0.903188 -0.631517
H33   H     H_    0.872594 0.029788 0.932739 0.302713
O28   O     O_3   0.802641 0.949505 0.103929 -0.636050
H34   H     H_    0.896149 0.939532 0.128605 0.288875
O29   O     O_3   0.326476 0.597707 0.436355 -0.644868
H35   H     H_    0.344398 0.560741 0.443819 0.303865
O30   O     O_3   0.673524 0.402294 0.563646 -0.644793
H36   H     H_    0.655603 0.439260 0.556182 0.303783
O31   O     O_3   0.535148 0.966140 0.910772 -0.618789
H37   H     H_    0.526254 0.928013 0.910587 0.299749
O32   O     O_3   0.489927 0.041260 0.090955 -0.620426
H38   H     H_    0.452412 0.014359 0.113355 0.302510
O33   O     O_3   0.640382 0.547486 0.091162 -0.661120
H39   H     H_    0.534056 0.555425 0.112743 0.278722
O34   O     O_3   0.359862 0.452556 0.908766 -0.661518
H40   H     H_    0.466148 0.444609 0.887176 0.278414

loop_
_geom_bond_atom_site_label_1
_geom_bond_atom_site_label_2
_ccdc_geom_bond_type
C30   C32   A    
C27   C29   A    
O34   H40   S    
C1    C52   S    
C23   C25   A    
O13   V3    S    
O33   H39   S    
O4    C2    A    
V1    O19   S    
N1    N3    A    
O32   H38   S    
C77   N5    T    
C15   H1    S    
O9    V1    S    
C54   C57   A    
O30   H36   S    
C36   H12   S    
C53   O25   S    
C11   C13   A    
C42   C44   A    
C72   O32   S    
O3    C1    A    
C61   H21   S    
O26   H32   S    
C44   H16   S    
C71   C73   A    
C50   C52   A    
O12   V4    S    
N1    C22   A    
O14   V2    S    
C26   H8    S    
C68   C70   A    
O7    C3    A    
C67   C69   A    
C9    C11   A    
O5    C7    A    
C36   C38   A    
O7    V1    S    
O6    C8    A    
C79   N7    T    
O8    V2    S    
C24   C34   A    
C45   C58   S    
N2    N4    A    
O27   H33   S    
O3    V1    S    
O14   V4    S    
C45   C47   A    
C62   C64   A    
C10   C12   A    
C61   C63   A    
C9    O21   S    
C16   H2    S    
C2    O12   A    
C4    C69   S    
C55   C57   A    
C59   C61   A    
O10   V2    S    
O1    V3    S    
O18   C8    A    
C18   H4    S    
O11   V3    S    
C68   H24   S    
C37   H13   S    
O15   C5    A    
O17   V3    S    
C13   C15   A    
C25   H7    S    
N2    C21   A    
C63   C76   S    
C27   C40   S    
V4    O20   S    
C5    C33   S    
C44   C46   A    
C43   C45   A    
C15   C17   A    
C1    O11   A    
C10   O22   S    
C29   C31   A    
O15   V3    S    
C24   C26   A    
N3    C21   A    
C28   C30   A    
C56   H20   S    
C2    C51   S    
C47   C49   A    
C59   C79   S    
C38   C40   A    
C46   C48   A    
O31   H37   S    
C37   C39   A    
C54   O26   S    
C32   C34   A    
C29   O33   S    
C48   C50   A    
C38   H14   S    
N4    C22   A    
C50   H18   S    
C48   O24   S    
C17   H3    S    
C59   C69   A    
C66   O28   S    
C12   O30   S    
C66   C68   A    
C47   O23   S    
C13   C22   S    
C32   H10   S    
C53   C55   A    
C42   C78   S    
O18   V4    S    
C23   H5    S    
C71   C76   A    
O8    C4    A    
O22   H28   S    
C9    C19   A    
C64   C75   S    
O16   C6    A    
O1    C3    A    
C35   H11   S    
C36   C39   A    
O21   H27   S    
C49   C51   A    
C35   C40   A    
C6    C34   S    
C72   C74   A    
C54   C56   A    
V2    O20   S    
C7    C19   S    
C53   C58   A    
C65   C67   A    
C8    C20   S    
C74   H26   S    
O16   V4    S    
C30   O34   S    
C41   C43   A    
C41   C77   S    
C46   C57   S    
C60   C70   A    
C64   C66   A    
O23   H29   S    
C60   C62   A    
O5    V1    S    
O17   C7    A    
O6    V2    S    
C78   N6    T    
O10   C6    A    
C25   C27   A    
C55   H19   S    
O2    V4    S    
C26   C28   A    
C42   C52   A    
C67   H23   S    
O25   H31   S    
V3    O19   S    
C18   C20   A    
C80   N8    T    
C12   C14   A    
C14   C16   A    
C3    C70   S    
C14   C21   S    
C71   O31   S    
O9    C5    A    
O13   V1    S    
C24   H6    S    
C72   C75   A    
C56   C58   A    
C31   C33   A    
O2    C4    A    
C62   H22   S    
C28   C39   S    
C60   C80   S    
O4    V2    S    
C73   C75   A    
C43   H15   S    
C16   C18   A    
C10   C20   A    
C35   C37   A    
C49   H17   S    
C41   C51   A    
C65   O27   S    
O29   H35   S    
C73   H25   S    
C74   C76   A    
C31   H9    S    
O28   H34   S    
O24   H30   S    
C17   C19   A    
C23   C33   A    
C11   O29   S    
C63   C65   A    
