data_mof_unit_37958.cif
_audit_creation_date              2012-12-10T20:26:28-0500
_audit_creation_method            fapswitch 2.2
_symmetry_space_group_name_H-M    P1
_symmetry_Int_Tables_number       1
_space_group_crystal_system       triclinic
_cell_length_a                    10.703063
_cell_length_b                    10.682833
_cell_length_c                    9.873834
_cell_angle_alpha                 89.55503
_cell_angle_beta                  89.419129
_cell_angle_gamma                 90.217231
_cell_volume                      1128.86413025

loop_
_atom_site_label
_atom_site_type_symbol
_atom_type_description
_atom_site_fract_x
_atom_site_fract_y
_atom_site_fract_z
_atom_type_partial_charge
C1    C     C_R   0.504504 0.259860 0.500254 0.866938
C2    C     C_R   0.526530 0.128545 0.499881 -0.107325
C3    C     C_R   0.544669 0.065850 0.376736 -0.222865
C4    C     C_R   0.544837 0.936336 0.376148 -0.213301
C5    C     C_R   0.527086 0.871227 0.498716 -0.109081
C6    C     C_R   0.534692 0.934725 0.620901 0.132188
C7    C     C_3   0.454203 0.925092 0.745038 -0.462888
C8    C     C_3   0.453624 0.066793 0.745755 -0.495468
C9    C     C_R   0.393396 0.472655 0.072526 0.212693
C10   C     C_R   0.602276 0.537622 0.070494 -0.132055
C11   C     C_R   0.602301 0.537576 0.926665 -0.123595
C12   C     C_R   0.262487 0.494308 0.501025 0.954293
C13   C     C_R   0.393109 0.473845 0.930021 0.215244
C14   C     C_3   0.319776 0.355532 0.924774 -0.504358
C15   C     C_3   0.321903 0.352560 0.078282 -0.482666
C16   C     C_R   0.504818 0.740007 0.499454 0.885676
C17   C     C_R   0.737345 0.495495 0.499005 0.906346
C18   C     C_2   0.934160 0.427707 0.401125 0.024999
C19   C     C_2   0.869806 0.493162 0.494627 -0.431531
C20   C     C_2   0.068123 0.447828 0.393415 -0.116570
C21   C     C_2   0.131876 0.469077 0.506049 -0.403068
C22   C     C_R   0.534429 0.062528 0.621595 0.143143
H1    H     H_    0.504080 0.106447 0.833519 0.206129
H2    H     H_    0.685549 0.566157 0.123322 0.158421
H3    H     H_    0.685623 0.566156 0.871697 0.156636
H4    H     H_    0.224939 0.370417 0.882832 0.210013
H5    H     H_    0.373333 0.278657 0.877931 0.212711
H6    H     H_    0.227605 0.363321 0.123833 0.218319
H7    H     H_    0.377552 0.273916 0.120438 0.213308
H8    H     H_    0.914900 0.556584 0.564448 0.157299
H9    H     H_    0.113630 0.446488 0.294981 0.187196
H10   H     H_    0.088696 0.460978 0.605867 0.161859
H11   H     H_    0.549126 0.115560 0.280740 0.172708
H12   H     H_    0.549204 0.888430 0.279925 0.174267
H13   H     H_    0.360884 0.883383 0.724971 0.207437
H14   H     H_    0.504824 0.883379 0.832087 0.206508
H15   H     H_    0.359842 0.107010 0.725761 0.205635
N1    N     N_R   0.499170 0.499140 0.142800 -0.112123
N2    N     N_R   0.499170 0.499180 0.857150 -0.109570
O1    O     O_R   0.500020 0.316790 0.614690 -0.615082
O2    O     O_R   0.500000 0.316760 0.385350 -0.631696
O3    O     O_R   0.319080 0.500020 0.614640 -0.620115
O4    O     O_R   0.319070 0.499980 0.385300 -0.612416
O5    O     O_R   0.500000 0.683240 0.614650 -0.617285
O6    O     O_R   0.499980 0.683210 0.385310 -0.618852
O7    O     O_R   0.680930 0.500020 0.614700 -0.614309
O8    O     O_R   0.680920 0.499980 0.385360 -0.632430
Zn1   Zn    Zn3+2 0.500010 0.500020 0.653130 0.945184
Zn2   Zn    Zn3+2 0.499990 0.499980 0.346870 0.941377
C23   C     C_2   0.876122 0.336665 0.306729 0.423912
H16   H     H_    0.781111 0.303658 0.322446 0.081253
O9    O     O_2   0.935805 0.294870 0.211277 -0.593046

loop_
_geom_bond_atom_site_label_1
_geom_bond_atom_site_label_2
_ccdc_geom_bond_type
C16   O6    A    
C2    C22   A    
C23   O9    D    
C17   O7    A    
C6    C7    S    
C14   H5    S    
C7    H14   S    
C16   O5    A    
C8    C22   S    
O6    Zn2   S    
C10   N1    A    
C23   H16   S    
C9    C15   S    
C7    C8    S    
O8    Zn2   S    
N1    Zn2   S    
O3    Zn1   S    
C13   C14   S    
C14   H4    S    
C11   N2    A    
C15   H6    S    
O2    Zn2   S    
C9    N1    A    
C17   C19   S    
C15   H7    S    
C12   O4    A    
C2    C3    A    
C5    C6    A    
C21   H10   S    
C4    H12   S    
C13   N2    A    
C10   C11   A    
C3    H11   S    
C12   O3    A    
C3    C4    A    
C6    C22   A    
O7    Zn1   S    
O5    Zn1   S    
C8    H1    S    
C20   C21   D    
C18   C23   S    
C18   C20   S    
C1    C2    S    
C8    H15   S    
C1    O2    A    
O1    Zn1   S    
C11   H3    S    
C14   C15   S    
C18   C19   D    
C5    C16   S    
C9    C13   A    
C1    O1    A    
C10   H2    S    
C19   H8    S    
C7    H13   S    
C12   C21   S    
O4    Zn2   S    
C17   O8    A    
C4    C5    A    
N2    Zn1   S    
C20   H9    S    
