data_mof_unit_15438.cif
_audit_creation_date              2012-12-11T14:33:49-0500
_audit_creation_method            fapswitch 2.2
_symmetry_space_group_name_H-M    P1
_symmetry_Int_Tables_number       1
_space_group_crystal_system       triclinic
_cell_length_a                    13.848294
_cell_length_b                    13.980809
_cell_length_c                    27.319193
_cell_angle_alpha                 89.844214
_cell_angle_beta                  90.072058
_cell_angle_gamma                 119.604698
_cell_volume                      4598.76967497

loop_
_atom_site_label
_atom_site_type_symbol
_atom_type_description
_atom_site_fract_x
_atom_site_fract_y
_atom_site_fract_z
_atom_type_partial_charge
C1    C     C_R   0.233926 0.786951 0.568781 0.539857
C2    C     C_R   0.212589 0.446508 0.568795 0.542821
C3    C     C_R   0.551638 0.764510 0.569338 0.540002
C4    C     C_3   0.647488 0.726390 0.792517 0.184201
C5    C     C_3   0.246882 0.959209 0.781928 0.192834
C6    C     C_3   0.059815 0.318534 0.786742 0.189403
C7    C     C_3   0.627386 0.714279 0.736231 -0.143244
C8    C     C_3   0.262655 0.937602 0.727521 -0.151073
C9    C     C_3   0.078180 0.352960 0.731871 -0.148307
C10   C     C_1   0.701743 0.860635 0.861285 -0.075147
C11   C     C_1   0.116705 0.883940 0.852498 -0.054289
C12   C     C_1   0.113896 0.230150 0.852222 -0.064558
C13   C     C_1   0.621572 0.809102 0.660298 -0.075648
C14   C     C_1   0.177077 0.817686 0.656433 -0.077683
C15   C     C_1   0.178483 0.357933 0.656306 -0.073412
C16   C     C_1   0.596395 0.792881 0.617707 -0.015875
C17   C     C_1   0.199117 0.805145 0.615271 -0.017781
C18   C     C_1   0.193022 0.393082 0.615198 -0.016285
C19   C     C_R   0.064908 0.150438 0.096047 0.579449
C20   C     C_R   0.777445 0.883993 0.088359 0.548350
C21   C     C_R   0.116450 0.893594 0.088141 0.561716
C22   C     C_R   0.069208 0.160187 0.943306 0.537257
C23   C     C_R   0.779319 0.887155 0.950990 0.539160
C24   C     C_R   0.090918 0.929951 0.943355 0.533488
C25   C     C_R   0.618957 0.895995 0.361498 -0.133017
C26   C     C_R   0.097091 0.732993 0.363050 -0.134543
C27   C     C_R   0.264555 0.358107 0.363693 -0.135377
C28   C     C_R   0.645326 0.911605 0.311850 0.014271
C29   C     C_R   0.080499 0.744392 0.313372 0.014294
C30   C     C_R   0.241638 0.307384 0.317615 0.013992
C31   C     C_R   0.681406 0.929291 0.210316 0.017116
C32   C     C_R   0.060497 0.760078 0.211698 0.017036
C33   C     C_R   0.201005 0.226481 0.220979 0.016961
C34   C     C_R   0.232539 0.788414 0.431834 0.547537
C35   C     C_R   0.211766 0.444624 0.431353 0.549682
C36   C     C_R   0.555674 0.767289 0.431923 0.548917
C37   C     C_R   0.654131 0.001177 0.234379 -0.137966
C38   C     C_R   0.977194 0.671284 0.237926 -0.127683
C39   C     C_R   0.303309 0.257196 0.243558 -0.124168
C40   C     C_R   0.635859 0.992215 0.284889 -0.130869
C41   C     C_R   0.987753 0.662781 0.288431 -0.128810
C42   C     C_R   0.323623 0.297690 0.291482 -0.128823
C43   C     C_R   0.704195 0.939558 0.160034 -0.150052
C44   C     C_R   0.050544 0.771129 0.161310 -0.135589
C45   C     C_R   0.183141 0.195561 0.171551 -0.128873
C46   C     C_R   0.728715 0.864648 0.137076 -0.003188
C47   C     C_R   0.135343 0.861054 0.136224 -0.005003
C48   C     C_R   0.083013 0.172957 0.148685 -0.008647
C49   C     C_R   0.659281 0.745238 0.364257 -0.131320
C50   C     C_R   0.266315 0.910865 0.361795 -0.128465
C51   C     C_R   0.076498 0.328746 0.367925 -0.130147
C52   C     C_R   0.683315 0.757968 0.314692 0.013428
C53   C     C_R   0.254527 0.920427 0.312072 0.013844
C54   C     C_R   0.053078 0.279934 0.321879 0.011738
C55   C     C_R   0.673844 0.839755 0.288059 0.063910
C56   C     C_R   0.162403 0.836034 0.287440 0.063313
C57   C     C_R   0.136526 0.271216 0.296074 0.062594
C58   C     C_R   0.708242 0.684536 0.290749 -0.126856
C59   C     C_R   0.337933 0.009315 0.286158 -0.127140
C60   C     C_R   0.949651 0.246198 0.300003 -0.129226
C61   C     C_R   0.719902 0.689457 0.240252 -0.127205
C62   C     C_R   0.332056 0.012904 0.235555 -0.129570
C63   C     C_R   0.930680 0.208928 0.251865 -0.122667
C64   C     C_R   0.710031 0.769897 0.213620 0.011084
C65   C     C_R   0.240832 0.929674 0.210775 0.014245
C66   C     C_R   0.013768 0.202513 0.225398 0.016594
C67   C     C_3   0.559987 0.851377 0.738393 -0.258470
C68   C     C_3   0.142482 0.734105 0.739273 -0.262479
C69   C     C_3   0.272733 0.383625 0.736138 -0.260056
C70   C     C_R   0.688900 0.846751 0.237350 0.065216
C71   C     C_R   0.154351 0.841903 0.236637 0.063797
C72   C     C_R   0.116518 0.231621 0.247733 0.062018
C73   C     C_R   0.724386 0.776355 0.163603 -0.123437
C74   C     C_R   0.232894 0.935521 0.160597 -0.132439
C75   C     C_R   0.997519 0.172498 0.176248 -0.129336
C76   C     C_R   0.619039 0.808219 0.386786 -0.003368
C77   C     C_R   0.193568 0.813362 0.386437 -0.003658
C78   C     C_R   0.183469 0.372978 0.388060 -0.004834
C79   C     C_3   0.763043 0.916813 0.724108 0.136632
C80   C     C_3   0.055376 0.848356 0.714286 0.149097
C81   C     C_3   0.115198 0.197113 0.712591 0.151310
C82   C     C_3   0.782593 0.928867 0.780244 -0.185286
C83   C     C_3   0.038169 0.862473 0.769422 -0.176807
C84   C     C_3   0.097086 0.163822 0.767469 -0.177472
C85   C     C_1   0.731557 0.872743 0.903306 -0.043220
C86   C     C_1   0.104169 0.903011 0.894232 -0.020102
C87   C     C_1   0.095655 0.199197 0.894043 -0.031197
C88   C     C_3   0.643265 0.822859 0.713302 0.039379
C89   C     C_3   0.158969 0.833988 0.707943 0.040680
C90   C     C_3   0.161205 0.323011 0.707760 0.038126
C91   C     C_3   0.581055 0.866102 0.794421 -0.207318
C92   C     C_3   0.129240 0.753472 0.794226 -0.212816
C93   C     C_3   0.255602 0.347942 0.790670 -0.207837
C94   C     C_3   0.677329 0.845126 0.808600 0.048845
C95   C     C_3   0.132961 0.865255 0.800932 0.044925
C96   C     C_3   0.131553 0.265143 0.800696 0.044869
Cr1   Cr    Cr6+3 0.164410 0.584450 0.499910 1.017794
Cr2   Cr    Cr6+3 0.415550 0.579960 0.499910 1.018065
Cr3   Cr    Cr6+3 0.420040 0.835590 0.499910 1.015388
Cr4   Cr    Cr6+3 0.155170 0.075460 0.019960 1.013057
Cr5   Cr    Cr6+3 0.924540 0.079710 0.019960 1.001222
Cr6   Cr    Cr6+3 0.920290 0.844830 0.019960 0.999389
H1    H     H_    0.602137 0.950983 0.805110 0.108178
H2    H     H_    0.048898 0.685977 0.808137 0.104847
H3    H     H_    0.306557 0.308724 0.799514 0.088015
H4    H     H_    0.473222 0.784866 0.731564 0.134151
H5    H     H_    0.214811 0.720685 0.734770 0.133178
H6    H     H_    0.307026 0.474234 0.733733 0.142945
H7    H     H_    0.503990 0.808409 0.814452 0.181625
H8    H     H_    0.196257 0.751447 0.815916 0.182259
H9    H     H_    0.284953 0.421544 0.814516 0.190253
H10   H     H_    0.720218 0.714333 0.799981 0.087110
H11   H     H_    0.243669 0.037062 0.783657 0.084510
H12   H     H_    0.970688 0.254057 0.791326 0.082983
H13   H     H_    0.706517 0.006926 0.139331 0.104319
H14   H     H_    0.975322 0.713601 0.142267 0.113523
H15   H     H_    0.248331 0.193275 0.150541 0.121527
H16   H     H_    0.589241 0.945965 0.379125 0.127310
H17   H     H_    0.039527 0.658521 0.382343 0.123020
H18   H     H_    0.346979 0.391125 0.379219 0.124502
H19   H     H_    0.646873 0.064125 0.214167 0.097863
H20   H     H_    0.904924 0.607718 0.219284 0.097996
H21   H     H_    0.368869 0.253356 0.223616 0.100443
H22   H     H_    0.613105 0.047363 0.302750 0.099471
H23   H     H_    0.924068 0.592075 0.307874 0.100528
H24   H     H_    0.404499 0.324341 0.307583 0.101863
H25   H     H_    0.741481 0.716815 0.145992 0.128657
H26   H     H_    0.299060 0.004492 0.141123 0.123170
H27   H     H_    0.919319 0.152322 0.158828 0.117686
H28   H     H_    0.736785 0.630571 0.222008 0.097985
H29   H     H_    0.398209 0.081178 0.215847 0.094273
H30   H     H_    0.852616 0.189111 0.234720 0.110307
H31   H     H_    0.715132 0.621211 0.310845 0.101001
H32   H     H_    0.409353 0.074074 0.304843 0.096977
H33   H     H_    0.885038 0.252889 0.319410 0.102977
H34   H     H_    0.568357 0.928318 0.722343 0.101428
H35   H     H_    0.067537 0.658216 0.726500 0.102239
H36   H     H_    0.334977 0.365158 0.719449 0.104842
H37   H     H_    0.661505 0.678983 0.384056 0.127900
H38   H     H_    0.339414 0.974801 0.379935 0.131014
H39   H     H_    0.012791 0.338143 0.386739 0.130176
H40   H     H_    0.773381 0.996070 0.709522 0.140901
H41   H     H_    0.980092 0.773120 0.700739 0.126252
H42   H     H_    0.177266 0.176054 0.697417 0.139832
H43   H     H_    0.805834 0.014206 0.791303 0.076502
H44   H     H_    0.956735 0.793139 0.781565 0.081831
H45   H     H_    0.147774 0.125332 0.777138 0.073887
H46   H     H_    0.853311 0.916272 0.790380 0.134483
H47   H     H_    0.033804 0.938569 0.775232 0.154014
H48   H     H_    0.008863 0.101859 0.774340 0.152613
H49   H     H_    0.541992 0.646196 0.728194 0.136770
H50   H     H_    0.336421 0.926263 0.723663 0.130260
H51   H     H_    0.110136 0.443063 0.728274 0.133985
H52   H     H_    0.685640 0.691015 0.719002 0.118303
H53   H     H_    0.279055 0.010606 0.705019 0.113873
H54   H     H_    0.997149 0.311377 0.712293 0.119902
O1    O     O_R   0.137150 0.468200 0.553200 -0.509957
O2    O     O_R   0.531800 0.668950 0.553200 -0.511059
O3    O     O_R   0.331050 0.862850 0.553200 -0.509453
O4    O     O_R   0.179100 0.982980 0.967000 -0.499429
O5    O     O_R   0.017020 0.196120 0.967000 -0.486250
O6    O     O_R   0.803880 0.820900 0.967000 -0.520495
O7    O     O_R   0.173970 0.688730 0.549930 -0.501613
O8    O     O_R   0.311270 0.485240 0.549930 -0.500973
O9    O     O_R   0.514760 0.826030 0.549930 -0.499047
O10   O     O_R   0.140110 0.470540 0.446010 -0.521540
O11   O     O_R   0.529460 0.669570 0.446010 -0.521358
O12   O     O_R   0.330430 0.859890 0.446010 -0.523875
O13   O     O_R   0.176710 0.690910 0.450560 -0.502177
O14   O     O_R   0.309090 0.485800 0.450560 -0.501227
O15   O     O_R   0.514200 0.823290 0.450560 -0.503635
O16   O     O_3   0.333333 0.666667 0.499990 -0.263791
O17   O     O_R   0.176750 0.985260 0.074180 -0.529861
O18   O     O_R   0.014740 0.191490 0.074180 -0.494945
O19   O     O_R   0.808510 0.823250 0.074180 -0.517442
O20   O     O_R   0.146100 0.172630 0.068980 -0.479418
O21   O     O_R   0.827370 0.973470 0.068980 -0.516938
O22   O     O_R   0.026530 0.853900 0.068980 -0.488339
O23   O     O_3   0.000000 0.000000 0.020040 -0.284296
O24   O     O_R   0.148270 0.170520 0.969620 -0.490844
O25   O     O_R   0.829480 0.977750 0.969620 -0.518792
O26   O     O_R   0.022250 0.851730 0.969620 -0.485001
O27   O     O_3   0.841805 0.894708 0.702297 -0.681454
H55   H     H_    0.848623 0.917883 0.667514 0.343882
O28   O     O_3   0.068712 0.940902 0.688114 -0.690319
H56   H     H_    0.046967 0.917401 0.653710 0.326293
O29   O     O_3   0.014014 0.138295 0.687314 -0.697051
H57   H     H_    0.032340 0.132430 0.652731 0.330119
O30   O     O_3   0.549125 0.646574 0.816478 -0.584319
C97   C     C_3   0.571946 0.596667 0.856703 0.008255
H58   H     H_    0.504758 0.574283 0.884040 0.164789
H59   H     H_    0.651257 0.652509 0.875686 0.132762
C98   C     C_3   0.572040 0.491935 0.840741 -0.280915
H60   H     H_    0.492395 0.435975 0.822337 0.164311
H61   H     H_    0.640480 0.513093 0.814257 0.143028
C99   C     C_3   0.586964 0.432973 0.884796 -0.485745
H62   H     H_    0.667979 0.486639 0.902862 0.153752
H63   H     H_    0.585111 0.356363 0.872880 0.139405
H64   H     H_    0.518832 0.410699 0.911611 0.156198
O31   O     O_3   0.334508 0.963403 0.810828 -0.575294
C100  C     C_3   0.421179 0.072707 0.818843 0.005405
H65   H     H_    0.469767 0.070284 0.850739 0.162191
H66   H     H_    0.389733 0.129359 0.829336 0.113703
C101  C     C_3   0.499261 0.117303 0.774502 -0.282969
H67   H     H_    0.523647 0.056106 0.763090 0.163859
H68   H     H_    0.456251 0.131813 0.743494 0.140403
C102  C     C_3   0.603813 0.225505 0.786026 -0.491482
H69   H     H_    0.581915 0.290387 0.793564 0.146228
H70   H     H_    0.660629 0.251668 0.754023 0.145227
H71   H     H_    0.647678 0.215680 0.818040 0.144173
O32   O     O_3   0.091309 0.413542 0.815946 -0.575025
C103  C     C_3   0.000347 0.408086 0.841882 0.010042
H72   H     H_    0.035098 0.473485 0.870201 0.169934
H73   H     H_    0.952547 0.328579 0.861849 0.128059
C104  C     C_3   0.924316 0.429109 0.807912 -0.288251
H74   H     H_    0.975528 0.499253 0.783222 0.167685
H75   H     H_    0.874192 0.355541 0.784852 0.136267
C105  C     C_3   0.845861 0.454713 0.836971 -0.488653
H76   H     H_    0.793984 0.385615 0.862114 0.148834
H77   H     H_    0.790682 0.466898 0.811313 0.143151
H78   H     H_    0.893618 0.531111 0.858652 0.148554

loop_
_geom_bond_atom_site_label_1
_geom_bond_atom_site_label_2
_ccdc_geom_bond_type
C39   C42   A    
C15   C18   T    
C43   C46   A    
C10   C85   T    
C97   H58   S    
C82   C94   S    
Cr3   O3    S    
C2    C18   S    
C33   C45   A    
C100  H65   S    
C48   C75   A    
Cr2   O14   S    
C104  H74   S    
C27   C78   A    
C25   H16   S    
C82   H43   S    
C6    C9    S    
C53   C59   A    
Cr1   O13   S    
C54   C60   A    
C27   H18   S    
C25   C28   A    
C67   C88   S    
C33   C39   A    
Cr1   O16   S    
C31   C43   A    
C60   C63   A    
C8    H50   S    
C23   O25   A    
C37   C40   A    
C69   C93   S    
C104  H75   S    
C34   C77   S    
C64   C70   A    
C50   H38   S    
C45   C48   A    
C20   O19   A    
Cr3   O15   S    
C28   C40   A    
C11   C86   T    
C11   C95   S    
Cr1   O10   S    
C30   C57   A    
C35   O10   A    
C39   H21   S    
C79   C82   S    
C84   C96   S    
C80   C89   S    
C8    H53   S    
C19   O20   A    
C6    H12   S    
C36   C76   S    
C33   C72   A    
C93   H3    S    
C28   C55   A    
C31   C70   A    
C66   C72   A    
Cr2   O2    S    
C9    H54   S    
O31   C100  S    
Cr1   O7    S    
Cr4   O20   S    
C3    O2    A    
C64   C73   A    
C103  C104  S    
C26   C29   A    
C68   H5    S    
C32   C38   A    
C32   C71   A    
Cr2   O11   S    
C97   C98   S    
C44   C47   A    
Cr6   O6    S    
C23   O6    A    
C43   H13   S    
C49   C52   A    
C58   C61   A    
C4    H10   S    
C63   C66   A    
C9    H51   S    
C27   C30   A    
Cr6   O23   S    
C100  H66   S    
C14   C17   T    
C68   H35   S    
C80   C83   S    
C34   O12   A    
C4    O30   S    
C79   C88   S    
C5    C95   S    
C69   H6    S    
C5    O31   S    
C51   H39   S    
C58   H31   S    
C40   H22   S    
C74   H26   S    
C50   C53   A    
C24   O26   A    
C102  H69   S    
C26   C77   A    
C41   H23   S    
C1    O3    A    
C26   H17   S    
C38   C41   A    
C22   O24   A    
C104  C105  S    
C2    O8    A    
C22   O5    A    
C98   H61   S    
C19   C48   S    
C6    O32   S    
C59   C62   A    
C4    C7    S    
Cr6   O19   S    
C73   H25   S    
C36   O11   A    
C65   C74   A    
C31   C37   A    
Cr6   O26   S    
C61   C64   A    
O27   H55   S    
C14   C89   S    
C63   H30   S    
Cr5   O23   S    
C102  H71   S    
C83   H44   S    
Cr4   O4    S    
C105  H77   S    
C7    C88   S    
C101  C102  S    
C80   O28   S    
C80   H41   S    
C83   C95   S    
Cr3   O9    S    
C67   C91   S    
C68   C89   S    
C32   C44   A    
C49   C76   A    
C22   C87   S    
C103  H72   S    
C60   H33   S    
C44   H14   S    
C38   H20   S    
C34   O13   A    
C52   C58   A    
C61   H28   S    
C93   H9    S    
C7    H49   S    
C81   C90   S    
C99   H63   S    
C21   O22   A    
C103  H73   S    
C93   C96   S    
C21   O17   A    
C49   H37   S    
Cr6   O22   S    
C100  C101  S    
C37   H19   S    
C42   H24   S    
C69   C90   S    
Cr4   O24   S    
C50   C77   A    
C81   C84   S    
Cr5   O18   S    
C3    O9    A    
C105  H78   S    
Cr3   O12   S    
C84   H45   S    
C45   H15   S    
C69   H36   S    
C36   O15   A    
C97   H59   S    
C59   H32   S    
C62   C65   A    
C5    H11   S    
C1    C17   S    
C62   H29   S    
C105  H76   S    
C30   C42   A    
C47   C74   A    
C91   H1    S    
C99   H62   S    
C91   C94   S    
C9    C90   S    
C5    C8    S    
C82   H46   S    
C52   C55   A    
C67   H4    S    
C20   O21   A    
Cr3   O16   S    
C29   C56   A    
C35   C78   S    
C6    C96   S    
C51   C54   A    
Cr2   O8    S    
C91   H7    S    
Cr5   O5    S    
C67   H34   S    
C51   C78   A    
Cr2   O16   S    
O29   H57   S    
C12   C87   T    
C65   C71   A    
C98   C99   S    
C101  H68   S    
C92   H8    S    
O28   H56   S    
C4    C94   S    
C7    H52   S    
C2    O1    A    
C66   C75   A    
C13   C88   S    
C68   C92   S    
C79   O27   S    
C92   C95   S    
C57   C72   A    
O30   C97   S    
C81   H42   S    
Cr5   O25   S    
C53   C56   A    
C19   O18   A    
C55   C70   A    
Cr5   O21   S    
C92   H2    S    
O32   C103  S    
C79   H40   S    
C24   O4    A    
C83   H47   S    
C101  H67   S    
C1    O7    A    
C25   C76   A    
C98   H60   S    
C23   C85   S    
C13   C16   T    
Cr4   O17   S    
C102  H70   S    
C35   O14   A    
C10   C94   S    
C29   C41   A    
C12   C96   S    
C8    C89   S    
C21   C47   S    
Cr4   O23   S    
C24   C86   S    
C81   O29   S    
C46   C73   A    
C20   C46   S    
C3    C16   S    
C75   H27   S    
C56   C71   A    
Cr1   O1    S    
C99   H64   S    
C15   C90   S    
C54   C57   A    
C84   H48   S    
