data_mof_unit_21101.cif
_audit_creation_date              2012-12-10T18:35:23-0500
_audit_creation_method            fapswitch 2.2
_symmetry_space_group_name_H-M    P1
_symmetry_Int_Tables_number       1
_space_group_crystal_system       triclinic
_cell_length_a                    14.984512
_cell_length_b                    15.48026
_cell_length_c                    16.918887
_cell_angle_alpha                 91.870938
_cell_angle_beta                  100.316021
_cell_angle_gamma                 97.32024
_cell_volume                      3823.47275141

loop_
_atom_site_label
_atom_site_type_symbol
_atom_type_description
_atom_site_fract_x
_atom_site_fract_y
_atom_site_fract_z
_atom_type_partial_charge
C1    C     C_R   0.557117 0.662258 0.509269 0.876824
C2    C     C_R   0.443068 0.337616 0.486648 0.871611
C3    C     C_R   0.591043 0.753776 0.501486 -0.057845
C4    C     C_R   0.410266 0.245148 0.466479 -0.059393
C5    C     C_R   0.712877 0.870789 0.495836 -0.189849
C6    C     C_R   0.290014 0.125905 0.417843 -0.184403
C7    C     C_R   0.684597 0.783941 0.509124 -0.182921
C8    C     C_R   0.317200 0.214065 0.440685 -0.177270
C9    C     C_R   0.526624 0.810105 0.478856 -0.256745
C10   C     C_R   0.475432 0.188277 0.467411 -0.250306
C11   C     C_R   0.553013 0.895917 0.461587 0.094265
C12   C     C_R   0.450258 0.100721 0.441731 0.096595
C13   C     C_R   0.647731 0.927404 0.473553 0.173914
C14   C     C_R   0.355799 0.068701 0.419662 0.173308
C15   C     C_R   0.487180 0.952634 0.438669 0.072162
C16   C     C_R   0.516691 0.043199 0.443591 0.071221
C17   C     C_R   0.611479 0.072970 0.451800 -0.217845
C18   C     C_R   0.392901 0.922112 0.412538 -0.218712
C19   C     C_R   0.675838 0.015300 0.464919 -0.222761
C20   C     C_R   0.328445 0.979795 0.401674 -0.218395
C21   C     C_R   0.167217 0.637780 0.383323 -0.304602
C22   C     C_R   0.832970 0.362685 0.617069 -0.303883
C23   C     C_R   0.511961 0.500828 0.350174 0.868072
C24   C     C_R   0.488143 0.499462 0.649888 0.873340
C25   C     C_R   0.254593 0.614717 0.402068 0.025459
C26   C     C_R   0.745540 0.385580 0.598207 0.023318
C27   C     C_R   0.206684 0.509597 0.490288 -0.057440
C28   C     C_R   0.793263 0.490341 0.509600 -0.057776
C29   C     C_R   0.116369 0.529900 0.474014 -0.000842
C30   C     C_R   0.883669 0.470298 0.526089 -0.000463
C31   C     C_R   0.097731 0.595580 0.419152 0.178230
C32   C     C_R   0.902393 0.404805 0.581133 0.175243
C33   C     C_R   0.044852 0.487847 0.510023 0.082161
C34   C     C_R   0.955206 0.512434 0.490144 0.082680
C35   C     C_R   0.940092 0.578247 0.435128 -0.232701
C36   C     C_R   0.060028 0.422204 0.565207 -0.232404
C37   C     C_R   0.010155 0.618806 0.400490 -0.198392
C38   C     C_R   0.990009 0.381721 0.599925 -0.198344
C39   C     C_R   0.522124 0.514975 0.267818 -0.034202
C40   C     C_R   0.478553 0.486947 0.732642 -0.038879
C41   C     C_R   0.592754 0.482633 0.236648 -0.162026
C42   C     C_R   0.538669 0.439115 0.780732 -0.159307
C43   C     C_R   0.600149 0.494862 0.157114 -0.128485
C44   C     C_R   0.531120 0.427990 0.860146 -0.051327
C45   C     C_R   0.537191 0.539542 0.109386 0.119376
C46   C     C_R   0.464616 0.465883 0.891819 0.122053
C47   C     C_R   0.471263 0.577595 0.141748 -0.052254
C48   C     C_R   0.400830 0.508923 0.843241 -0.127792
C49   C     C_R   0.463146 0.564727 0.220791 -0.158332
C50   C     C_R   0.407651 0.519387 0.763347 -0.162604
C51   C     C_2   0.530795 0.534634 0.023169 0.194464
C52   C     C_2   0.470426 0.471409 0.977961 0.194128
H1    H     H_    0.639930 0.445540 0.272698 0.158281
H2    H     H_    0.592220 0.411401 0.757422 0.152117
H3    H     H_    0.637487 0.140465 0.446651 0.153416
H4    H     H_    0.367469 0.853867 0.398567 0.142683
H5    H     H_    0.995554 0.668975 0.358641 0.149894
H6    H     H_    0.004679 0.331723 0.641943 0.151356
H7    H     H_    0.771630 0.538588 0.468785 0.126115
H8    H     H_    0.228216 0.461096 0.530848 0.126576
H9    H     H_    0.690996 0.353573 0.625350 0.130785
H10   H     H_    0.309206 0.646864 0.375079 0.124317
H11   H     H_    0.154104 0.688144 0.341398 0.147445
H12   H     H_    0.846193 0.312544 0.659209 0.151822
H13   H     H_    0.874704 0.600502 0.417215 0.139580
H14   H     H_    0.125469 0.400121 0.583305 0.140335
H15   H     H_    0.359694 0.555128 0.726573 0.159864
H16   H     H_    0.409976 0.592542 0.244605 0.150695
H17   H     H_    0.422889 0.612505 0.104424 0.149789
H18   H     H_    0.349324 0.538150 0.868312 0.149226
H19   H     H_    0.580114 0.394311 0.898141 0.149377
H20   H     H_    0.651190 0.465485 0.131503 0.149316
H21   H     H_    0.747920 0.040256 0.471853 0.150381
H22   H     H_    0.256690 0.954313 0.382641 0.148747
H23   H     H_    0.546080 0.212750 0.491133 0.159750
H24   H     H_    0.455422 0.786751 0.477399 0.162065
H25   H     H_    0.265724 0.257533 0.438524 0.161900
H26   H     H_    0.735567 0.740752 0.525395 0.161038
H27   H     H_    0.785459 0.893904 0.503752 0.141174
H28   H     H_    0.217704 0.102251 0.399801 0.142186
N1    N     N_R   0.271750 0.551950 0.454510 -0.099842
N2    N     N_R   0.728250 0.448050 0.545490 -0.101097
O1    O     O_R   0.615140 0.606020 0.522930 -0.614228
O2    O     O_R   0.384860 0.393980 0.477070 -0.615434
O3    O     O_R   0.468580 0.639400 0.493740 -0.624626
O4    O     O_R   0.531420 0.360600 0.506260 -0.625749
O5    O     O_R   0.581950 0.481350 0.400520 -0.625203
O6    O     O_R   0.418050 0.518650 0.599480 -0.622272
O7    O     O_R   0.435380 0.514730 0.371330 -0.613533
O8    O     O_R   0.564620 0.485270 0.628670 -0.611688
Zn1   Zn    Zn3+2 0.597860 0.477710 0.519490 0.953284
Zn2   Zn    Zn3+2 0.402140 0.522290 0.480510 0.954402
S1    S     S_3+6 0.397085 0.392165 0.018259 0.028516
O9    O     O_2   0.452150 0.346178 0.082783 -0.245721
O10   O     O_2   0.328078 0.435534 0.053957 -0.305783
O11   O     O_3   0.341719 0.317971 0.945264 -0.507457
H29   H     H_    0.295728 0.348688 0.911901 0.352818
S2    S     S_3+6 0.603843 0.614066 0.982823 0.028770
O12   O     O_2   0.673767 0.571059 0.948104 -0.305669
O13   O     O_2   0.548712 0.659027 0.917525 -0.244850
O14   O     O_3   0.657979 0.689111 0.055537 -0.507426
H30   H     H_    0.703892 0.658965 0.089649 0.352634

loop_
_geom_bond_atom_site_label_1
_geom_bond_atom_site_label_2
_ccdc_geom_bond_type
C15   C18   A    
C43   H20   S    
C49   H16   S    
O5    Zn1   S    
C27   C29   A    
C2    O2    A    
C4    C8    A    
C39   C41   A    
C21   C31   A    
S1    O9    D    
C22   C32   A    
C35   C37   A    
C26   H9    S    
C3    C7    A    
C27   H8    S    
C36   H14   S    
C45   C51   S    
C15   C16   A    
C46   C52   S    
C33   C36   A    
C44   H19   S    
C34   C35   A    
C47   H17   S    
C24   C40   S    
C38   H6    S    
N1    Zn2   S    
C11   C15   A    
C12   C16   A    
C29   C33   A    
C16   C17   A    
C23   O7    A    
C9    H24   S    
C32   C38   A    
C5    H27   S    
C50   H15   S    
C17   H3    S    
C5    C13   A    
C18   H4    S    
C51   S2    S    
C40   C42   A    
C26   N2    A    
C23   O5    A    
C25   N1    A    
C41   C43   A    
C42   C44   A    
O3    Zn2   S    
C44   C46   A    
C45   C47   A    
C1    O3    A    
C46   C48   A    
C30   C34   A    
C28   N2    A    
C51   C52   D    
O14   H30   S    
C14   C20   A    
C27   N1    A    
C47   C49   A    
C5    C7    A    
C13   C19   A    
C6    C8    A    
N2    Zn1   S    
C31   C37   A    
C1    C3    S    
C2    C4    S    
C3    C9    A    
C6    C14   A    
C24   O6    A    
C10   H23   S    
C6    H28   S    
C19   H21   S    
O11   H29   S    
C33   C34   A    
C20   H22   S    
C52   S1    S    
O6    Zn2   S    
O7    Zn2   S    
C43   C45   A    
C41   H1    S    
C10   C12   A    
C7    H26   S    
C39   C49   A    
C12   C14   A    
S1    O11   S    
S2    O13   D    
C9    C11   A    
C8    H25   S    
C4    C10   A    
C36   C38   A    
C28   H7    S    
C21   C25   A    
C48   H18   S    
C24   O8    A    
C1    O1    A    
S2    O14   S    
O1    Zn1   S    
O4    Zn1   S    
C28   C30   A    
C29   C31   A    
C42   H2    S    
C30   C32   A    
C11   C13   A    
O8    Zn1   S    
C40   C50   A    
C48   C50   A    
C17   C19   A    
C2    O4    A    
C18   C20   A    
C25   H10   S    
C21   H11   S    
C22   H12   S    
S1    O10   D    
S2    O12   D    
C22   C26   A    
C35   H13   S    
O2    Zn2   S    
C23   C39   S    
C37   H5    S    
