data_mof_unit_65156.cif
_audit_creation_date              2012-12-10T19:48:20-0500
_audit_creation_method            fapswitch 2.2
_symmetry_space_group_name_H-M    P1
_symmetry_Int_Tables_number       1
_space_group_crystal_system       tetragonal
_cell_length_a                    18.260709
_cell_length_b                    18.260709
_cell_length_c                    30.308993
_cell_angle_alpha                 90.0
_cell_angle_beta                  90.0
_cell_angle_gamma                 90.0
_cell_volume                      10106.6395907

loop_
_atom_site_label
_atom_site_type_symbol
_atom_type_description
_atom_site_fract_x
_atom_site_fract_y
_atom_site_fract_z
_atom_type_partial_charge
C1    C     C_R   0.141278 0.500000 0.000000 0.935534
C2    C     C_1   0.500000 0.217817 0.000000 -0.167455
C3    C     C_R   0.095055 0.593729 0.772789 -0.199478
C4    C     C_R   0.406271 0.904945 0.227211 -0.199478
C5    C     C_R   0.904945 0.593729 0.227211 -0.199477
C6    C     C_R   0.593729 0.095055 0.227211 -0.199478
C7    C     C_R   0.095055 0.406271 0.227211 -0.199478
C8    C     C_1   0.088055 0.396545 0.366949 0.180100
C9    C     C_1   0.603455 0.088055 0.366949 0.180100
C10   C     C_1   0.911945 0.603455 0.366949 0.180100
C11   C     C_1   0.396545 0.911945 0.366949 0.180101
C12   C     C_1   0.088055 0.603455 0.633051 0.180100
C13   C     C_1   0.782183 0.500000 0.000000 -0.167455
C14   C     C_1   0.603455 0.911945 0.633051 0.180100
C15   C     C_1   0.911945 0.396545 0.633051 0.180100
C16   C     C_1   0.396545 0.088055 0.633051 0.180100
C17   C     C_1   0.588055 0.896545 0.866949 0.180100
C18   C     C_1   0.103455 0.588055 0.866949 0.180100
C19   C     C_1   0.411945 0.103455 0.866949 0.180100
C20   C     C_1   0.896545 0.411945 0.866949 0.180101
C21   C     C_1   0.588055 0.103455 0.133051 0.180100
C22   C     C_1   0.103455 0.411945 0.133051 0.180100
C23   C     C_1   0.411945 0.896545 0.133051 0.180100
C24   C     C_1   0.500000 0.782183 0.000000 -0.167455
C25   C     C_1   0.896545 0.588055 0.133051 0.180100
C26   C     C_1   0.717817 0.000000 0.500000 -0.167455
C27   C     C_1   0.000000 0.717817 0.500000 -0.167455
C28   C     C_1   0.282183 0.000000 0.500000 -0.167455
C29   C     C_1   0.000000 0.282183 0.500000 -0.167455
C30   C     C_R   0.000000 0.500000 0.086780 0.900674
C31   C     C_R   0.500000 0.000000 0.086780 0.900674
C32   C     C_R   0.000000 0.500000 0.913219 0.900675
C33   C     C_R   0.500000 0.141278 0.000000 0.935534
C34   C     C_R   0.500000 1.000000 0.913219 0.900675
C35   C     C_R   0.500000 1.000000 0.586781 0.900674
C36   C     C_R   1.000000 0.500000 0.586781 0.900674
C37   C     C_R   0.500000 0.000000 0.413219 0.900675
C38   C     C_R   0.000000 0.500000 0.413219 0.900675
C39   C     C_1   0.282650 0.500000 0.000000 -0.166165
C40   C     C_1   0.500000 0.282650 0.000000 -0.166165
C41   C     C_1   0.717350 0.500000 0.000000 -0.166165
C42   C     C_1   0.500000 0.717350 0.000000 -0.166165
C43   C     C_1   0.782650 0.000000 0.500000 -0.166165
C44   C     C_R   0.858722 0.500000 0.000000 0.935534
C45   C     C_1   0.000000 0.782650 0.500000 -0.166165
C46   C     C_1   0.217350 0.000000 0.500000 -0.166165
C47   C     C_1   1.000000 0.217350 0.500000 -0.166165
C48   C     C_R   0.500000 0.359201 0.000000 0.918547
C49   C     C_R   0.640799 0.500000 0.000000 0.918546
C50   C     C_R   0.500000 0.640799 0.000000 0.918546
C51   C     C_R   0.359201 0.500000 0.000000 0.918547
C52   C     C_R   0.000000 0.859201 0.500000 0.918547
C53   C     C_R   0.140799 0.000000 0.500000 0.918546
C54   C     C_R   0.000000 0.140799 0.500000 0.918546
C55   C     C_R   0.500000 0.858722 0.000000 0.935534
C56   C     C_R   0.859201 0.000000 0.500000 0.918547
C57   C     C_R   0.045242 0.450309 0.342643 -0.080098
C58   C     C_R   0.549691 0.045242 0.342643 -0.080098
C59   C     C_R   0.954758 0.549691 0.342643 -0.080098
C60   C     C_R   0.450309 0.954758 0.342643 -0.080098
C61   C     C_R   0.045242 0.549691 0.657357 -0.080098
C62   C     C_R   0.549691 0.954758 0.657357 -0.080098
C63   C     C_R   0.954758 0.450309 0.657357 -0.080098
C64   C     C_R   0.450309 0.045242 0.657357 -0.080098
C65   C     C_R   0.545242 0.950309 0.842643 -0.080098
C66   C     C_R   0.641278 0.000000 0.500000 0.935534
C67   C     C_R   0.049691 0.545242 0.842643 -0.080098
C68   C     C_R   0.454758 0.049691 0.842643 -0.080098
C69   C     C_R   0.950309 0.454758 0.842643 -0.080098
C70   C     C_R   0.545242 0.049691 0.157357 -0.080098
C71   C     C_R   0.049691 0.454758 0.157357 -0.080098
C72   C     C_R   0.454758 0.950309 0.157357 -0.080098
C73   C     C_R   0.950309 0.545242 0.157357 -0.080098
C74   C     C_R   0.000000 0.500000 0.365377 -0.159649
C75   C     C_R   0.500000 0.000000 0.365377 -0.159649
C76   C     C_R   1.000000 0.500000 0.634623 -0.159649
C77   C     C_R   0.000000 0.641278 0.500000 0.935534
C78   C     C_R   0.500000 1.000000 0.634623 -0.159649
C79   C     C_R   0.500000 1.000000 0.865377 -0.159649
C80   C     C_R   0.000000 0.500000 0.865377 -0.159649
C81   C     C_R   0.500000 0.000000 0.134623 -0.159649
C82   C     C_R   1.000000 0.500000 0.134623 -0.159649
C83   C     C_R   0.953294 0.548533 0.296422 0.072568
C84   C     C_R   0.451467 0.953294 0.296422 0.072568
C85   C     C_R   0.046706 0.451467 0.296422 0.072568
C86   C     C_R   0.548533 0.046706 0.296422 0.072568
C87   C     C_R   0.953294 0.451467 0.703578 0.072568
C88   C     C_R   0.358722 0.000000 0.500000 0.935534
C89   C     C_R   0.451467 0.046706 0.703578 0.072568
C90   C     C_R   0.046706 0.548533 0.703578 0.072568
C91   C     C_R   0.548533 0.953294 0.703578 0.072568
C92   C     C_R   0.453294 0.048533 0.796422 0.072568
C93   C     C_R   0.951467 0.453294 0.796422 0.072568
C94   C     C_R   0.546706 0.951467 0.796422 0.072568
C95   C     C_R   0.048533 0.546706 0.796422 0.072568
C96   C     C_R   0.453294 0.951467 0.203578 0.072568
C97   C     C_R   0.951467 0.546706 0.203578 0.072568
C98   C     C_R   0.546706 0.048533 0.203578 0.072568
C99   C     C_R   0.000000 0.358722 0.500000 0.935534
C100  C     C_R   0.048533 0.453294 0.203578 0.072568
C101  C     C_R   0.000000 0.500000 0.273258 0.049083
C102  C     C_R   0.500000 0.000000 0.273258 0.049083
C103  C     C_R   1.000000 0.500000 0.726742 0.049083
C104  C     C_R   0.500000 1.000000 0.726742 0.049083
C105  C     C_R   0.500000 0.000000 0.773258 0.049083
C106  C     C_R   1.000000 0.500000 0.773258 0.049083
C107  C     C_R   0.500000 0.000000 0.226742 0.049083
C108  C     C_R   0.000000 0.500000 0.226742 0.049083
C109  C     C_R   0.906271 0.595055 0.272789 -0.199477
C110  C     C_1   0.217817 0.500000 0.000000 -0.167455
C111  C     C_R   0.404945 0.906271 0.272789 -0.199478
C112  C     C_R   0.093729 0.404945 0.272789 -0.199478
C113  C     C_R   0.595055 0.093729 0.272789 -0.199478
C114  C     C_R   0.906271 0.404945 0.727211 -0.199478
C115  C     C_R   0.404945 0.093729 0.727211 -0.199477
C116  C     C_R   0.093729 0.595055 0.727211 -0.199478
C117  C     C_R   0.595055 0.906271 0.727211 -0.199478
C118  C     C_R   0.406271 0.095055 0.772789 -0.199477
C119  C     C_R   0.904945 0.406271 0.772789 -0.199478
C120  C     C_R   0.593729 0.904945 0.772789 -0.199478
H1    H     H_    0.869453 0.632611 0.289265 0.161535
H2    H     H_    0.867389 0.369453 0.789265 0.161535
H3    H     H_    0.630547 0.867389 0.789265 0.161535
H4    H     H_    0.132611 0.630547 0.789265 0.161535
H5    H     H_    0.369453 0.867389 0.210735 0.161535
H6    H     H_    0.867389 0.630547 0.210735 0.161535
H7    H     H_    0.630547 0.132611 0.210735 0.161535
H8    H     H_    0.132611 0.369453 0.210735 0.161535
H9    H     H_    0.367389 0.869453 0.289265 0.161535
H10   H     H_    0.130547 0.367389 0.289265 0.161535
H11   H     H_    0.632611 0.130547 0.289265 0.161535
H12   H     H_    0.869453 0.367389 0.710735 0.161535
H13   H     H_    0.367389 0.130547 0.710735 0.161535
H14   H     H_    0.130547 0.632611 0.710735 0.161535
H15   H     H_    0.632611 0.869453 0.710735 0.161535
H16   H     H_    0.369453 0.132611 0.789265 0.161535
N1    N     N_1   0.122015 0.353745 0.386312 -0.190756
N2    N     N_1   0.146255 0.622015 0.886312 -0.190756
N3    N     N_1   0.377985 0.146254 0.886312 -0.190756
N4    N     N_1   0.853745 0.377985 0.886312 -0.190757
N5    N     N_1   0.622015 0.146255 0.113688 -0.190757
N6    N     N_1   0.146254 0.377985 0.113688 -0.190757
N7    N     N_1   0.377985 0.853745 0.113688 -0.190757
N8    N     N_1   0.853746 0.622015 0.113688 -0.190757
N9    N     N_1   0.646254 0.122015 0.386312 -0.190756
N10   N     N_1   0.877985 0.646254 0.386312 -0.190756
N11   N     N_1   0.353745 0.877985 0.386312 -0.190757
N12   N     N_1   0.122015 0.646254 0.613688 -0.190757
N13   N     N_1   0.646254 0.877985 0.613688 -0.190757
N14   N     N_1   0.877985 0.353745 0.613688 -0.190757
N15   N     N_1   0.353745 0.122015 0.613688 -0.190757
N16   N     N_1   0.622015 0.853746 0.886312 -0.190756
O1    O     O_R   0.107310 0.560570 0.000010 -0.615555
O2    O     O_R   0.939430 0.607310 0.500010 -0.615554
O3    O     O_R   0.392690 0.939430 0.500010 -0.615554
O4    O     O_R   0.060570 0.392690 0.500010 -0.615554
O5    O     O_R   0.607310 0.939430 0.499990 -0.615554
O6    O     O_R   0.939430 0.392690 0.499990 -0.615554
O7    O     O_R   0.392690 0.060570 0.499990 -0.615554
O8    O     O_R   0.060570 0.607310 0.499990 -0.615555
O9    O     O_R   0.999950 0.560580 0.066080 -0.617183
O10   O     O_R   0.439420 0.999950 0.066080 -0.617183
O11   O     O_R   0.000050 0.439420 0.066080 -0.617183
O12   O     O_R   0.439430 0.107310 0.000010 -0.615554
O13   O     O_R   0.560580 0.000050 0.066080 -0.617183
O14   O     O_R   0.999950 0.439420 0.933920 -0.617183
O15   O     O_R   0.439420 0.000050 0.933920 -0.617183
O16   O     O_R   0.000050 0.560580 0.933920 -0.617183
O17   O     O_R   0.560580 0.999950 0.933920 -0.617183
O18   O     O_R   0.499950 0.060580 0.566080 -0.617183
O19   O     O_R   0.939420 0.499950 0.566080 -0.617183
O20   O     O_R   0.500050 0.939420 0.566080 -0.617183
O21   O     O_R   0.060580 0.500050 0.566080 -0.617183
O22   O     O_R   0.499950 0.939420 0.433920 -0.617183
O23   O     O_R   0.892690 0.439430 0.000010 -0.615554
O24   O     O_R   0.939420 0.500050 0.433920 -0.617183
O25   O     O_R   0.500050 0.060580 0.433920 -0.617183
O26   O     O_R   0.060580 0.499950 0.433920 -0.617183
O27   O     O_R   0.499980 0.392670 0.037330 -0.615934
O28   O     O_R   0.607330 0.499980 0.037330 -0.615934
O29   O     O_R   0.500020 0.607330 0.037330 -0.615934
O30   O     O_R   0.392670 0.500020 0.037330 -0.615934
O31   O     O_R   0.499980 0.607330 0.962670 -0.615933
O32   O     O_R   0.607330 0.500020 0.962670 -0.615933
O33   O     O_R   0.500020 0.392670 0.962670 -0.615933
O34   O     O_R   0.560570 0.892690 0.000010 -0.615554
O35   O     O_R   0.392670 0.499980 0.962670 -0.615933
O36   O     O_R   0.999980 0.892670 0.537330 -0.615934
O37   O     O_R   0.107330 0.999980 0.537330 -0.615934
O38   O     O_R   0.000020 0.107330 0.537330 -0.615934
O39   O     O_R   0.892670 0.000020 0.537330 -0.615934
O40   O     O_R   0.999980 0.107330 0.462670 -0.615933
O41   O     O_R   0.107330 0.000020 0.462670 -0.615933
O42   O     O_R   0.000020 0.892670 0.462670 -0.615933
O43   O     O_R   0.892670 0.999980 0.462670 -0.615933
O44   O     O_R   0.107310 0.439430 0.999990 -0.615554
O45   O     O_R   0.439430 0.892690 0.999990 -0.615554
O46   O     O_R   0.892690 0.560570 0.999990 -0.615554
O47   O     O_R   0.560570 0.107310 0.999990 -0.615555
O48   O     O_R   0.607310 0.060570 0.500010 -0.615555
Zn1   Zn    Zn3+2 0.000000 0.580890 0.000000 1.003841
Zn2   Zn    Zn3+2 0.500000 0.500000 0.950170 0.990380
Zn3   Zn    Zn3+2 0.000000 0.000000 0.549830 0.990380
Zn4   Zn    Zn3+2 0.000000 0.000000 0.450170 0.990380
Zn5   Zn    Zn3+2 0.419110 0.000000 0.000000 1.003842
Zn6   Zn    Zn3+2 0.000000 0.419110 0.000000 1.003841
Zn7   Zn    Zn3+2 0.580890 0.000000 0.000000 1.003841
Zn8   Zn    Zn3+2 0.500000 0.080890 0.500000 1.003841
Zn9   Zn    Zn3+2 0.919110 0.500000 0.500000 1.003842
Zn10  Zn    Zn3+2 0.500000 0.919110 0.500000 1.003841
Zn11  Zn    Zn3+2 0.080890 0.500000 0.500000 1.003841
Zn12  Zn    Zn3+2 0.500000 0.500000 0.049830 0.990380

loop_
_geom_bond_atom_site_label_1
_geom_bond_atom_site_label_2
_ccdc_geom_bond_type
O33   Zn2   S    
C39   C51   S    
C89   C115  A    
C94   C105  A    
C44   O46   A    
C38   O26   A    
C32   O14   A    
C84   C102  A    
C16   N15   T    
C22   C71   S    
O45   Zn5   S    
C50   O31   A    
C44   O23   A    
C91   C104  A    
O23   Zn6   S    
C85   C112  A    
C11   N11   T    
C13   C41   T    
C85   C101  A    
O7    Zn8   S    
C113  H11   S    
O24   Zn9   S    
C24   C55   S    
C73   C97   A    
O35   Zn2   S    
C28   C46   T    
O41   Zn4   S    
C54   O40   A    
C4    H5    S    
C29   C47   T    
C86   C113  A    
C65   C79   A    
O15   Zn5   S    
O9    Zn1   S    
C59   C83   A    
C6    H7    S    
O2    Zn9   S    
O20   Zn10  S    
O12   Zn5   S    
C93   C106  A    
O38   Zn3   S    
C55   O34   A    
C14   C62   S    
C116  H14   S    
C63   C76   A    
C33   O47   A    
C71   C100  A    
C49   O32   A    
C24   C42   T    
O16   Zn1   S    
C14   N13   T    
O28   Zn12  S    
C9    C58   S    
C88   O7    A    
C18   N2    T    
C70   C81   A    
C92   C118  A    
C87   C114  A    
C36   C76   S    
C37   O22   A    
C4    C96   A    
C97   C108  A    
C94   C120  A    
C111  H9    S    
C39   C110  T    
C31   O13   A    
C114  H12   S    
C5    H6    S    
C28   C88   S    
C12   N12   T    
C83   C109  A    
C90   C116  A    
C7    H8    S    
C93   C119  A    
C54   O38   A    
O30   Zn12  S    
C72   C81   A    
C120  H3    S    
C49   O28   A    
C51   O30   A    
C68   C79   A    
C37   C75   S    
C56   O39   A    
C36   O21   A    
O48   Zn8   S    
C61   C90   A    
C99   O4    A    
O4    Zn11  S    
C67   C95   A    
C35   O20   A    
C23   N7    T    
O21   Zn11  S    
O39   Zn3   S    
C64   C89   A    
C58   C86   A    
C41   C49   S    
C104  C105  A    
C58   C75   A    
O1    Zn1   S    
C25   N8    T    
O36   Zn3   S    
C61   C76   A    
C100  C108  A    
C84   C111  A    
O32   Zn2   S    
C7    C100  A    
C29   C99   S    
C26   C66   S    
C88   O3    A    
C19   C68   S    
C1    O44   A    
C52   O42   A    
O47   Zn7   S    
C117  C120  A    
O43   Zn4   S    
C115  H13   S    
C45   C52   S    
C18   C67   S    
O27   Zn12  S    
O37   Zn3   S    
C98   C107  A    
C8    N1    T    
C57   C74   A    
C30   C82   S    
C30   O11   A    
C6    C113  A    
O18   Zn8   S    
C95   C106  A    
C77   O2    A    
C32   C80   S    
C56   O43   A    
C43   C56   S    
C38   O24   A    
C17   N16   T    
C115  C118  A    
O42   Zn4   S    
C62   C91   A    
C33   O12   A    
O46   Zn1   S    
C91   C117  A    
O40   Zn4   S    
C102  C107  A    
C8    C57   S    
C13   C44   S    
C1    O1    A    
O13   Zn7   S    
C59   C74   A    
C34   O17   A    
C42   C50   S    
C47   C54   S    
C87   C103  A    
O34   Zn7   S    
C2    C33   S    
C26   C43   T    
C4    C111  A    
C5    C97   A    
C27   C45   T    
O29   Zn12  S    
O10   Zn5   S    
C1    C110  S    
C20   C69   S    
C50   O29   A    
C69   C93   A    
C11   C60   S    
C10   N10   T    
C6    C98   A    
C73   C82   A    
C118  H16   S    
C3    H4    S    
C7    C112  A    
C38   C74   S    
C119  H2    S    
C40   C48   S    
O8    Zn11  S    
C65   C94   A    
C36   O19   A    
C83   C101  A    
C63   C87   A    
O22   Zn10  S    
O31   Zn2   S    
C64   C78   A    
C23   C72   S    
C62   C78   A    
O3    Zn10  S    
C67   C80   A    
C114  C119  A    
O14   Zn6   S    
C27   C77   S    
O17   Zn7   S    
C22   N6    T    
C117  H15   S    
C16   C64   S    
C34   C79   S    
C35   C78   S    
C17   C65   S    
C31   C81   S    
O25   Zn8   S    
C21   C70   S    
C3    C116  A    
C71   C82   A    
C32   O16   A    
C10   C59   S    
C21   N5    T    
C48   O33   A    
C89   C104  A    
C53   O41   A    
C12   C61   S    
C60   C84   A    
C109  H1    S    
C20   N4    T    
C55   O45   A    
C5    C109  A    
C101  C108  A    
O19   Zn9   S    
C66   O5    A    
C46   C53   S    
C9    N9    T    
C68   C92   A    
O11   Zn6   S    
C57   C85   A    
O26   Zn11  S    
C103  C106  A    
C25   C73   S    
C48   O27   A    
O44   Zn6   S    
C96   C107  A    
C90   C103  A    
C31   O10   A    
C60   C75   A    
C51   O35   A    
C77   O8    A    
C72   C96   A    
C2    C40   T    
C92   C105  A    
O5    Zn10  S    
O6    Zn9   S    
C19   N3    T    
C99   O6    A    
C37   O25   A    
C35   O18   A    
C15   C63   S    
C34   O15   A    
C69   C80   A    
C3    C95   A    
C52   O36   A    
C30   O9    A    
C112  H10   S    
C53   O37   A    
C15   N14   T    
C66   O48   A    
C70   C98   A    
C86   C102  A    
