data_mof_unit_57917.cif
_audit_creation_date              2012-12-10T20:55:10-0500
_audit_creation_method            fapswitch 2.2
_symmetry_space_group_name_H-M    P1
_symmetry_Int_Tables_number       1
_space_group_crystal_system       triclinic
_cell_length_a                    15.862031
_cell_length_b                    15.088997
_cell_length_c                    10.70532
_cell_angle_alpha                 89.78158
_cell_angle_beta                  89.952596
_cell_angle_gamma                 91.379296
_cell_volume                      2561.47208439

loop_
_atom_site_label
_atom_site_type_symbol
_atom_type_description
_atom_site_fract_x
_atom_site_fract_y
_atom_site_fract_z
_atom_type_partial_charge
C1    C     C_R   0.338984 0.498930 0.499762 0.934805
C2    C     C_R   0.574729 0.954871 0.527380 0.393107
C3    C     C_R   0.500969 0.905015 0.497413 -0.322719
C4    C     C_R   0.574241 0.048921 0.529988 0.405555
C5    C     C_R   0.427450 0.045040 0.463483 0.400743
C6    C     C_R   0.500536 0.095065 0.497823 -0.324610
C7    C     C_1   0.500611 0.807049 0.498951 0.223302
C8    C     C_1   0.500127 0.192981 0.498953 0.205207
C9    C     C_R   0.503154 0.500416 0.259999 0.950859
C10   C     C_R   0.502961 0.499670 0.740072 0.969150
C11   C     C_R   0.623870 0.613948 0.127438 -0.216092
C12   C     C_R   0.661110 0.501096 0.500409 0.872493
C13   C     C_R   0.631493 0.603719 0.869164 -0.205996
C14   C     C_R   0.677678 0.672548 0.062371 0.130105
C15   C     C_R   0.684888 0.664250 0.931626 0.140897
C16   C     C_R   0.569002 0.553103 0.934034 0.002338
C17   C     C_R   0.567049 0.555902 0.064402 0.004204
C18   C     C_R   0.507189 0.501195 0.127811 -0.292922
C19   C     C_R   0.509249 0.497978 0.872175 -0.297806
C20   C     C_R   0.449247 0.446025 0.064920 0.405716
C21   C     C_R   0.453018 0.441005 0.936501 0.394723
C22   C     C_R   0.959910 0.583907 0.521312 0.052643
C23   C     C_R   0.951795 0.420062 0.534609 0.058404
C24   C     C_R   0.048363 0.581100 0.512231 0.056510
C25   C     C_R   0.913079 0.503368 0.528489 0.025135
C26   C     C_R   0.086767 0.497672 0.511637 0.034478
C27   C     C_3   0.315431 0.444908 0.140411 -0.282227
C28   C     C_3   0.420131 0.299411 0.877801 -0.221054
C29   C     C_3   0.718662 0.748365 0.134258 -0.456893
C30   C     C_3   0.660077 0.827951 0.134799 -0.348154
C31   C     C_3   0.697931 0.905834 0.207706 -0.845984
C32   C     C_3   0.748378 0.719029 0.857241 -0.462402
C33   C     C_3   0.838140 0.684931 0.874513 -0.330894
C34   C     C_R   0.040081 0.416872 0.519703 0.052781
C35   C     C_3   0.903947 0.757355 0.844571 -0.916163
C36   C     C_3   0.102904 0.665831 0.499833 -0.408173
C37   C     C_3   0.139499 0.694266 0.626527 -0.379164
C38   C     C_3   0.199725 0.774086 0.612294 -0.780720
C39   C     C_3   0.915158 0.672041 0.525502 -0.396097
C40   C     C_3   0.895017 0.705545 0.393774 -0.364105
C41   C     C_3   0.865317 0.800879 0.397570 -0.876873
C42   C     C_3   0.897532 0.336388 0.557443 -0.397330
C43   C     C_3   0.872811 0.290849 0.434427 -0.390893
C44   C     C_3   0.805501 0.218464 0.455571 -0.763558
C45   C     C_1   0.823811 0.505176 0.518801 -0.061582
C46   C     C_3   0.085770 0.329175 0.507297 -0.389332
C47   C     C_3   0.112702 0.313463 0.371388 -0.361731
C48   C     C_3   0.156760 0.225345 0.357772 -0.842560
C49   C     C_3   0.361193 0.124468 0.311214 -0.296528
C50   C     C_3   0.644891 0.132973 0.676167 -0.332664
C51   C     C_3   0.350322 0.880356 0.315123 -0.284465
C52   C     C_3   0.658601 0.890145 0.671693 -0.299776
C53   C     C_1   0.176100 0.495656 0.506213 -0.060440
C54   C     C_1   0.250814 0.496436 0.502561 -0.201911
C55   C     C_1   0.749244 0.503899 0.509405 -0.201772
C56   C     C_R   0.427399 0.950938 0.465233 0.396379
H1    H     H_    0.625881 0.617367 0.227914 0.169904
H2    H     H_    0.759351 0.927431 0.166413 0.251379
H3    H     H_    0.654338 0.962288 0.204336 0.244551
H4    H     H_    0.647855 0.849919 0.037401 0.210711
H5    H     H_    0.598653 0.808203 0.178158 0.228639
H6    H     H_    0.730226 0.727379 0.232205 0.209923
H7    H     H_    0.780999 0.768004 0.094783 0.213717
H8    H     H_    0.891351 0.787595 0.751997 0.264176
H9    H     H_    0.902377 0.810040 0.916676 0.261377
H10   H     H_    0.967732 0.728693 0.843943 0.245966
H11   H     H_    0.848577 0.661786 0.971839 0.219685
H12   H     H_    0.639484 0.596811 0.769414 0.152321
H13   H     H_    0.847356 0.627418 0.811750 0.217688
H14   H     H_    0.733094 0.716617 0.755936 0.189648
H15   H     H_    0.744569 0.789609 0.885148 0.206331
H16   H     H_    0.253812 0.757055 0.551641 0.286442
H17   H     H_    0.166423 0.831036 0.570801 0.265827
H18   H     H_    0.224396 0.793862 0.705392 0.241235
H19   H     H_    0.087484 0.711807 0.690666 0.214084
H20   H     H_    0.174368 0.638990 0.669619 0.237027
H21   H     H_    0.154804 0.655434 0.432028 0.204102
H22   H     H_    0.068037 0.721493 0.458787 0.203044
H23   H     H_    0.288749 0.461073 0.047173 0.183064
H24   H     H_    0.805377 0.804454 0.450875 0.287932
H25   H     H_    0.913778 0.844727 0.442061 0.262969
H26   H     H_    0.855099 0.825043 0.300949 0.253412
H27   H     H_    0.951513 0.702799 0.332681 0.217809
H28   H     H_    0.844943 0.662430 0.351770 0.223629
H29   H     H_    0.855726 0.666216 0.580186 0.210604
H30   H     H_    0.953868 0.721835 0.577018 0.205514
H31   H     H_    0.828321 0.168258 0.522915 0.267937
H32   H     H_    0.746927 0.247863 0.492159 0.278852
H33   H     H_    0.790636 0.185058 0.365735 0.250428
H34   H     H_    0.326912 0.506598 0.195123 0.134461
H35   H     H_    0.847776 0.340359 0.367730 0.232094
H36   H     H_    0.928770 0.260470 0.391668 0.225370
H37   H     H_    0.928731 0.289821 0.621877 0.177395
H38   H     H_    0.839404 0.352839 0.609539 0.207711
H39   H     H_    0.113559 0.169498 0.384867 0.261797
H40   H     H_    0.175946 0.216467 0.258935 0.239342
H41   H     H_    0.213921 0.224513 0.417594 0.291760
H42   H     H_    0.056683 0.313521 0.309260 0.213493
H43   H     H_    0.156449 0.367159 0.339078 0.224097
H44   H     H_    0.047425 0.271130 0.538029 0.200146
H45   H     H_    0.267530 0.404118 0.191331 0.178436
H46   H     H_    0.141936 0.329750 0.569356 0.212375
H47   H     H_    0.409728 0.093569 0.250819 0.121125
H48   H     H_    0.375030 0.196708 0.318672 0.198837
H49   H     H_    0.299905 0.115854 0.262542 0.184696
H50   H     H_    0.601261 0.097355 0.742141 0.126679
H51   H     H_    0.626648 0.203287 0.668198 0.171916
H52   H     H_    0.708778 0.132435 0.718190 0.186064
H53   H     H_    0.291556 0.840885 0.298234 0.180934
H54   H     H_    0.404196 0.838359 0.288852 0.143018
H55   H     H_    0.348718 0.939808 0.253713 0.163037
H56   H     H_    0.411629 0.271219 0.973127 0.181761
H57   H     H_    0.615589 0.833649 0.696990 0.155209
H58   H     H_    0.647697 0.947149 0.734687 0.156336
H59   H     H_    0.724334 0.869497 0.687244 0.185215
H60   H     H_    0.486652 0.292140 0.846697 0.137674
H61   H     H_    0.379668 0.259649 0.813533 0.178519
H62   H     H_    0.707095 0.886835 0.306858 0.303429
N1    N     N_1   0.500000 0.270550 0.500000 -0.113824
N2    N     N_1   0.500000 0.729450 0.500000 -0.110144
O1    O     O_R   0.378020 0.573650 0.500040 -0.615471
O2    O     O_3   0.394745 0.388415 0.872496 -0.592005
O3    O     O_3   0.353562 0.086710 0.432035 -0.564037
O4    O     O_3   0.649018 0.094319 0.556212 -0.563803
O5    O     O_3   0.352927 0.904229 0.442335 -0.566294
O6    O     O_3   0.650194 0.912576 0.544555 -0.575870
O7    O     O_R   0.621980 0.573650 0.499960 -0.631817
O8    O     O_R   0.378020 0.426320 0.500100 -0.591025
O9    O     O_R   0.621980 0.426320 0.499900 -0.621474
O10   O     O_R   0.500000 0.573680 0.316780 -0.644176
O11   O     O_R   0.500000 0.573680 0.683220 -0.628169
O12   O     O_R   0.500000 0.426350 0.316830 -0.575865
O13   O     O_R   0.500000 0.426350 0.683170 -0.598138
O14   O     O_3   0.389403 0.395515 0.129516 -0.593890
Zn1   Zn    Zn3+2 0.500000 0.598370 0.500000 0.951308
Zn2   Zn    Zn3+2 0.500000 0.401630 0.500000 0.985898

loop_
_geom_bond_atom_site_label_1
_geom_bond_atom_site_label_2
_ccdc_geom_bond_type
C29   H7    S    
C48   H39   S    
C42   H37   S    
C40   H28   S    
C5    C56   A    
O10   Zn1   S    
C10   O13   A    
C43   C44   S    
C49   H48   S    
C15   C32   S    
C12   O7    A    
C53   C54   T    
C28   H56   S    
C48   H41   S    
C46   H46   S    
C24   C36   S    
C23   C42   S    
C6    C8    S    
C31   H2    S    
C36   C37   S    
C19   C21   A    
O7    Zn1   S    
O11   Zn1   S    
C36   H21   S    
O8    Zn2   S    
C30   C31   S    
C11   C14   A    
C28   O2    S    
C52   H59   S    
C41   H26   S    
C49   O3    S    
C47   H43   S    
C4    O4    S    
C27   H34   S    
C31   H3    S    
C21   O2    S    
C10   O11   A    
C28   H60   S    
C29   H6    S    
C26   C34   A    
C27   H23   S    
C16   C17   A    
C22   C25   A    
C30   H4    S    
O13   Zn2   S    
C1    O8    A    
C35   H8    S    
C34   C46   S    
C44   H31   S    
C33   H13   S    
C37   H19   S    
C51   H53   S    
C50   H52   S    
C40   H27   S    
C41   H24   S    
C32   H15   S    
C38   H16   S    
C12   O9    A    
C51   O5    S    
C50   O4    S    
C4    C6    A    
C39   C40   S    
C52   O6    S    
C32   H14   S    
C35   H10   S    
C44   H32   S    
C52   H57   S    
C27   H45   S    
C43   H35   S    
C2    C4    A    
C1    C54   S    
C31   H62   S    
C37   C38   S    
O9    Zn2   S    
C3    C56   A    
C47   C48   S    
C10   C19   S    
O12   Zn2   S    
C23   C34   A    
C41   H25   S    
C17   C18   A    
C56   O5    S    
O1    Zn1   S    
C47   H42   S    
C2    O6    S    
C40   C41   S    
C37   H20   S    
C51   H54   S    
C13   C15   A    
C50   H51   S    
C22   C24   A    
C30   H5    S    
C42   C43   S    
C39   H29   S    
C14   C29   S    
C26   C53   S    
C25   C45   S    
C33   H11   S    
C38   H18   S    
C9    O12   A    
C46   H44   S    
C46   C47   S    
C11   C17   A    
C51   H55   S    
C48   H40   S    
C42   H38   S    
C27   O14   S    
C7    N2    T    
N1    Zn2   S    
C24   C26   A    
C49   H47   S    
C49   H49   S    
C52   H58   S    
C5    O3    S    
C3    C7    S    
C43   H36   S    
C28   H61   S    
N2    Zn1   S    
C32   C33   S    
C2    C3    A    
C36   H22   S    
C5    C6    A    
C16   C19   A    
C22   C39   S    
C33   C35   S    
C18   C20   A    
C23   C25   A    
C1    O1    A    
C12   C55   S    
C29   C30   S    
C9    O10   A    
C9    C18   S    
C20   C21   A    
C45   C55   T    
C13   C16   A    
C50   H50   S    
C35   H9    S    
C14   C15   A    
C39   H30   S    
C20   O14   S    
C11   H1    S    
C38   H17   S    
C44   H33   S    
C8    N1    T    
C13   H12   S    
