data_mof_unit_12262.cif
_audit_creation_date              2012-12-11T15:29:29-0500
_audit_creation_method            fapswitch 2.2
_symmetry_space_group_name_H-M    P1
_symmetry_Int_Tables_number       1
_space_group_crystal_system       triclinic
_cell_length_a                    13.540102
_cell_length_b                    13.459441
_cell_length_c                    27.565949
_cell_angle_alpha                 90.774876
_cell_angle_beta                  89.796247
_cell_angle_gamma                 59.786234
_cell_volume                      4340.52304303

loop_
_atom_site_label
_atom_site_type_symbol
_atom_type_description
_atom_site_fract_x
_atom_site_fract_y
_atom_site_fract_z
_atom_type_partial_charge
C1    C     C_R   0.620019 0.102614 0.569376 0.543770
C2    C     C_1   0.635526 0.726993 0.614809 -0.010266
C3    C     C_3   0.768150 0.535571 0.761609 -0.144244
C4    C     C_3   0.699878 0.627168 0.801105 0.064663
C5    C     C_3   0.656716 0.579777 0.732164 -0.094360
C6    C     C_3   0.681142 0.666703 0.707337 0.003567
C7    C     C_3   0.589578 0.670725 0.772242 0.108627
C8    C     C_3   0.613560 0.758296 0.747034 -0.073905
C9    C     C_1   0.703081 0.610790 0.853594 0.026079
C10   C     C_1   0.660343 0.694631 0.655855 -0.049003
C11   C     C_3   0.114184 0.163230 0.740754 -0.112288
C12   C     C_R   0.599912 0.779146 0.568331 0.532949
C13   C     C_3   0.172023 0.066041 0.778085 0.007378
C14   C     C_1   0.113272 0.192174 0.904062 0.001073
C15   C     C_1   0.287720 0.111828 0.624731 -0.010504
C16   C     C_3   0.129460 0.245092 0.776169 -0.126033
C17   C     C_3   0.187268 0.146891 0.812777 0.069126
C18   C     C_3   0.248473 0.207569 0.753717 -0.088189
C19   C     C_3   0.232980 0.126114 0.718884 0.011848
C20   C     C_3   0.304959 0.109320 0.790648 0.122074
C21   C     C_3   0.290829 0.027309 0.755164 -0.091207
C22   C     C_1   0.153197 0.167473 0.863798 -0.015339
C23   C     C_R   0.325349 0.100971 0.575119 0.553898
C24   C     C_1   0.261124 0.118083 0.666975 -0.054564
C25   C     C_3   0.622543 0.309313 0.731400 -0.096605
C26   C     C_3   0.577408 0.271092 0.774857 0.144590
C27   C     C_1   0.731865 0.234416 0.892968 0.011265
C28   C     C_1   0.635926 0.142462 0.615238 -0.019699
C29   C     C_3   0.741731 0.256235 0.755651 -0.135008
C30   C     C_3   0.695461 0.218131 0.798505 0.043090
C31   C     C_3   0.777256 0.140130 0.729879 0.010533
C32   C     C_3   0.659893 0.192929 0.706315 0.024465
C33   C     C_3   0.732686 0.101817 0.773087 -0.095678
C34   C     C_R   0.621111 0.099499 0.431067 0.549811
C35   C     C_3   0.613951 0.154847 0.748976 -0.079307
C36   C     C_1   0.715131 0.227635 0.850356 -0.014563
C37   C     C_1   0.645485 0.170277 0.655715 -0.059471
C38   C     C_R   0.646851 0.710150 0.384699 0.018832
C39   C     C_R   0.744415 0.701327 0.360898 -0.000171
C40   C     C_R   0.745027 0.702534 0.310285 -0.096765
C41   C     C_R   0.664843 0.688458 0.283630 0.019284
C42   C     C_R   0.583145 0.672792 0.308270 -0.121844
C43   C     C_R   0.572770 0.685834 0.358312 -0.123045
C44   C     C_R   0.573322 0.717467 0.202369 -0.116595
C45   C     C_R   0.604078 0.773518 0.431134 0.537598
C46   C     C_R   0.583390 0.690727 0.152982 -0.120162
C47   C     C_R   0.788809 0.607839 0.157895 -0.106839
C48   C     C_R   0.779291 0.630440 0.207215 -0.112227
C49   C     C_R   0.671953 0.681588 0.230335 0.032085
C50   C     C_R   0.691877 0.631170 0.131059 0.030132
C51   C     C_R   0.219530 0.141189 0.384392 0.029487
C52   C     C_R   0.215202 0.052430 0.358057 0.091971
C53   C     C_R   0.195259 0.063989 0.308502 -0.081742
C54   C     C_R   0.171235 0.165437 0.285014 0.016529
C55   C     C_R   0.161238 0.258429 0.312466 -0.137418
C56   C     C_R   0.277788 0.120533 0.431197 0.564912
C57   C     C_R   0.186312 0.245997 0.361510 -0.155990
C58   C     C_R   0.184796 0.242164 0.204445 -0.117733
C59   C     C_R   0.157068 0.259587 0.155475 -0.123304
C60   C     C_R   0.078222 0.133282 0.160525 -0.118341
C61   C     C_R   0.102612 0.118796 0.209386 -0.114300
C62   C     C_R   0.153775 0.174895 0.232219 0.032059
C63   C     C_R   0.100850 0.207459 0.133635 0.021198
C64   C     C_R   0.635903 0.135303 0.383059 -0.015117
C65   C     C_R   0.538357 0.216042 0.358352 -0.122455
C66   C     C_R   0.542883 0.233839 0.308960 -0.012806
C67   C     C_3   0.792957 0.622564 0.735678 -0.102302
C68   C     C_R   0.649135 0.171808 0.284301 0.041538
C69   C     C_R   0.748367 0.094528 0.309570 0.089079
C70   C     C_R   0.740987 0.076286 0.358652 -0.107491
C71   C     C_R   0.677531 0.101927 0.198933 -0.075691
C72   C     C_R   0.691685 0.116399 0.149926 0.085811
C73   C     C_R   0.655542 0.309390 0.168768 -0.149753
C74   C     C_R   0.644490 0.293236 0.217522 -0.121785
C75   C     C_R   0.657403 0.188933 0.232722 0.021603
C76   C     C_R   0.682427 0.220285 0.134919 0.032992
C77   C     C_R   0.052713 0.233212 0.948980 0.540970
C78   C     C_3   0.725163 0.712945 0.776076 0.117251
C79   C     C_R   0.713440 0.559015 0.945752 0.546963
C80   C     C_R   0.753285 0.244838 0.943355 0.552892
C81   C     C_R   0.047695 0.243571 0.086279 0.543722
C82   C     C_R   0.708964 0.572568 0.084287 0.544715
C83   C     C_R   0.718829 0.232737 0.086890 0.577452
C84   C     C_1   0.705073 0.593617 0.896404 0.042904
Cr1   Cr    Cr6+3 0.417550 0.169090 0.500530 1.019047
Cr2   Cr    Cr6+3 0.669180 0.913420 0.499920 1.008823
Cr3   Cr    Cr6+3 0.413260 0.917540 0.499520 1.063866
Cr4   Cr    Cr6+3 0.909770 0.175810 0.018240 1.052543
Cr5   Cr    Cr6+3 0.913300 0.427650 0.016090 1.051198
Cr6   Cr    Cr6+3 0.657770 0.431010 0.016900 1.060599
H1    H     H_    0.280089 0.266119 0.743250 0.147301
H2    H     H_    0.063088 0.335034 0.785410 0.122241
H3    H     H_    0.573772 0.393248 0.713376 0.126621
H4    H     H_    0.561206 0.113533 0.744923 0.148375
H5    H     H_    0.778890 0.017877 0.790744 0.155737
H6    H     H_    0.796423 0.295387 0.758708 0.095820
H7    H     H_    0.876454 0.603444 0.719987 0.131712
H8    H     H_    0.489027 0.760935 0.218999 0.114368
H9    H     H_    0.507467 0.710655 0.132657 0.135550
H10   H     H_    0.808488 0.714807 0.291754 0.115293
H11   H     H_    0.857468 0.599730 0.227380 0.102344
H12   H     H_    0.873859 0.561661 0.141962 0.143153
H13   H     H_    0.524228 0.654937 0.288888 0.109613
H14   H     H_    0.501672 0.684759 0.375886 0.160183
H15   H     H_    0.227687 0.283661 0.220728 0.101147
H16   H     H_    0.175625 0.316839 0.135251 0.133921
H17   H     H_    0.552488 0.850421 0.740550 0.130511
H18   H     H_    0.201713 0.991449 0.288311 0.137873
H19   H     H_    0.075884 0.067951 0.229500 0.154177
H20   H     H_    0.033776 0.092693 0.144836 0.157912
H21   H     H_    0.136991 0.339952 0.295917 0.102006
H22   H     H_    0.185217 0.316972 0.380938 0.131435
H23   H     H_    0.455838 0.260001 0.376637 0.140213
H24   H     H_    0.685118 0.022067 0.210928 0.150822
H25   H     H_    0.628722 0.360777 0.243568 0.122465
H26   H     H_    0.650176 0.389073 0.157908 0.133583
H27   H     H_    0.816595 0.013116 0.377258 0.158050
H28   H     H_    0.628442 0.526312 0.712651 0.123098
H29   H     H_    0.833168 0.444837 0.768559 0.099897
H30   H     H_    0.035711 0.186675 0.719910 0.101124
H31   H     H_    0.355267 0.937291 0.745464 0.133223
O1    O     O_R   0.301780 0.195490 0.553940 -0.502483
O2    O     O_R   0.658840 0.818280 0.449970 -0.513282
O3    O     O_R   0.503160 0.801780 0.445740 -0.489868
O4    O     O_R   0.319320 0.022190 0.450230 -0.454551
O5    O     O_3   0.499990 0.000010 0.499990 -0.266463
O6    O     O_R   0.819250 0.149410 0.965240 -0.484801
O7    O     O_R   0.006940 0.180310 0.968270 -0.519149
O8    O     O_R   0.028420 0.332670 0.963010 -0.489776
O9    O     O_R   0.810130 0.520390 0.966030 -0.491772
O10   O     O_R   0.636050 0.541380 0.962520 -0.495799
O11   O     O_R   0.666480 0.323610 0.968170 -0.466796
O12   O     O_R   0.522450 0.158840 0.550250 -0.507023
O13   O     O_R   0.817280 0.156800 0.072180 -0.478724
O14   O     O_R   0.005110 0.187160 0.067410 -0.504349
O15   O     O_R   0.026450 0.340060 0.069950 -0.514408
O16   O     O_R   0.808300 0.527240 0.065170 -0.497375
O17   O     O_R   0.634070 0.548770 0.069460 -0.517287
O18   O     O_R   0.664650 0.330470 0.067300 -0.500141
O19   O     O_3   0.826940 0.344820 0.017080 -0.288624
O20   O     O_R   0.694460 0.003360 0.553820 -0.507256
O21   O     O_R   0.657750 0.819520 0.549120 -0.501260
O22   O     O_R   0.501990 0.803120 0.552700 -0.509188
O23   O     O_R   0.318230 0.023430 0.549370 -0.485590
O24   O     O_R   0.302950 0.194150 0.446980 -0.529537
O25   O     O_R   0.523540 0.157600 0.451100 -0.505132
O26   O     O_R   0.695630 0.002030 0.446860 -0.516043
I1    I     I_    0.789595 0.806029 0.814432 -0.419841
I2    I     I_    0.453566 0.060294 0.833016 -0.318721
I3    I     I_    0.416823 0.378763 0.810309 -0.301436
C85   C     C_3   0.889096 0.067320 0.701392 -0.260209
C86   C     C_3   0.908204 0.947861 0.687976 -0.292497
C87   C     C_3   0.019374 0.877370 0.659252 -0.434440
H32   H     H_    0.016752 0.921166 0.625008 0.164713
H33   H     H_    0.093308 0.865440 0.681027 0.158852
H34   H     H_    0.031095 0.791460 0.650106 0.157321
H35   H     H_    0.912070 0.900920 0.721372 0.175692
H36   H     H_    0.836435 0.955869 0.665755 0.184777
H37   H     H_    0.886715 0.113617 0.667946 0.150896
H38   H     H_    0.961267 0.057739 0.723259 0.139807
C88   C     C_3   0.845778 0.695106 0.387487 -0.235907
C89   C     C_3   0.961191 0.595788 0.368544 -0.323033
C90   C     C_3   0.060539 0.588281 0.397533 -0.446133
H39   H     H_    0.060531 0.670705 0.395811 0.178737
H40   H     H_    0.054000 0.568649 0.436021 0.157426
H41   H     H_    0.142690 0.518886 0.382022 0.139577
H42   H     H_    0.962027 0.513020 0.371322 0.172429
H43   H     H_    0.975269 0.608235 0.329949 0.159710
H44   H     H_    0.843788 0.778189 0.383472 0.169291
H45   H     H_    0.841974 0.679119 0.426603 0.167738
I4    I     I_    0.237000 0.897041 0.387440 -0.380368
I5    I     I_    0.726822 0.979159 0.100991 -0.316208
C91   C     C_3   0.431167 0.311679 0.283565 -0.262001
C92   C     C_3   0.382761 0.438116 0.298653 -0.300877
C93   C     C_3   0.268729 0.515355 0.274215 -0.446120
H46   H     H_    0.279767 0.508819 0.234130 0.159441
H47   H     H_    0.205087 0.490268 0.284726 0.141315
H48   H     H_    0.235705 0.606116 0.285820 0.171892
H49   H     H_    0.369220 0.448699 0.338611 0.163570
H50   H     H_    0.444204 0.466284 0.288382 0.163923
H51   H     H_    0.440744 0.303312 0.243492 0.156183
H52   H     H_    0.368564 0.284471 0.293228 0.143181
I6    I     I_    0.431618 0.697606 0.801030 -0.400607
I7    I     I_    0.912007 0.999308 0.275925 -0.452595
C94   C     C_3   0.140004 0.976787 0.793511 -0.251882
C95   C     C_3   0.028016 0.027898 0.822870 -0.319441
C96   C     C_3   0.998282 0.935387 0.834263 -0.413165
H53   H     H_    0.987872 0.896775 0.800272 0.168443
H54   H     H_    0.067002 0.866552 0.855984 0.191981
H55   H     H_    0.917426 0.973791 0.855692 0.176709
H56   H     H_    0.036439 0.063440 0.857971 0.175601
H57   H     H_    0.957214 0.098781 0.803037 0.159700
H58   H     H_    0.135536 0.930854 0.760603 0.152123
H59   H     H_    0.209515 0.913413 0.816549 0.198611

loop_
_geom_bond_atom_site_label_1
_geom_bond_atom_site_label_2
_ccdc_geom_bond_type
C44   C49   A    
C58   C62   A    
C66   C68   A    
C46   H9    S    
C4    C9    S    
C25   H3    S    
C80   O11   A    
C23   O1    A    
Cr2   O5    S    
C11   C13   S    
C73   C74   A    
C90   H39   S    
C94   H59   S    
C72   C76   A    
C61   H19   S    
Cr2   O26   S    
C83   O18   A    
C88   C89   S    
C7    C8    S    
C93   H47   S    
C53   C54   A    
C45   O2    A    
C68   C75   S    
C11   C19   S    
C40   H10   S    
C73   H26   S    
C63   C81   S    
C60   C63   A    
C18   H1    S    
C72   I5    S    
C90   H40   S    
Cr1   O24   S    
C51   C56   S    
C82   O16   A    
C79   C84   S    
C57   H22   S    
C48   H11   S    
C70   H27   S    
C95   H56   S    
C17   C20   S    
Cr5   O8    S    
C20   I2    S    
C52   I4    S    
C18   C19   S    
C41   C42   A    
C14   C77   S    
C56   O24   A    
C43   H14   S    
Cr4   O19   S    
C96   H55   S    
C92   C93   S    
C44   H8    S    
Cr6   O18   S    
C31   C32   S    
C16   C17   S    
C83   O13   A    
C1    C28   S    
C85   C86   S    
C31   C33   S    
C66   C91   S    
C51   C57   A    
C64   C70   A    
Cr3   O23   S    
C39   C88   S    
C78   I1    S    
Cr6   O11   S    
C25   C32   S    
C15   C23   S    
C2    C12   S    
C47   H12   S    
C42   H13   S    
C8    C78   S    
Cr1   O5    S    
C61   C62   A    
C67   C78   S    
C4    C7    S    
C1    O12   A    
C11   H30   S    
C33   H5    S    
C76   C83   S    
C41   C49   S    
Cr6   O17   S    
C44   C46   A    
C81   O14   A    
C47   C50   A    
C88   H44   S    
C45   O3    A    
C25   C29   S    
C38   C39   A    
C86   H36   S    
C59   H16   S    
C13   C94   S    
C74   C75   A    
C51   C52   A    
C32   C35   S    
C26   I3    S    
C90   H41   S    
C1    O20   A    
Cr1   O25   S    
C27   C80   S    
C39   C40   A    
C5    C7    S    
C93   H48   S    
C68   C69   A    
C6    C8    S    
C54   C62   S    
C58   C59   A    
C91   C92   S    
C79   O9    A    
Cr5   O9    S    
C71   H24   S    
C60   C61   A    
C85   H37   S    
C4    C78   S    
C29   C30   S    
C31   C85   S    
C34   O26   A    
C47   C48   A    
C29   C31   S    
Cr5   O19   S    
C79   O10   A    
C34   C64   S    
C69   I7    S    
C13   C21   S    
Cr1   O1    S    
C77   O8    A    
C32   C37   S    
C20   C21   S    
C87   H34   S    
C77   O7    A    
C3    H29   S    
C95   C96   S    
C89   H43   S    
Cr6   O10   S    
C16   C18   S    
C15   C24   T    
C91   H52   S    
C26   C30   S    
Cr5   O16   S    
C55   C57   A    
C38   C45   S    
C73   C76   A    
C38   C43   A    
C23   O23   A    
C87   H33   S    
C42   C43   A    
C88   H45   S    
C3    C4    S    
C2    C10   T    
C8    H17   S    
C92   H50   S    
Cr3   O4    S    
C52   C53   A    
C50   C82   S    
Cr2   O21   S    
C89   C90   S    
C35   H4    S    
C54   C55   A    
C48   C49   A    
C30   C33   S    
C55   H21   S    
C65   H23   S    
C3    C67   S    
Cr4   O14   S    
C94   H58   S    
C3    C5    S    
C6    C10   S    
C29   H6    S    
Cr6   O19   S    
C16   H2    S    
C80   O6    A    
C30   C36   S    
C27   C36   T    
Cr4   O6    S    
C46   C50   A    
C59   C63   A    
C17   C22   S    
C12   O22   A    
C13   C17   S    
C5    H28   S    
C58   H15   S    
C85   H38   S    
C14   C22   T    
C19   C24   S    
C25   C26   S    
Cr4   O13   S    
C71   C72   A    
Cr4   O7    S    
C93   H46   S    
C6    C67   S    
C64   C65   A    
C71   C75   A    
C34   O25   A    
C53   H18   S    
C94   C95   S    
C5    C6    S    
C28   C37   T    
C74   H25   S    
C33   C35   S    
C12   O21   A    
C82   O17   A    
C86   H35   S    
C18   C20   S    
C7    I6    S    
C95   H57   S    
C69   C70   A    
C96   H54   S    
C11   C16   S    
C60   H20   S    
C67   H7    S    
C9    C84   T    
C91   H51   S    
C89   H42   S    
C26   C35   S    
C96   H53   S    
Cr3   O3    S    
C86   C87   S    
C56   O4    A    
C65   C66   A    
Cr2   O2    S    
Cr5   O15   S    
C21   H31   S    
C40   C41   A    
Cr3   O22   S    
C87   H32   S    
C81   O15   A    
C92   H49   S    
Cr3   O5    S    
Cr2   O20   S    
Cr1   O12   S    
C19   C21   S    
