data_mof_unit_24031.cif
_audit_creation_date              2012-12-11T15:54:07-0500
_audit_creation_method            fapswitch 2.2
_symmetry_space_group_name_H-M    P1
_symmetry_Int_Tables_number       1
_space_group_crystal_system       triclinic
_cell_length_a                    10.802407
_cell_length_b                    10.736248
_cell_length_c                    17.040969
_cell_angle_alpha                 80.27332
_cell_angle_beta                  99.160999
_cell_angle_gamma                 118.709004
_cell_volume                      1701.51621668

loop_
_atom_site_label
_atom_site_type_symbol
_atom_type_description
_atom_site_fract_x
_atom_site_fract_y
_atom_site_fract_z
_atom_type_partial_charge
Br1   Br    Br    0.071576 0.268147 0.106206 -0.482256
Br2   Br    Br    0.091268 0.310982 0.289095 -0.529653
C1    C     C_R   0.383301 0.282363 0.631616 0.535021
C2    C     C_1   0.332130 0.185509 0.781353 -0.059803
C3    C     C_1   0.364633 0.638022 0.275216 -0.016826
C4    C     C_R   0.371174 0.655422 0.586523 0.542740
C5    C     C_1   0.336548 0.654928 0.204850 -0.025901
C6    C     C_R   0.813139 0.653992 0.153056 -0.017158
C7    C     C_R   0.816719 0.543939 0.208052 -0.025529
C8    C     C_R   0.808613 0.541869 0.286883 -0.055885
C9    C     C_R   0.771025 0.750121 0.259412 0.219746
C10   C     C_R   0.776008 0.748144 0.177099 -0.162317
C11   C     C_3   0.925393 0.492080 0.226806 -0.198322
C12   C     C_R   0.405597 0.833545 0.678463 0.257186
C13   C     C_3   0.911721 0.485780 0.314269 -0.239089
C14   C     C_R   0.798009 0.649242 0.315255 0.031767
C15   C     C_R   0.314317 0.160015 0.159383 0.064231
C16   C     C_R   0.723731 0.588775 0.633581 0.532447
C17   C     C_R   0.197988 0.099978 0.203515 0.012283
C18   C     C_R   0.211318 0.118050 0.281822 -0.016334
C19   C     C_R   0.464501 0.245551 0.279027 -0.152463
C20   C     C_R   0.449207 0.235497 0.196950 -0.169802
C21   C     C_3   0.062870 0.108536 0.186088 0.064217
C22   C     C_3   0.077217 0.129186 0.273998 0.047209
C23   C     C_R   0.380044 0.854616 0.752232 -0.135487
C24   C     C_R   0.343354 0.190047 0.321447 0.040079
C25   C     C_R   0.886797 0.699646 0.856995 0.538377
C26   C     C_R   0.282514 0.751469 0.883156 0.568733
C27   C     C_R   0.285675 0.117610 0.858384 0.541531
C28   C     C_R   0.355546 0.234035 0.397931 0.572683
C29   C     C_R   0.883106 0.688396 0.081639 0.542904
C30   C     C_R   0.313995 0.698054 0.123108 0.567263
C31   C     C_R   0.287203 0.112959 0.082032 0.558630
C32   C     C_R   0.401257 0.626404 0.358654 0.571932
C33   C     C_R   0.767442 0.621404 0.397779 0.561739
C34   C     C_3   0.118153 0.465968 0.789347 -0.248405
C35   C     C_R   0.280488 0.741106 0.798497 -0.043866
C36   C     C_R   0.181455 0.621109 0.760683 0.013919
C37   C     C_R   0.201088 0.599896 0.686740 -0.016716
C38   C     C_3   0.648763 0.944347 0.681162 0.033112
C39   C     C_3   0.740080 0.083871 0.719196 -0.287397
C40   C     C_3   0.864588 0.077266 0.772713 -0.448099
C41   C     C_3   0.666610 0.902227 0.239136 -0.003414
C42   C     C_3   0.744118 0.047359 0.191740 -0.281984
C43   C     C_3   0.656200 0.124566 0.174234 -0.466393
C44   C     C_3   0.140095 0.442188 0.708309 -0.265941
C45   C     C_R   0.321422 0.697768 0.648062 0.016830
C46   C     C_1   0.776869 0.631937 0.712198 -0.052609
C47   C     C_1   0.822398 0.670628 0.777794 -0.057341
C48   C     C_1   0.363394 0.231883 0.714053 -0.059781
Cr1   Cr    Cr6+3 0.608440 0.389080 0.519680 1.032132
Cr2   Cr    Cr6+3 0.288640 0.400090 0.490760 1.049746
Cr3   Cr    Cr6+3 0.602940 0.710800 0.489510 1.044442
Cr4   Cr    Cr6+3 0.052530 0.947560 0.964210 1.019894
Cr5   Cr    Cr6+3 0.059970 0.626800 0.992920 1.068913
Cr6   Cr    Cr6+3 0.373320 0.938440 0.995370 0.996095
H1    H     H_    0.885847 0.386362 0.205664 0.193654
H2    H     H_    0.184385 0.439837 0.839452 0.165828
H3    H     H_    0.219450 0.403191 0.711855 0.144216
H4    H     H_    0.039209 0.382348 0.671762 0.153268
H5    H     H_    0.766621 0.828132 0.132634 0.119925
H6    H     H_    0.032083 0.573664 0.209339 0.186397
H7    H     H_    0.710138 0.940039 0.636140 0.177600
H8    H     H_    0.631664 0.850936 0.726967 0.110500
H9    H     H_    0.780347 0.174466 0.671552 0.170636
H10   H     H_    0.676685 0.103818 0.755830 0.170697
H11   H     H_    0.824863 0.988239 0.821144 0.177547
H12   H     H_    0.860452 0.374961 0.344334 0.174377
H13   H     H_    0.928475 0.177405 0.801080 0.155138
H14   H     H_    0.933229 0.061808 0.737354 0.168295
H15   H     H_    0.601563 0.911856 0.279373 0.196874
H16   H     H_    0.594361 0.824820 0.197287 0.143597
H17   H     H_    0.838701 0.114971 0.227867 0.233973
H18   H     H_    0.772161 0.036333 0.134444 0.172562
H19   H     H_    0.545211 0.049598 0.157256 0.210398
H20   H     H_    0.698196 0.212160 0.125188 0.165050
H21   H     H_    0.661068 0.169368 0.229449 0.141184
H22   H     H_    0.009942 0.562190 0.346880 0.164530
H23   H     H_    0.569208 0.305358 0.307753 0.148751
H24   H     H_    0.540082 0.289686 0.162561 0.123015
H25   H     H_    0.976657 0.004901 0.170630 0.123233
H26   H     H_    0.999109 0.038220 0.310309 0.173613
H27   H     H_    0.447755 0.954919 0.776818 0.142155
H28   H     H_    0.004810 0.422065 0.799332 0.154567
O1    O     O_R   0.754020 0.497590 0.609930 -0.502765
O2    O     O_R   0.406180 0.826930 0.920660 -0.515575
O3    O     O_R   0.358620 0.062870 0.901950 -0.516423
O4    O     O_R   0.481420 0.271390 0.600630 -0.473365
O5    O     O_R   0.163910 0.085460 0.050210 -0.471566
O6    O     O_R   0.935200 0.815170 0.045770 -0.505208
O7    O     O_R   0.916120 0.596690 0.069430 -0.512256
O8    O     O_R   0.192310 0.631200 0.086170 -0.446485
O9    O     O_R   0.406770 0.819480 0.096420 -0.550979
O10   O     O_R   0.359170 0.055960 0.064880 -0.529484
O11   O     O_3   0.161940 0.837600 0.984160 -0.283143
O12   O     O_R   0.295080 0.533620 0.397890 -0.452741
O13   O     O_R   0.263810 0.254550 0.589590 -0.500494
O14   O     O_R   0.300820 0.531200 0.560890 -0.519492
O15   O     O_R   0.491480 0.744020 0.564270 -0.488502
O16   O     O_R   0.726290 0.693800 0.583010 -0.504528
O17   O     O_R   0.747830 0.500190 0.434090 -0.526757
O18   O     O_R   0.475680 0.273800 0.437630 -0.506685
O19   O     O_R   0.257620 0.257160 0.413750 -0.459376
O20   O     O_3   0.521539 0.941352 0.641078 -0.529973
O21   O     O_3   0.761392 0.859345 0.287627 -0.576435
O22   O     O_R   0.485280 0.746620 0.388440 -0.517645
O23   O     O_R   0.720550 0.696220 0.420010 -0.455758
O24   O     O_3   0.500010 0.499990 0.499980 -0.326930
O25   O     O_R   0.163320 0.092900 0.874450 -0.510444
O26   O     O_R   0.934650 0.822080 0.882840 -0.510877
O27   O     O_R   0.915520 0.604140 0.893670 -0.513844
O28   O     O_R   0.191760 0.638110 0.923230 -0.480883

loop_
_geom_bond_atom_site_label_1
_geom_bond_atom_site_label_2
_ccdc_geom_bond_type
Cr6   O11   S    
C19   C24   A    
Cr2   O19   S    
C41   H16   S    
C44   H3    S    
C39   C40   S    
C17   C18   A    
C31   O10   A    
Cr1   O1    S    
C26   O28   A    
Cr1   O18   S    
Cr6   O10   S    
Cr5   O8    S    
C38   H7    S    
C15   C31   S    
C43   H20   S    
C4    O14   A    
C27   O25   A    
C32   O12   A    
Cr4   O6    S    
C34   H2    S    
C8    C13   S    
C14   C33   S    
C36   C37   A    
Cr5   O28   S    
C13   H22   S    
C11   H1    S    
Cr2   O13   S    
C40   H14   S    
Cr4   O26   S    
C41   O21   S    
C22   H26   S    
C7    C11   S    
C23   C35   A    
Cr6   O2    S    
Cr3   O22   S    
C11   H6    S    
C18   C22   S    
C25   O26   A    
Cr1   O24   S    
C28   O19   A    
C9    O21   S    
Cr5   O7    S    
C21   C22   S    
C34   C44   S    
C5    C30   S    
C7    C8    A    
C2    C27   S    
Cr5   O27   S    
C30   O9    A    
C25   O27   A    
C19   C20   A    
C28   O18   A    
C16   O16   A    
C1    C48   S    
Cr3   O16   S    
Cr6   O9    S    
C16   O1    A    
C4    C45   S    
C32   O22   A    
Cr4   O5    S    
Cr5   O11   S    
C3    C5    T    
C6    C7    A    
Cr6   O3    S    
C39   H9    S    
C40   H13   S    
Cr3   O15   S    
Cr4   O25   S    
C2    C48   T    
C17   C21   S    
C41   C42   S    
C35   C36   A    
C31   O5    A    
C38   O20   S    
C9    C14   A    
Cr3   O23   S    
C12   O20   S    
C6    C10   A    
C29   O6    A    
C3    C32   S    
C19   H23   S    
C42   H18   S    
Cr4   O11   S    
C12   C45   A    
C37   C44   S    
C46   C47   T    
Br1   C21   S    
C29   O7    A    
C11   C13   S    
Br2   C22   S    
C40   H11   S    
C42   C43   S    
C37   C45   A    
C38   C39   S    
C41   H15   S    
C1    O13   A    
C21   H25   S    
C44   H4    S    
C1    O4    A    
C6    C29   S    
C33   O17   A    
C16   C46   S    
Cr1   O4    S    
C9    C10   A    
C24   C28   S    
C39   H10   S    
Cr1   O17   S    
C15   C20   A    
C38   H8    S    
C43   H19   S    
C4    O15   A    
C34   C36   S    
C20   H24   S    
C8    C14   A    
C26   O2    A    
C10   H5    S    
Cr3   O24   S    
C30   O8    A    
C18   C24   A    
C26   C35   S    
C34   H28   S    
C13   H12   S    
Cr2   O14   S    
C15   C17   A    
Cr2   O12   S    
C12   C23   A    
C42   H17   S    
C27   O3    A    
C33   O23   A    
Cr2   O24   S    
C23   H27   S    
C43   H21   S    
C25   C47   S    
