data_mof_unit_22293.cif
_audit_creation_date              2012-12-11T14:17:27-0500
_audit_creation_method            fapswitch 2.2
_symmetry_space_group_name_H-M    P1
_symmetry_Int_Tables_number       1
_space_group_crystal_system       triclinic
_cell_length_a                    6.977848
_cell_length_b                    13.824011
_cell_length_c                    20.395577
_cell_angle_alpha                 102.130317
_cell_angle_beta                  90.538094
_cell_angle_gamma                 90.044999
_cell_volume                      1923.37492095

loop_
_atom_site_label
_atom_site_type_symbol
_atom_type_description
_atom_site_fract_x
_atom_site_fract_y
_atom_site_fract_z
_atom_type_partial_charge
O1    O     O_R   0.506860 0.599390 0.449240 -0.541169
O2    O     O_R   0.180220 0.594600 0.586780 -0.549774
O3    O     O_R   0.004500 0.400610 0.550760 -0.536040
C1    C     C_R   0.348367 0.610867 0.614618 0.751828
O4    O     O_R   0.177490 0.611290 0.451970 -0.543447
O5    O     O_R   0.001750 0.417420 0.414990 -0.525307
C2    C     C_R   0.344387 0.635870 0.434158 0.727658
O6    O     O_R   0.509610 0.582580 0.585010 -0.527822
O7    O     O_3   0.337420 0.436370 0.488020 -0.380091
V1    V     V_3+5 0.064680 0.511800 0.502220 1.515693
O8    O     O_R   0.671710 0.405400 0.413220 -0.552444
C3    C     C_R   0.839403 0.387857 0.385546 0.706619
O9    O     O_R   0.674440 0.388710 0.548030 -0.547193
C4    C     C_R   0.843708 0.364203 0.565778 0.775496
V2    V     V_3+5 0.564010 0.488200 0.497780 1.490785
O10   O     O_3   0.841140 0.563630 0.511980 -0.372885
C5    C     C_R   0.911253 0.113078 0.603658 -0.179609
H1    H     H_    0.933577 0.039046 0.574868 0.196758
C6    C     C_R   0.856783 0.284583 0.602357 -0.143195
C7    C     C_R   0.839291 0.307415 0.920760 0.324307
C8    C     C_R   0.869283 0.381328 0.884513 0.262505
C9    C     C_R   0.923002 0.355352 0.817450 0.209671
C10   C     C_R   0.897596 0.256713 0.781093 -0.048050
C11   C     C_R   0.880641 0.179374 0.817454 -0.125763
C12   C     C_R   0.888989 0.233617 0.709692 0.089624
C13   C     C_R   0.905274 0.134215 0.674482 -0.034105
C14   C     C_R   0.906447 0.057650 0.710024 0.263782
C15   C     C_R   0.884228 0.079038 0.780281 0.214588
C16   C     C_R   0.850907 0.306653 0.672210 -0.186727
C17   C     C_R   0.885972 0.187664 0.567728 0.406486
C18   C     C_R   0.860038 0.207003 0.889100 -0.193316
H2    H     H_    0.811496 0.381034 0.696493 0.189498
C19   C     C_2   0.994141 0.279395 0.287158 0.357415
C20   C     C_2   0.842840 0.334063 0.314054 0.137950
C21   C     C_2   0.999314 0.237157 0.213595 0.299971
C22   C     C_2   0.867890 0.169387 0.184259 -0.272610
H3    H     H_    0.756868 0.147262 0.215045 0.140336
C23   C     C_2   0.214240 0.770677 0.787971 0.571881
C24   C     C_2   0.364169 0.824422 0.817169 -0.281950
H4    H     H_    0.493541 0.826414 0.788197 0.141960
C25   C     C_2   0.224712 0.725505 0.714301 -0.304287
C26   C     C_2   0.354154 0.656662 0.686893 0.100791
H5    H     H_    0.119807 0.749585 0.681704 0.174991
C27   C     C_R   0.198438 0.868663 0.384359 0.535071
H6    H     H_    0.213064 0.817656 0.476396 0.147649
C28   C     C_R   0.340009 0.713225 0.395504 -0.105863
C29   C     C_R   0.432629 0.693534 0.075551 -0.136598
C30   C     C_R   0.452170 0.619200 0.111385 -0.075542
C31   C     C_R   0.415067 0.638215 0.179717 -0.118526
C32   C     C_R   0.355869 0.733058 0.214169 0.069454
C33   C     C_R   0.329027 0.809065 0.176896 -0.013560
C34   C     C_R   0.324990 0.755296 0.284934 -0.014385
C35   C     C_R   0.228642 0.844415 0.314312 -0.062668
C36   C     C_R   0.172428 0.909146 0.273354 0.260898
C37   C     C_R   0.256485 0.901547 0.211025 0.169171
C38   C     C_R   0.382429 0.691032 0.327182 -0.179198
C39   C     C_R   0.248284 0.801292 0.423535 -0.244103
C40   C     C_R   0.370212 0.788026 0.106937 -0.072528
H7    H     H_    0.454531 0.621953 0.308268 0.125407
H8    H     H_    0.466247 0.677154 0.022579 0.155242
H9    H     H_    0.429213 0.576364 0.203950 0.137735
H10   H     H_    0.497697 0.546131 0.086008 0.171565
O11   O     O_R   0.203230 0.917310 0.915020 -0.504161
O12   O     O_R   0.535500 0.888690 0.048040 -0.542969
O13   O     O_R   0.711080 0.082610 0.085000 -0.532383
C41   C     C_R   0.368454 0.863218 0.065609 0.756741
O14   O     O_R   0.532630 0.905370 0.913230 -0.537995
O15   O     O_R   0.708190 0.099410 0.949230 -0.526749
C42   C     C_R   0.364477 0.884600 0.886540 0.789098
O16   O     O_R   0.206120 0.900510 0.050790 -0.530310
O17   O     O_3   0.375360 0.063570 0.011990 -0.362876
V3    V     V_3+5 0.648170 0.988200 0.997780 1.614598
O18   O     O_R   0.038240 0.111390 0.951940 -0.554628
C43   C     C_R   0.868950 0.135332 0.933241 0.823279
O19   O     O_R   0.041120 0.094710 0.086750 -0.507622
C44   C     C_R   0.873525 0.114948 0.113541 0.818384
V4    V     V_3+5 0.148810 0.011930 0.002180 1.626811
O20   O     O_3   0.871750 0.936430 0.988010 -0.362678
O21   O     O_3   0.895692 0.166749 0.498556 -0.569283
C45   C     C_3   0.721355 0.123058 0.472222 -0.231578
H11   H     H_    0.596518 0.170570 0.491316 0.107744
H12   H     H_    0.704557 0.048025 0.483145 0.170033
H13   H     H_    0.722222 0.114540 0.416952 0.188213
O22   O     O_3   0.704845 0.356703 0.270763 -0.578583
C46   C     C_3   0.530856 0.311388 0.280641 -0.103430
H14   H     H_    0.419303 0.369542 0.287308 0.217636
H15   H     H_    0.527726 0.273551 0.323883 0.128333
H16   H     H_    0.497288 0.254331 0.235328 0.214884
Br1   Br    Br    0.184355 0.290944 0.161901 -0.589606
O23   O     O_3   0.053849 0.765213 0.827281 -0.535169
C47   C     C_3   0.902860 0.710687 0.791378 -0.012991
H17   H     H_    0.947693 0.634344 0.768158 0.190748
H18   H     H_    0.843686 0.748758 0.752796 0.161601
H19   H     H_    0.787425 0.705836 0.827521 0.204330
Br2   Br    Br    0.510160 0.590998 0.741799 -0.541214
Br3   Br    Br    0.945947 0.989586 0.291561 -0.572127
O24   O     O_3   0.124400 0.959181 0.415540 -0.519470
C48   C     C_3   0.277958 0.019595 0.445396 -0.217881
H20   H     H_    0.384353 0.029998 0.407122 0.117930
H21   H     H_    0.348451 0.989275 0.485894 0.131370
H22   H     H_    0.222317 0.093462 0.468919 0.195401
Br4   Br    Br    0.918025 0.921153 0.661240 -0.595019
Br5   Br    Br    0.314524 0.026398 0.188178 -0.533014
O25   O     O_3   0.782947 0.332983 0.987045 -0.544294
C49   C     C_3   0.946743 0.356137 0.028383 -0.140448
H23   H     H_    0.030690 0.418275 0.016192 0.175466
H24   H     H_    0.040827 0.290652 0.025177 0.145921
H25   H     H_    0.898868 0.379596 0.081012 0.197350
Br6   Br    Br    0.086622 0.447274 0.784753 -0.469751
Br7   Br    Br    0.837983 0.518674 0.926969 -0.457340
Br8   Br    Br    0.846249 0.965509 0.819441 -0.515581
O26   O     O_3   0.160786 0.280395 0.324266 -0.581058
C50   C     C_3   0.156093 0.206053 0.361834 -0.194784
H26   H     H_    0.224669 0.138444 0.332838 0.211065
H27   H     H_    0.009803 0.189697 0.377930 0.174929
H28   H     H_    0.243496 0.231266 0.407974 0.149098

loop_
_geom_bond_atom_site_label_1
_geom_bond_atom_site_label_2
_ccdc_geom_bond_type
C25   C26   D    
C21   C22   D    
C1    O6    A    
C8    Br7   S    
V4    O20   S    
C49   H24   S    
H6    C39   S    
C13   C14   A    
O13   C44   A    
C5    C13   A    
C22   H3    S    
C16   H2    S    
O5    C3    A    
C23   C24   D    
O15   C43   A    
V2    O10   S    
C37   Br5   S    
C5    H1    S    
O14   V3    S    
O18   C43   A    
O26   C50   S    
V3    O20   S    
C22   C44   S    
C29   C40   A    
C29   H8    S    
O8    V2    S    
C27   C35   A    
C40   C41   S    
O11   C42   A    
C32   C34   A    
C10   C11   A    
O1    V2    S    
O7    V1    S    
C36   Br3   S    
C50   H28   S    
C10   C12   A    
O9    C4    A    
O16   V4    S    
C5    C17   A    
C25   H5    S    
C20   O22   S    
C45   H13   S    
O25   C49   S    
O24   C48   S    
C46   H15   S    
C15   Br8   S    
C12   C16   A    
C49   H25   S    
C31   H9    S    
C26   Br2   S    
C2    C28   S    
O22   C46   S    
C23   C25   S    
C45   H12   S    
C47   H17   S    
C19   O26   S    
C18   C43   S    
C32   C33   A    
C12   C13   A    
C46   H14   S    
O14   C42   A    
O12   C41   A    
O2    C1    A    
O19   C44   A    
C47   H18   S    
C27   O24   S    
C30   H10   S    
C29   C30   A    
C27   C39   A    
O15   V3    S    
C9    Br6   S    
C19   C20   D    
C24   C42   S    
C33   C40   A    
O19   V4    S    
O3    C4    A    
C17   O21   S    
C21   Br1   S    
C30   C31   A    
C31   C32   A    
O6    V2    S    
C48   H21   S    
O9    V2    S    
C28   C39   A    
C3    C20   S    
C6    C16   A    
O17   V4    S    
C34   C35   A    
O4    C2    A    
C50   H26   S    
O11   V4    S    
C46   H16   S    
C36   C37   A    
O1    C2    A    
C4    C6    S    
C11   C15   A    
C45   H11   S    
O5    V1    S    
O8    C3    A    
C38   H7    S    
C35   C36   A    
C7    O25   S    
O13   V3    S    
C49   H23   S    
C23   O23   S    
C14   Br4   S    
C48   H22   S    
O7    V2    S    
C11   C18   A    
O4    V1    S    
O3    V1    S    
V1    O10   S    
C47   H19   S    
O23   C47   S    
C41   O16   A    
C1    C26   S    
C19   C21   S    
C33   C37   A    
O12   V3    S    
O21   C45   S    
C24   H4    S    
O17   V3    S    
C7    C8    A    
C48   H20   S    
C28   C38   A    
C14   C15   A    
O18   V4    S    
C9    C10   A    
C8    C9    A    
C6    C17   A    
C34   C38   A    
C50   H27   S    
C7    C18   A    
O2    V1    S    
