data_mof_unit_8868.cif
_audit_creation_date              2012-12-10T18:42:33-0500
_audit_creation_method            fapswitch 2.2
_symmetry_space_group_name_H-M    P1
_symmetry_Int_Tables_number       1
_space_group_crystal_system       triclinic
_cell_length_a                    8.631657
_cell_length_b                    10.665324
_cell_length_c                    9.925566
_cell_angle_alpha                 89.338389
_cell_angle_beta                  97.908209
_cell_angle_gamma                 91.679712
_cell_volume                      904.636977846

loop_
_atom_site_label
_atom_site_type_symbol
_atom_type_description
_atom_site_fract_x
_atom_site_fract_y
_atom_site_fract_z
_atom_type_partial_charge
C1    C     C_R   0.498812 0.260331 0.500411 1.035055
C2    C     C_R   0.592938 0.065606 0.604718 0.509886
C3    C     C_R   0.501931 0.872163 0.498792 -0.536574
C4    C     C_R   0.498069 0.127837 0.501208 -0.536573
C5    C     C_R   0.598428 0.580135 0.080182 -0.047412
C6    C     C_R   0.401572 0.419865 0.919818 -0.047412
C7    C     C_R   0.597542 0.578986 0.936956 0.708825
C8    C     C_R   0.402458 0.421014 0.063044 0.708824
C9    C     C_3   0.710532 0.672942 0.157326 -0.505366
C10   C     C_3   0.289467 0.327058 0.842674 -0.505366
C11   C     C_R   0.501188 0.739669 0.499589 1.035055
C12   C     C_R   0.202010 0.499391 0.464998 0.882043
C13   C     C_R   0.797990 0.500609 0.535002 0.882044
C14   C     C_2   0.038046 0.492759 0.446373 0.298996
C15   C     C_2   0.961954 0.507241 0.553627 0.298997
C16   C     C_R   0.404899 0.063041 0.396641 0.544360
C17   C     C_R   0.595101 0.936959 0.603358 0.544360
C18   C     C_R   0.407062 0.934394 0.395282 0.509886
F1    F     F_    0.965484 0.466749 0.318352 -0.616456
F2    F     F_    0.034516 0.533251 0.681647 -0.616456
F3    F     F_    0.309457 0.124083 0.298595 -0.527796
F4    F     F_    0.690543 0.875917 0.701405 -0.527796
F5    F     F_    0.313622 0.870610 0.296093 -0.572250
F6    F     F_    0.686378 0.129390 0.703907 -0.572251
F7    F     F_    0.695486 0.657258 0.877737 -0.554075
F8    F     F_    0.304514 0.342742 0.122263 -0.554075
H1    H     H_    0.680714 0.769436 0.121527 0.237427
H2    H     H_    0.710647 0.670633 0.267122 0.242881
H3    H     H_    0.831596 0.654410 0.138369 0.270191
H4    H     H_    0.319286 0.230564 0.878473 0.237427
H5    H     H_    0.168404 0.345589 0.861631 0.270191
H6    H     H_    0.289353 0.329367 0.732877 0.242881
N1    N     N_R   0.499960 0.499970 0.857200 -0.170326
N2    N     N_R   0.500040 0.500030 0.142800 -0.170326
O1    O     O_R   0.499990 0.316750 0.614620 -0.617985
O2    O     O_R   0.500010 0.683250 0.385380 -0.617985
O3    O     O_R   0.499990 0.316780 0.385290 -0.536499
O4    O     O_R   0.500010 0.683220 0.614710 -0.536499
O5    O     O_R   0.271750 0.499990 0.587840 -0.627042
O6    O     O_R   0.728250 0.500010 0.412160 -0.627042
O7    O     O_R   0.271750 0.500010 0.358510 -0.519085
O8    O     O_R   0.728250 0.499990 0.641490 -0.519085
Zn1   Zn    Zn3+2 0.500000 0.499980 0.653120 1.101201
Zn2   Zn    Zn3+2 0.500000 0.500020 0.346880 1.101201

loop_
_geom_bond_atom_site_label_1
_geom_bond_atom_site_label_2
_ccdc_geom_bond_type
C6    C10   S    
C11   O4    A    
C2    C4    A    
C4    C16   A    
C12   O7    A    
C1    O3    A    
O1    Zn1   S    
C10   H4    S    
C17   F4    S    
C7    F7    S    
C6    N1    A    
C9    H3    S    
C1    C4    S    
C5    N2    A    
C12   O5    A    
O4    Zn1   S    
C8    N2    A    
C2    C17   A    
C5    C9    S    
C7    N1    A    
C9    H1    S    
C16   F3    S    
O3    Zn2   S    
C14   F1    S    
C13   O8    A    
C12   C14   S    
C3    C17   A    
C13   C15   S    
C2    F6    S    
C15   F2    S    
O7    Zn2   S    
O2    Zn2   S    
C3    C11   S    
O8    Zn1   S    
C8    F8    S    
C18   F5    S    
N1    Zn1   S    
C10   H6    S    
O6    Zn2   S    
N2    Zn2   S    
C1    O1    A    
C3    C18   A    
C16   C18   A    
C5    C7    A    
C14   C15   D    
C11   O2    A    
C13   O6    A    
C6    C8    A    
O5    Zn1   S    
C10   H5    S    
C9    H2    S    
