data_mof_unit_59228.cif
_audit_creation_date              2013-03-05T16:04:54-0500
_audit_creation_method            fapswitch 2.2
_symmetry_space_group_name_H-M    P1
_symmetry_Int_Tables_number       1
_space_group_crystal_system       triclinic
_cell_length_a                    23.667259
_cell_length_b                    20.562405
_cell_length_c                    14.826854
_cell_angle_alpha                 89.050548
_cell_angle_beta                  102.242164
_cell_angle_gamma                 89.899252
_cell_volume                      7050.42188294

loop_
_atom_site_label
_atom_site_type_symbol
_atom_site_description
_atom_site_fract_x
_atom_site_fract_y
_atom_site_fract_z
_atom_type_partial_charge
O1    O     O_R   0.541320 0.066090 0.608930 -0.573987
O2    O     O_R   0.458680 0.933910 0.391070 -0.535329
O3    O     O_R   0.458680 0.066090 0.391070 -0.588190
O4    O     O_R   0.541320 0.933910 0.608930 -0.537351
O5    O     O_R   0.041320 0.566090 0.608930 -0.637292
O6    O     O_R   0.958680 0.433910 0.391070 -0.596598
O7    O     O_R   0.958680 0.566090 0.391070 -0.540855
O8    O     O_R   0.041320 0.433910 0.608930 -0.536164
O9    O     O_R   0.572880 0.066110 0.470280 -0.562375
O10   O     O_R   0.427120 0.933890 0.529720 -0.540084
O11   O     O_R   0.427120 0.066110 0.529720 -0.537731
O12   O     O_R   0.572880 0.933890 0.470280 -0.526329
O13   O     O_R   0.072880 0.566110 0.470280 -0.501874
O14   O     O_R   0.927120 0.433890 0.529720 -0.507305
O15   O     O_R   0.927120 0.566110 0.529720 -0.560518
O16   O     O_R   0.072880 0.433890 0.470280 -0.608367
C1    C     C_R   0.572814 0.090266 0.552464 0.941810
C2    C     C_R   0.424487 0.911637 0.445927 0.977120
C3    C     C_R   0.427853 0.091223 0.446955 0.929315
C4    C     C_R   0.574117 0.910134 0.554480 0.989462
C5    C     C_R   0.072859 0.590258 0.551801 0.937430
C6    C     C_R   0.928520 0.407784 0.449628 0.895662
C7    C     C_R   0.927135 0.590530 0.446524 0.964709
C8    C     C_R   0.074712 0.410836 0.554379 0.965452
Zn1   Zn    Zn3+2 0.478910 1.000000 0.592580 1.168310
Zn2   Zn    Zn3+2 0.521090 1.000000 0.407420 1.159202
Zn3   Zn    Zn3+2 0.978910 0.500000 0.592580 1.140779
Zn4   Zn    Zn3+2 0.021090 0.500000 0.407420 1.123296
C9    C     C_R   0.617381 0.857243 0.589951 -0.201698
C10   C     C_R   0.393397 0.151730 0.417127 -0.230548
C11   C     C_R   0.375023 0.866318 0.410924 -0.190430
C12   C     C_R   0.608898 0.148657 0.580319 -0.230197
C13   C     C_R   0.122016 0.362772 0.589467 -0.288801
C14   C     C_R   0.889701 0.648475 0.415675 -0.209354
C15   C     C_R   0.894080 0.345823 0.429631 -0.283844
C16   C     C_R   0.110483 0.647848 0.576979 -0.269107
C17   C     C_R   0.689933 0.820116 0.719172 0.292657
C18   C     C_R   0.339920 0.225627 0.300036 0.377161
C19   C     C_R   0.300776 0.834315 0.279843 0.329355
C20   C     C_R   0.651483 0.230794 0.689719 0.382133
C21   C     C_R   0.209057 0.353764 0.705406 0.381135
C22   C     C_R   0.827136 0.714437 0.298623 0.370190
C23   C     C_R   0.860359 0.247452 0.345067 0.450991
C24   C     C_R   0.174478 0.713830 0.691854 0.455233
C25   C     C_R   0.631768 0.836444 0.682041 -0.131549
C26   C     C_R   0.378137 0.173111 0.323677 -0.150919
C27   C     C_R   0.357900 0.851677 0.316449 -0.157246
C28   C     C_R   0.618976 0.173997 0.670947 -0.132115
C29   C     C_R   0.149078 0.360044 0.682984 -0.168494
C30   C     C_R   0.870898 0.667536 0.321813 -0.174323
C31   C     C_R   0.898545 0.301132 0.359407 -0.247775
C32   C     C_R   0.135184 0.661916 0.670449 -0.183851
C33   C     C_R   0.639155 0.817850 0.529825 0.352177
C34   C     C_R   0.377663 0.192516 0.484288 0.425048
C35   C     C_R   0.339590 0.844059 0.471171 0.384391
C36   C     C_R   0.632694 0.182901 0.513430 0.328280
C37   C     C_R   0.148339 0.329666 0.526219 0.293398
C38   C     C_R   0.871684 0.687132 0.482788 0.430029
C39   C     C_R   0.864785 0.321919 0.497266 0.426316
C40   C     C_R   0.125053 0.687169 0.504985 0.419874
C41   C     C_R   0.697144 0.793918 0.559034 -0.065056
C42   C     C_R   0.325972 0.230725 0.458131 -0.076637
C43   C     C_R   0.283080 0.821559 0.433607 -0.098320
C44   C     C_R   0.683269 0.219837 0.544953 -0.070651
C45   C     C_R   0.208262 0.313323 0.552023 -0.057375
C46   C     C_R   0.816062 0.717616 0.458881 -0.068391
C47   C     C_R   0.814744 0.283765 0.467601 -0.081472
C48   C     C_R   0.170941 0.731819 0.527650 -0.081884
C49   C     C_R   0.724580 0.796451 0.656326 -0.144949
C50   C     C_R   0.304966 0.243052 0.361821 -0.176472
C51   C     C_R   0.268469 0.806076 0.339057 -0.127873
C52   C     C_R   0.691947 0.245833 0.635059 -0.163056
C53   C     C_R   0.236132 0.318155 0.646305 -0.167157
C54   C     C_R   0.792406 0.727253 0.362797 -0.172550
C55   C     C_R   0.811090 0.248970 0.384737 -0.170405
C56   C     C_R   0.185685 0.753998 0.619508 -0.178570
C57   C     C_R   0.729212 0.770608 0.493782 0.044240
C58   C     C_R   0.293659 0.255788 0.522029 0.065812
C59   C     C_R   0.243570 0.805632 0.489660 0.045733
C60   C     C_R   0.725490 0.230659 0.490561 0.059348
C61   C     C_R   0.241258 0.290279 0.488715 0.052718
C62   C     C_R   0.783146 0.738970 0.524772 0.072466
C63   C     C_R   0.771359 0.274642 0.520801 0.044670
C64   C     C_R   0.203249 0.755672 0.463073 0.087865
C65   C     C_R   0.309146 0.244032 0.617705 -0.177462
C66   C     C_R   0.708277 0.777380 0.397946 -0.095751
C67   C     C_R   0.723892 0.197132 0.408188 -0.159223
C68   C     C_R   0.242460 0.839609 0.570329 -0.105249
C69   C     C_R   0.801907 0.729556 0.620256 -0.143436
C70   C     C_R   0.222735 0.300596 0.393478 -0.081200
C71   C     C_R   0.202199 0.726293 0.377776 -0.138894
C72   C     C_R   0.774001 0.305706 0.605460 -0.123458
C73   C     C_R   0.284673 0.278097 0.680362 0.405874
C74   C     C_R   0.735798 0.750885 0.333799 0.429527
C75   C     C_R   0.762142 0.210696 0.351389 0.466056
C76   C     C_R   0.212309 0.815363 0.634539 0.450308
C77   C     C_R   0.780892 0.767106 0.683882 0.403923
C78   C     C_R   0.250654 0.273094 0.330240 0.423652
C79   C     C_R   0.230328 0.753463 0.312361 0.404318
C80   C     C_R   0.740554 0.285155 0.667183 0.437787
H1    H     H_    0.339783 0.207503 0.645804 0.245935
H2    H     H_    0.668691 0.801311 0.369395 0.249168
H3    H     H_    0.692698 0.159751 0.386089 0.200433
H4    H     H_    0.264897 0.885201 0.582675 0.247220
H5    H     H_    0.836673 0.696792 0.647042 0.220095
H6    H     H_    0.185137 0.329365 0.366418 0.216946
H7    H     H_    0.181586 0.680541 0.362999 0.234168
H8    H     H_    0.805363 0.342435 0.628563 0.245678
N1    N     N_R   0.549130 1.000000 0.284090 -0.160857
N2    N     N_R   0.450870 1.000000 0.715910 -0.187238
N3    N     N_R   0.049130 0.500000 0.284090 -0.203516
N4    N     N_R   0.950870 0.500000 0.715910 -0.178838
C81   C     C_R   0.627432 0.035314 0.213357 -0.209588
C82   C     C_R   0.375359 0.038002 0.789924 -0.206962
C83   C     C_R   0.130852 0.503316 0.210163 -0.228566
C84   C     C_R   0.885854 0.563834 0.784616 -0.271958
C85   C     C_R   0.607842 0.012025 0.290020 0.492358
C86   C     C_R   0.393057 0.017362 0.711631 0.546004
C87   C     C_R   0.109003 0.499697 0.289993 0.454072
C88   C     C_R   0.896537 0.526959 0.712164 0.548306
C89   C     C_R   0.511692 0.006739 0.200742 0.410487
C90   C     C_R   0.489117 0.001800 0.798975 0.419991
C91   C     C_R   0.012602 0.510219 0.199214 0.471527
C92   C     C_R   0.990777 0.500115 0.797292 0.401349
C93   C     C_R   0.530641 0.035491 0.124357 -0.080535
C94   C     C_R   0.472974 0.032084 0.875727 -0.096270
C95   C     C_R   0.036288 0.528815 0.121633 -0.097201
C96   C     C_R   0.981066 0.538446 0.872179 -0.100315
C97   C     C_R   0.590264 0.043201 0.128589 0.032169
C98   C     C_R   0.413829 0.044487 0.872773 -0.000540
C99   C     C_R   0.095838 0.518293 0.125618 -0.007379
C100  C     C_R   0.926057 0.567247 0.867183 0.021457
C101  C     C_R   0.492585 0.049467 0.040168 0.144472
C102  C     C_R   0.512757 0.045440 0.958257 0.154945
C103  C     C_R   0.002427 0.552365 0.037445 0.154898
C104  C     C_R   0.021966 0.543073 0.955989 0.146121
C105  C     C_R   0.571639 0.055022 0.962037 -0.193557
C106  C     C_R   0.434992 0.065989 0.035778 -0.195949
C107  C     C_R   0.081392 0.539288 0.961420 -0.165423
C108  C     C_R   0.951058 0.587039 0.031647 -0.153764
C109  C     C_R   0.610954 0.055225 0.046513 -0.036180
C110  C     C_R   0.394808 0.063588 0.953093 0.027551
C111  C     C_R   0.119081 0.526284 0.045207 -0.012576
C112  C     C_R   0.912107 0.595062 0.947246 -0.023532
H9    H     H_    0.672609 0.045165 0.219619 0.259418
H10   H     H_    0.330992 0.052917 0.783873 0.265895
H11   H     H_    0.177054 0.500480 0.216687 0.272374
H12   H     H_    0.844600 0.588101 0.775691 0.234282
H13   H     H_    0.587293 0.059481 0.899052 0.140237
H14   H     H_    0.420824 0.076549 0.098123 0.119722
H15   H     H_    0.098241 0.544507 0.899765 0.176266
H16   H     H_    0.939020 0.602854 0.093810 0.167732
S1    S     S_3+6 0.308348 0.256630 0.799274 0.099818
O17   O     O_2   0.350623 0.306005 0.846885 -0.205582
O18   O     O_2   0.257908 0.253055 0.845885 -0.169027
O19   O     O_3   0.341201 0.183522 0.810534 -0.579070
H17   H     H_    0.382818 0.192664 0.815461 0.374862
S2    S     S_3+6 0.692009 0.735070 0.223176 0.118589
O20   O     O_2   0.688979 0.794308 0.161569 -0.194427
O21   O     O_2   0.715311 0.678213 0.179744 -0.237180
O22   O     O_3   0.624745 0.716943 0.235130 -0.512197
H18   H     H_    0.601722 0.713611 0.171290 0.407052
S3    S     S_3+6 0.740729 0.188747 0.233966 0.084490
O23   O     O_2   0.767063 0.234035 0.173846 -0.227906
O24   O     O_2   0.759152 0.120122 0.221935 -0.203812
O25   O     O_3   0.668272 0.193673 0.201891 -0.537303
H19   H     H_    0.659456 0.186390 0.134513 0.376774
S4    S     S_3+6 0.196140 0.870014 0.716836 0.145521
O26   O     O_2   0.147022 0.845365 0.757377 -0.209738
O27   O     O_2   0.248805 0.879879 0.792117 -0.173099
O28   O     O_3   0.176244 0.941795 0.663554 -0.481662
H20   H     H_    0.171207 0.971310 0.713427 0.416378
S5    S     S_3+6 0.835436 0.787631 0.782523 0.128123
O29   O     O_2   0.838870 0.860372 0.789626 -0.152157
O30   O     O_2   0.824655 0.758423 0.870508 -0.245664
O31   O     O_3   0.901056 0.760834 0.773528 -0.465279
H21   H     H_    0.906376 0.718347 0.806816 0.365184
S6    S     S_3+6 0.209015 0.264327 0.216155 0.133943
O32   O     O_2   0.213733 0.324550 0.159483 -0.154557
O33   O     O_2   0.228669 0.205961 0.171129 -0.248846
O34   O     O_3   0.139230 0.253756 0.220288 -0.450597
H22   H     H_    0.118112 0.254769 0.155009 0.416653
S7    S     S_3+6 0.228710 0.708578 0.209990 0.114644
O35   O     O_2   0.188005 0.739999 0.129401 -0.188928
O36   O     O_2   0.288171 0.705283 0.189565 -0.220016
O37   O     O_3   0.206212 0.632173 0.221912 -0.510943
H23   H     H_    0.163475 0.634870 0.205012 0.364397
S8    S     S_3+6 0.770762 0.295220 0.786703 0.125934
O38   O     O_2   0.754302 0.360597 0.817282 -0.171723
O39   O     O_2   0.751055 0.242224 0.843688 -0.244535
O40   O     O_3   0.843031 0.290588 0.805060 -0.516499
H24   H     H_    0.856859 0.300979 0.871046 0.408621
S9    S     S_3+6 0.432536 0.211100 0.583496 0.094327
O41   O     O_2   0.431741 0.162322 0.659888 -0.306091
O42   O     O_2   0.490890 0.208295 0.560157 -0.205012
O43   O     O_3   0.423142 0.286775 0.619758 -0.491218
H25   H     H_    0.431475 0.283472 0.688031 0.390838
S10   S     S_3+6 0.585394 0.775141 0.449407 0.090839
O44   O     O_2   0.607265 0.708664 0.432603 -0.245221
O45   O     O_2   0.531392 0.767294 0.486269 -0.176991
O46   O     O_3   0.567917 0.817500 0.349428 -0.476248
H26   H     H_    0.550967 0.785188 0.302775 0.433976
S11   S     S_3+6 0.588559 0.201789 0.401781 0.103380
O47   O     O_2   0.590900 0.148179 0.335220 -0.310019
O48   O     O_2   0.526753 0.211346 0.408115 -0.183698
O49   O     O_3   0.611668 0.271052 0.359879 -0.487049
H27   H     H_    0.588159 0.275812 0.296338 0.419188
S12   S     S_3+6 0.374558 0.815195 0.583564 0.105471
O50   O     O_2   0.346604 0.753839 0.608823 -0.242516
O51   O     O_2   0.436255 0.800045 0.582478 -0.176027
O52   O     O_3   0.372279 0.871391 0.663675 -0.528568
H28   H     H_    0.392857 0.851296 0.722716 0.412528
S13   S     S_3+6 0.926646 0.716280 0.575016 0.072562
O53   O     O_2   0.934326 0.670909 0.657207 -0.322284
O54   O     O_2   0.983691 0.720909 0.547348 -0.254913
O55   O     O_3   0.908756 0.791588 0.602305 -0.475141
H29   H     H_    0.945664 0.811923 0.632676 0.431640
S14   S     S_3+6 0.101075 0.280918 0.444790 0.060498
O56   O     O_2   0.129392 0.216471 0.436230 -0.195379
O57   O     O_2   0.046647 0.268395 0.478903 -0.272791
O58   O     O_3   0.083904 0.316609 0.339453 -0.504207
H30   H     H_    0.090228 0.363675 0.348940 0.341223
S15   S     S_3+6 0.076005 0.696067 0.394316 0.082068
O59   O     O_2   0.086584 0.644720 0.328782 -0.333204
O60   O     O_2   0.014873 0.689946 0.404498 -0.209196
O61   O     O_3   0.083272 0.769969 0.347728 -0.510334
H31   H     H_    0.059006 0.768646 0.284530 0.415022
S16   S     S_3+6 0.909430 0.302831 0.607407 0.096630
O62   O     O_2   0.891003 0.239413 0.643917 -0.228655
O63   O     O_2   0.971296 0.296655 0.598817 -0.255837
O64   O     O_3   0.904590 0.362228 0.681803 -0.503173
H32   H     H_    0.918055 0.342216 0.743687 0.426710
C113  C     C_2   0.401351 0.144315 0.248573 0.577973
H33   H     H_    0.371171 0.129619 0.186771 0.003136
O65   O     O_2   0.453219 0.143039 0.251055 -0.489096
C114  C     C_2   0.589137 0.793761 0.714751 0.678935
H34   H     H_    0.600455 0.766191 0.778945 0.129745
O66   O     O_2   0.541280 0.784925 0.667460 -0.444684
C115  C     C_2   0.597768 0.144202 0.748696 0.591512
H35   H     H_    0.629027 0.129535 0.810237 0.005807
O67   O     O_2   0.546283 0.141356 0.748356 -0.484727
C116  C     C_2   0.399494 0.819729 0.270889 0.696688
H36   H     H_    0.390725 0.816450 0.196226 0.141954
O68   O     O_2   0.442119 0.792253 0.316463 -0.487874
C117  C     C_2   0.896200 0.642561 0.246366 0.641297
H37   H     H_    0.867691 0.626518 0.183490 0.054824
O69   O     O_2   0.948104 0.644939 0.250169 -0.498329
C118  C     C_2   0.119060 0.321055 0.742804 0.668871
H38   H     H_    0.078927 0.296778 0.713089 0.139289
O70   O     O_2   0.139536 0.313537 0.825176 -0.444832
C119  C     C_2   0.119400 0.623540 0.746540 0.584228
H39   H     H_    0.120125 0.570998 0.745467 0.111851
O71   O     O_2   0.104775 0.650842 0.810493 -0.508770
C120  C     C_2   0.948309 0.303187 0.314681 0.793836
H40   H     H_    0.985736 0.330638 0.345350 0.115129
O72   O     O_2   0.947711 0.275817 0.241987 -0.425870
S17   S     S_3+6 0.707585 0.817001 0.842949 0.107943
O73   O     O_2   0.718880 0.747639 0.875454 -0.216170
O74   O     O_2   0.757990 0.859546 0.881742 -0.146760
O75   O     O_3   0.652250 0.844634 0.886490 -0.520593
H41   H     H_    0.664372 0.837438 0.954079 0.432771
S18   S     S_3+6 0.351707 0.281404 0.212387 0.138103
O76   O     O_2   0.323297 0.257508 0.118481 -0.207011
O77   O     O_2   0.328854 0.347803 0.226878 -0.181719
O78   O     O_3   0.423255 0.287212 0.217929 -0.483288
H42   H     H_    0.426873 0.315596 0.164841 0.405432
S19   S     S_3+6 0.266679 0.865761 0.169416 0.139038
O79   O     O_2   0.281565 0.824762 0.094659 -0.183664
O80   O     O_2   0.202232 0.867846 0.160340 -0.192897
O81   O     O_3   0.289496 0.941949 0.156791 -0.517736
H43   H     H_    0.273788 0.953838 0.091235 0.412021
S20   S     S_3+6 0.624076 0.291852 0.753247 0.139002
O82   O     O_2   0.645254 0.280724 0.855257 -0.228157
O83   O     O_2   0.641356 0.358406 0.725897 -0.194036
O84   O     O_3   0.551511 0.287990 0.729238 -0.462588
H44   H     H_    0.538945 0.321358 0.768347 0.396351
S21   S     S_3+6 0.248227 0.411549 0.781105 0.139673
O85   O     O_2   0.252596 0.389730 0.879557 -0.110197
O86   O     O_2   0.307907 0.420291 0.762992 -0.215998
O87   O     O_3   0.213812 0.483750 0.765329 -0.528585
H45   H     H_    0.216506 0.498535 0.702523 0.354190
S22   S     S_3+6 0.829812 0.770473 0.206265 0.121259
O88   O     O_2   0.800493 0.742399 0.115457 -0.225162
O89   O     O_2   0.801594 0.833917 0.220603 -0.175483
O90   O     O_3   0.899389 0.784948 0.203598 -0.505019
H46   H     H_    0.897986 0.811690 0.146973 0.409169
S23   S     S_3+6 0.886429 0.170293 0.316719 0.158707
O91   O     O_2   0.857343 0.115862 0.358023 -0.220991
O92   O     O_2   0.875375 0.163492 0.213690 -0.146530
O93   O     O_3   0.957999 0.164266 0.360073 -0.466137
H47   H     H_    0.969755 0.122431 0.337223 0.415855
S24   S     S_3+6 0.223533 0.713273 0.802007 0.142653
O94   O     O_2   0.278958 0.747061 0.796278 -0.211297
O95   O     O_2   0.196260 0.746034 0.872161 -0.136956
O96   O     O_3   0.239627 0.635903 0.837049 -0.531667
H48   H     H_    0.261023 0.638932 0.901935 0.409512
C121  C     C_2   0.672868 0.059611 0.042393 0.491353
H49   H     H_    0.686120 0.094123 0.994780 0.085423
O97   O     O_2   0.708663 0.021777 0.086013 -0.435992
C122  C     C_2   0.333571 0.074907 0.958295 0.535478
H50   H     H_    0.323384 0.112208 0.003424 0.104592
O98   O     O_2   0.294763 0.040138 0.918448 -0.496731
C123  C     C_2   0.180876 0.517337 0.041797 0.542310
H51   H     H_    0.199647 0.547864 0.995481 0.107797
O99   O     O_2   0.210019 0.473249 0.084314 -0.443740
C124  C     C_2   0.855519 0.624631 0.951850 0.511413
H52   H     H_    0.854300 0.663215 0.000493 0.125514
O100  O     O_2   0.809872 0.603506 0.908259 -0.473444
S25   S     S_3+6 0.543175 0.941561 0.818702 0.068404
O101  O     O_2   0.560559 0.922450 0.919175 -0.263331
O102  O     O_2   0.516790 0.883259 0.767438 -0.226820
O103  O     O_3   0.601234 0.966551 0.778941 -0.561063
H53   H     H_    0.632597 0.971916 0.834226 0.381862
S26   S     S_3+6 0.456394 0.948886 0.179850 0.045196
O104  O     O_2   0.433302 0.935189 0.079546 -0.266863
O105  O     O_2   0.484851 0.887946 0.223982 -0.248895
O106  O     O_3   0.402062 0.971215 0.229440 -0.537369
H54   H     H_    0.384225 0.009687 0.193674 0.343499
S27   S     S_3+6 0.039346 0.433702 0.818649 0.045978
O107  O     O_2   0.046526 0.408777 0.916446 -0.258010
O108  O     O_2   0.015365 0.379716 0.756117 -0.255076
O109  O     O_3   0.103607 0.455986 0.797859 -0.591313
H55   H     H_    0.132449 0.442549 0.853753 0.413579
S28   S     S_3+6 0.943084 0.473679 0.179392 0.045498
O110  O     O_2   0.954413 0.404050 0.205341 -0.291433
O111  O     O_2   0.905738 0.502384 0.238644 -0.318938
O112  O     O_3   0.906218 0.473946 0.069198 -0.539076
H56   H     H_    0.870282 0.449597 0.070258 0.416782
S29   S     S_3+6 0.332979 0.020630 0.613993 0.083638
O113  O     O_2   0.336686 0.984430 0.529199 -0.298375
O114  O     O_2   0.280964 0.995667 0.646370 -0.263253
O115  O     O_3   0.319399 0.098697 0.583436 -0.582324
H57   H     H_    0.281035 0.098924 0.540725 0.391514
S30   S     S_3+6 0.665301 0.983471 0.381072 0.093126
O116  O     O_2   0.657818 0.912072 0.391881 -0.272368
O117  O     O_2   0.722899 0.992915 0.355101 -0.235412
O118  O     O_3   0.670110 0.017855 0.484185 -0.538587
H58   H     H_    0.692214 0.058410 0.481347 0.349933
S31   S     S_3+6 0.832601 0.512076 0.626437 0.079549
O119  O     O_2   0.834477 0.452201 0.571667 -0.276360
O120  O     O_2   0.783172 0.504516 0.674943 -0.238623
O121  O     O_3   0.817546 0.576436 0.554328 -0.603583
H59   H     H_    0.777775 0.569055 0.518535 0.394210
S32   S     S_3+6 0.168320 0.500681 0.389985 0.065878
O122  O     O_2   0.207937 0.445842 0.378241 -0.324331
O123  O     O_2   0.200804 0.562351 0.382192 -0.244653
O124  O     O_3   0.160737 0.496652 0.499668 -0.563021
H60   H     H_    0.199833 0.486385 0.536563 0.369510

loop_
_geom_bond_atom_site_label_1
_geom_bond_atom_site_label_2
_geom_bond_distance
_ccdc_geom_bond_type
C100  C112  1.425962 A    
C17   C49   1.454345 A    
C121  O97   1.220591 D    
S15   O59   1.502603 D    
C53   C73   1.410714 A    
N2    C86   1.401568 A    
C88   S31   1.788252 S    
C18   C50   1.408243 A    
O118  H58   0.990239 S    
S15   O61   1.682977 S    
C55   C75   1.406810 A    
C123  O99   1.220417 D    
C35   S12   1.787405 S    
S11   O48   1.498323 D    
S22   O88   1.502820 D    
S8    O40   1.676255 S    
S3    O24   1.500763 D    
C17   S17   1.793746 S    
N4    C92   1.365590 A    
C18   S18   1.785369 S    
C19   S19   1.775604 S    
C42   C50   1.427243 A    
C120  O72   1.221600 D    
O84   H44   0.990478 S    
S28   O110  1.485408 D    
C116  O68   1.220554 D    
C76   S4    1.772029 S    
O3    C3    1.324848 A    
C64   C71   1.406069 A    
C108  H16   1.075811 S    
S5    O30   1.497784 D    
C117  H37   1.085075 S    
C82   C98   1.373772 A    
C102  C105  1.397215 A    
C60   C63   1.417017 A    
C21   C29   1.392865 A    
S16   O62   1.504146 D    
C118  O70   1.221823 D    
O9    Zn2   1.944826 S    
S13   O54   1.494715 D    
Zn4   N3    2.073354 S    
C23   C55   1.413514 A    
C77   S5    1.790323 S    
O40   H24   0.990628 S    
C71   H7    1.064965 S    
C87   S32   1.813201 S    
N4    C88   1.389292 A    
O49   H27   0.990545 S    
S26   O104  1.503151 D    
S13   O53   1.502087 D    
C51   C79   1.417048 A    
O7    Zn4   1.979263 S    
C9    C25   1.395041 A    
S7    O35   1.502437 D    
C75   S3    1.773223 S    
C46   C62   1.445638 A    
O15   Zn3   1.920066 S    
C123  H51   1.085834 S    
O12   C4    1.327510 A    
C124  H52   1.085428 S    
O13   C5    1.314409 A    
O2    Zn2   1.988326 S    
O87   H45   0.989704 S    
S1    O19   1.680705 S    
C39   S16   1.784056 S    
C67   H3    1.072825 S    
C61   C70   1.399398 A    
S4    O26   1.502619 D    
C43   C51   1.412715 A    
C15   C31   1.420475 A    
S2    O20   1.502742 D    
C17   C25   1.407735 A    
C28   C115  1.476221 S    
C99   C111  1.422326 A    
C122  H50   1.085775 S    
C19   C27   1.395255 A    
C20   C28   1.398747 A    
C80   S8    1.780376 S    
O3    Zn2   1.979263 S    
O43   H25   0.990559 S    
C73   S1    1.780925 S    
C56   C76   1.411183 A    
S30   O118  1.677065 S    
N1    C89   1.364177 A    
C57   C62   1.414995 A    
O10   C2    1.320184 A    
S28   O112  1.681030 S    
S24   O95   1.502936 D    
C95   C99   1.414176 A    
C29   C118  1.476420 S    
O4    C4    1.330709 A    
C93   C97   1.408517 A    
O5    C5    1.333085 A    
C94   C102  1.408099 A    
S9    O41   1.503558 D    
C69   C77   1.398299 A    
C14   C38   1.417320 A    
C1    C12   1.487276 S    
C19   C51   1.400712 A    
S10   O45   1.500754 D    
C2    C11   1.506808 S    
O37   H23   0.990345 S    
C31   C120  1.469408 S    
S26   O105  1.494962 D    
S16   O64   1.679080 S    
S27   O108  1.492377 D    
C47   C63   1.432118 A    
C25   C114  1.489987 S    
S6    O32   1.502579 D    
C10   C34   1.420364 A    
C62   C69   1.401054 A    
S20   O84   1.680674 S    
C59   C64   1.406677 A    
S19   O81   1.678420 S    
C37   S14   1.784645 S    
O11   Zn1   1.920066 S    
C46   C54   1.426293 A    
O103  H53   0.990100 S    
C33   C41   1.432405 A    
N3    C87   1.401071 A    
S17   O73   1.503050 D    
C24   C56   1.412535 A    
C39   C47   1.416134 A    
O5    Zn3   1.988325 S    
C65   C73   1.391943 A    
C72   H8    1.068351 S    
S4    O28   1.680939 S    
O6    Zn4   1.988326 S    
C41   C57   1.437784 A    
C35   C43   1.416960 A    
C36   C44   1.416230 A    
C78   S6    1.780077 S    
C113  H33   1.083299 S    
C79   S7    1.782984 S    
C16   C32   1.419986 A    
S9    O43   1.684340 S    
C109  C121  1.482330 S    
S21   O85   1.502309 D    
S29   O114  1.501369 D    
C68   H4    1.077301 S    
C20   S20   1.783154 S    
O115  H57   0.990705 S    
S7    O37   1.678297 S    
S30   O116  1.489165 D    
S20   O82   1.502612 D    
C89   S26   1.752052 S    
C90   S25   1.755093 S    
C84   C88   1.390815 A    
O12   Zn2   1.920068 S    
C89   C93   1.423885 A    
O58   H30   0.987384 S    
C91   C95   1.429429 A    
C84   C100  1.384935 A    
C7    C14   1.490036 S    
S23   O92   1.503088 D    
C115  O67   1.218965 D    
Zn2   N1    2.073354 S    
C22   C30   1.398389 A    
C81   C85   1.393746 A    
O10   Zn1   1.944827 S    
C83   C87   1.389499 A    
C47   C55   1.418841 A    
C66   H2    1.059425 S    
C40   S15   1.804159 S    
C58   C65   1.404613 A    
S14   O58   1.683694 S    
O9    C1    1.323786 A    
C20   C52   1.411171 A    
C42   C58   1.438769 A    
O75   H41   0.990703 S    
C57   C66   1.406627 A    
C27   C116  1.466773 S    
S19   O79   1.502972 D    
S15   O60   1.491521 D    
S18   O76   1.502973 D    
C48   C56   1.415725 A    
S22   O89   1.503143 D    
O46   H26   0.989612 S    
C10   C26   1.417939 A    
S17   O75   1.680124 S    
O14   C6    1.318027 A    
C3    C10   1.494589 S    
O7    C7    1.326136 A    
C107  H15   1.075961 S    
O8    C8    1.336549 A    
C98   C110  1.420334 A    
C18   C26   1.398806 A    
C86   S29   1.801507 S    
C21   S21   1.771384 S    
C21   C53   1.404394 A    
S31   O121  1.676696 S    
S32   O122  1.501010 D    
S22   O90   1.682463 S    
S28   O111  1.498689 D    
O61   H31   0.990594 S    
S21   O87   1.680972 S    
C69   H5    1.067348 S    
C71   C79   1.397590 A    
C49   C77   1.437127 A    
C68   C76   1.392040 A    
C12   C28   1.421853 A    
C54   C74   1.400867 A    
C115  H35   1.083819 S    
O28   H20   0.990635 S    
S18   O78   1.682398 S    
S16   O63   1.501730 D    
O22   H18   0.990514 S    
N1    C85   1.396364 A    
C103  C104  1.397550 A    
C36   S11   1.796174 S    
O34   H22   0.990539 S    
O11   C3    1.326983 A    
C95   C103  1.410397 A    
C96   C104  1.408656 A    
S25   O103  1.683973 S    
C97   C109  1.423019 A    
C94   C98   1.413795 A    
C13   C29   1.398794 A    
O6    C6    1.341893 A    
C83   H11   1.078500 S    
C15   C39   1.416909 A    
O93   H47   0.990439 S    
S29   O113  1.489947 D    
C81   H9    1.073401 S    
S2    O22   1.680534 S    
C122  O98   1.220648 D    
S12   O50   1.503993 D    
C124  O100  1.220002 D    
O13   Zn4   1.944826 S    
O14   Zn3   1.944827 S    
S1    O18   1.502200 D    
C92   C96   1.429493 A    
S26   O106  1.677808 S    
S4    O27   1.502996 D    
O109  H55   0.990421 S    
C101  C106  1.391974 A    
C74   S2    1.779894 S    
C11   C27   1.410909 A    
S2    O21   1.502992 D    
C44   C60   1.426541 A    
C104  C107  1.393576 A    
C59   C68   1.400110 A    
C112  C124  1.485023 S    
O4    Zn1   1.979264 S    
C103  C108  1.394430 A    
S11   O49   1.682562 S    
C91   S28   1.778901 S    
C22   C54   1.410551 A    
N3    C91   1.380009 A    
C48   C64   1.427674 A    
S3    O25   1.682003 S    
C70   H6    1.068479 S    
C119  H39   1.080920 S    
C114  H34   1.082819 S    
C106  C110  1.384779 A    
O124  H60   0.990361 S    
C84   H12   1.077519 S    
C83   C99   1.377929 A    
C34   C42   1.431665 A    
S25   O101  1.504328 D    
O90   H46   0.990543 S    
C63   C72   1.407454 A    
C45   C61   1.428206 A    
S31   O119  1.491788 D    
S32   O124  1.674264 S    
C116  H36   1.085441 S    
S23   O93   1.683029 S    
C117  O69   1.218823 D    
C101  C102  1.399593 A    
O96   H48   0.990640 S    
C118  H38   1.084883 S    
C85   S30   1.791359 S    
S13   O55   1.682840 S    
C105  C109  1.393042 A    
S24   O94   1.503055 D    
O121  H59   0.990944 S    
O1    C1    1.325056 A    
C92   S27   1.764172 S    
C108  C112  1.395135 A    
C37   C45   1.426401 A    
S6    O33   1.502893 D    
C8    C13   1.494278 S    
S14   O57   1.501559 D    
O112  H56   0.990545 S    
N2    C90   1.366169 A    
S19   O80   1.502981 D    
C58   C61   1.417941 A    
C23   C31   1.417780 A    
S12   O52   1.679705 S    
C114  O66   1.214778 D    
S6    O34   1.680054 S    
S27   O107  1.504880 D    
C38   S13   1.787962 S    
C40   C48   1.412202 A    
C110  C122  1.485745 S    
O8    Zn3   1.979264 S    
O81   H43   0.990606 S    
C11   C35   1.419910 A    
C12   C36   1.418352 A    
O16   Zn4   1.920068 S    
S11   O47   1.500415 D    
O2    C2    1.339500 A    
C121  H49   1.085552 S    
S3    O23   1.503455 D    
C5    C16   1.487254 S    
C43   C59   1.412099 A    
S5    O29   1.502294 D    
C106  H14   1.073273 S    
C6    C15   1.513010 S    
C120  H40   1.072135 S    
C81   C97   1.379721 A    
C33   S10   1.790845 S    
S8    O39   1.502418 D    
O19   H17   0.990671 S    
C60   C67   1.405968 A    
S7    O36   1.502619 D    
S30   O117  1.505104 D    
C119  O71   1.220755 D    
C45   C53   1.418764 A    
C66   C74   1.379957 A    
C38   C46   1.429467 A    
S23   O91   1.503472 D    
S9    O42   1.494510 D    
S10   O44   1.503993 D    
C30   C117  1.475034 S    
O78   H42   0.990506 S    
C111  C123  1.485288 S    
O15   C7    1.324159 A    
S27   O109  1.677685 S    
O16   C8    1.318647 A    
C34   S9    1.790678 S    
O1    Zn1   1.988325 S    
C105  H13   1.077852 S    
C107  C111  1.388774 A    
C96   C100  1.416378 A    
C22   S22   1.786500 S    
C23   S23   1.789755 S    
C4    C9    1.502200 S    
C14   C30   1.416711 A    
C26   C113  1.473984 S    
O55   H29   0.990640 S    
C82   H10   1.078284 S    
S18   O77   1.503077 D    
C67   C75   1.386692 A    
S8    O38   1.502576 D    
S17   O74   1.499550 D    
C90   C94   1.426818 A    
O52   H28   0.990323 S    
C93   C101  1.400836 A    
S10   O46   1.680211 S    
C113  O65   1.220521 D    
C82   C86   1.387448 A    
Zn1   N2    2.073356 S    
S20   O83   1.502807 D    
O31   H21   0.990780 S    
S31   O120  1.504558 D    
S32   O123  1.499558 D    
Zn3   N4    2.073356 S    
S21   O86   1.503218 D    
O25   H19   0.990269 S    
S29   O115  1.672653 S    
C65   H1    1.059786 S    
C72   C80   1.392230 A    
C52   C80   1.409849 A    
S5    O31   1.679474 S    
C41   C49   1.452805 A    
C13   C37   1.413628 A    
C24   S24   1.791827 S    
S24   O96   1.683029 S    
C16   C40   1.428475 A    
C24   C32   1.412312 A    
S14   O56   1.503297 D    
S25   O102  1.495473 D    
C9    C33   1.390589 A    
C44   C52   1.421444 A    
O106  H54   0.987514 S    
C32   C119  1.478289 S    
S12   O51   1.496013 D    
O64   H32   0.987824 S    
S1    O17   1.502651 D    
C70   C78   1.383669 A    
C50   C78   1.409086 A    
