data_mof_unit_36549.cif
_audit_creation_date              2012-12-11T15:41:05-0500
_audit_creation_method            fapswitch 2.2
_symmetry_space_group_name_H-M    P1
_symmetry_Int_Tables_number       1
_space_group_crystal_system       triclinic
_cell_length_a                    19.163494
_cell_length_b                    10.959281
_cell_length_c                    18.683038
_cell_angle_alpha                 89.76197
_cell_angle_beta                  89.569259
_cell_angle_gamma                 89.750954
_cell_volume                      3923.59515751

loop_
_atom_site_label
_atom_site_type_symbol
_atom_type_description
_atom_site_fract_x
_atom_site_fract_y
_atom_site_fract_z
_atom_type_partial_charge
C1    C     C_R   0.709758 0.999366 0.861289 0.555083
C2    C     C_R   0.290047 0.999411 0.138495 0.555297
C3    C     C_R   0.209758 0.499367 0.861288 0.555088
C4    C     C_R   0.790047 0.499411 0.138494 0.555285
C5    C     C_R   0.712773 0.507509 0.031151 0.108330
C6    C     C_R   0.286503 0.508502 0.968763 0.109392
C7    C     C_R   0.212768 0.007494 0.031154 0.108332
C8    C     C_R   0.786507 0.008484 0.968760 0.109407
C9    C     C_R   0.701347 0.483204 0.959354 -0.039596
C10   C     C_R   0.297972 0.484440 0.040669 -0.039409
C11   C     C_R   0.201341 0.983188 0.959358 -0.039590
C12   C     C_R   0.797976 0.984423 0.040666 -0.039407
C13   C     C_R   0.823687 0.435666 0.943689 0.232564
C14   C     C_R   0.175837 0.436881 0.056442 0.230436
C15   C     C_R   0.323686 0.935680 0.943686 0.232569
C16   C     C_R   0.675840 0.936885 0.056442 0.230442
C17   C     C_R   0.832920 0.448783 0.017281 -0.100122
C18   C     C_R   0.166648 0.449613 0.982735 -0.100578
C19   C     C_R   0.332923 0.948803 0.017278 -0.100109
C20   C     C_R   0.666650 0.949615 0.982735 -0.100579
C21   C     C_3   0.641799 0.462757 0.051921 0.107788
C22   C     C_3   0.357857 0.464391 0.948323 0.107836
C23   C     C_3   0.141798 0.962722 0.051927 0.107791
C24   C     C_3   0.857855 0.964354 0.948320 0.107830
C25   C     C_3   0.629490 0.435814 0.973291 -0.229764
C26   C     C_3   0.370211 0.437566 0.027103 -0.229804
C27   C     C_3   0.129488 0.935778 0.973297 -0.229757
C28   C     C_3   0.870209 0.937530 0.027099 -0.229790
C29   C     C_R   0.754983 0.437633 0.915581 -0.016199
C30   C     C_R   0.244545 0.438644 0.084525 -0.017432
C31   C     C_R   0.254980 0.937631 0.915582 -0.016201
C32   C     C_R   0.744547 0.938640 0.084524 -0.017426
C33   C     C_R   0.501906 0.149952 0.424387 0.006191
C34   C     C_R   0.512224 0.171557 0.571497 0.017412
C35   C     C_R   0.001888 0.649951 0.424398 0.006171
C36   C     C_R   0.012211 0.671562 0.571507 0.017430
C37   C     C_R   0.541874 0.242505 0.453612 -0.015542
C38   C     C_R   0.547243 0.251417 0.526011 0.017889
C39   C     C_R   0.041869 0.742492 0.453618 -0.015553
C40   C     C_R   0.047238 0.751409 0.526014 0.017889
C41   C     C_R   0.477803 0.069862 0.544999 -0.037546
C42   C     C_R   0.479969 0.049146 0.470016 -0.034005
C43   C     C_R   0.977784 0.569872 0.545015 -0.037538
C44   C     C_R   0.979939 0.549156 0.470032 -0.034004
C45   C     C_R   0.528581 0.177856 0.850129 0.535601
C46   C     C_R   0.471243 0.177876 0.149734 0.544335
C47   C     C_R   0.028580 0.677856 0.850128 0.535567
C48   C     C_R   0.971221 0.677879 0.149722 0.544358
C49   C     C_3   0.540763 0.378791 0.444141 -0.274852
C50   C     C_3   0.542768 0.387431 0.524586 -0.263276
C51   C     C_3   0.040775 0.878777 0.444141 -0.274853
C52   C     C_3   0.042783 0.887427 0.524586 -0.263267
C53   C     C_R   0.748441 0.415704 0.421962 0.007343
C54   C     C_R   0.252965 0.386018 0.584588 0.010195
C55   C     C_R   0.248448 0.915716 0.421966 0.007349
C56   C     C_R   0.752969 0.886007 0.584592 0.010196
C57   C     C_R   0.783005 0.318939 0.453708 -0.001028
C58   C     C_R   0.202689 0.322369 0.546179 0.023700
C59   C     C_R   0.283014 0.818954 0.453712 -0.001038
C60   C     C_R   0.702698 0.822337 0.546187 0.023706
C61   C     C_R   0.783041 0.308023 0.527128 0.003583
C62   C     C_R   0.212226 0.298192 0.475061 -0.000376
C63   C     C_R   0.283046 0.808033 0.527131 0.003593
C64   C     C_R   0.712232 0.798167 0.475067 -0.000367
C65   C     C_R   0.716389 0.493074 0.540227 -0.181286
C66   C     C_R   0.329912 0.366464 0.480137 -0.162605
C67   C     C_R   0.216398 0.993087 0.540231 -0.181307
C68   C     C_R   0.829912 0.866479 0.480135 -0.162609
C69   C     C_R   0.714318 0.502222 0.465728 -0.170023
C70   C     C_R   0.320119 0.395628 0.553528 -0.175690
C71   C     C_R   0.214327 0.002237 0.465732 -0.170024
C72   C     C_R   0.820120 0.895635 0.553528 -0.175687
C73   C     C_3   0.769024 0.186134 0.444024 -0.273596
C74   C     C_3   0.126885 0.349677 0.534833 -0.256877
C75   C     C_3   0.269041 0.686149 0.444024 -0.273602
C76   C     C_3   0.626887 0.849605 0.534850 -0.256892
C77   C     C_3   0.771949 0.174347 0.524369 -0.234912
C78   C     C_3   0.139499 0.327873 0.456448 -0.269052
C79   C     C_3   0.271958 0.674356 0.524369 -0.234919
C80   C     C_3   0.639499 0.827825 0.456462 -0.269053
C81   C     C_R   0.749186 0.392648 0.571341 0.015197
C82   C     C_R   0.272780 0.327105 0.438730 0.009813
C83   C     C_R   0.249191 0.892656 0.571345 0.015204
C84   C     C_R   0.772781 0.827105 0.438731 0.009806
C85   C     C_R   0.738859 0.367132 0.851422 0.529342
C86   C     C_R   0.261019 0.367330 0.148642 0.539304
C87   C     C_R   0.238858 0.867131 0.851423 0.529348
C88   C     C_R   0.761019 0.867330 0.148642 0.539302
C89   C     C_R   0.729266 0.950528 0.649322 0.535409
C90   C     C_R   0.270737 0.953457 0.351286 0.541334
C91   C     C_R   0.229266 0.450531 0.649321 0.535415
C92   C     C_R   0.770736 0.453454 0.351285 0.541320
C93   C     C_R   0.530920 0.177370 0.644751 0.546158
C94   C     C_R   0.469114 0.173267 0.355955 0.547459
C95   C     C_R   0.030916 0.677371 0.644755 0.546141
C96   C     C_R   0.969110 0.673267 0.355957 0.547460
C97   C     C_R   0.739182 0.359859 0.645538 0.532152
C98   C     C_R   0.274897 0.309693 0.360695 0.557851
C99   C     C_R   0.239184 0.859862 0.645539 0.532165
C100  C     C_R   0.774896 0.809694 0.360695 0.557848
C101  C     C_2   0.496013 0.171347 0.920887 -0.123342
C102  C     C_2   0.503312 0.171396 0.078724 -0.122204
C103  C     C_2   0.996009 0.671346 0.920883 -0.123358
C104  C     C_2   0.003301 0.671396 0.078719 -0.122210
C105  C     C_2   0.497047 0.070253 0.039336 -0.133808
C106  C     C_2   0.502067 0.070097 0.960690 -0.135422
C107  C     C_2   0.997037 0.570252 0.039331 -0.133809
C108  C     C_2   0.002061 0.570095 0.960685 -0.135422
C109  C     C_R   0.777258 0.480015 0.062372 -0.071742
C110  C     C_R   0.222273 0.480505 0.937573 -0.072067
C111  C     C_R   0.277258 0.980017 0.062372 -0.071737
C112  C     C_R   0.722275 0.980498 0.937573 -0.072064
Cr1   Cr    Cr6+3 0.769260 0.163750 0.750730 1.036479
Cr2   Cr    Cr6+3 0.230740 0.163750 0.249270 1.043758
Cr3   Cr    Cr6+3 0.269260 0.663750 0.750730 1.036460
Cr4   Cr    Cr6+3 0.730740 0.663750 0.249270 1.043745
Cr5   Cr    Cr6+3 0.612640 0.009910 0.748780 0.990059
Cr6   Cr    Cr6+3 0.387360 0.009910 0.251220 0.985425
Cr7   Cr    Cr6+3 0.112640 0.509910 0.748780 0.990057
Cr8   Cr    Cr6+3 0.887360 0.509910 0.251220 0.985428
Cr9   Cr    Cr6+3 0.614190 0.322400 0.747710 1.004329
Cr10  Cr    Cr6+3 0.385810 0.322400 0.252290 1.000766
Cr11  Cr    Cr6+3 0.114190 0.822400 0.747710 1.004330
Cr12  Cr    Cr6+3 0.885810 0.822400 0.252290 1.000770
H1    H     H_    0.487229 0.983752 0.065686 0.190202
H2    H     H_    0.511920 0.983455 0.934752 0.188710
H3    H     H_    0.987213 0.483753 0.065680 0.190191
H4    H     H_    0.011916 0.483453 0.934748 0.188716
H5    H     H_    0.992181 0.919052 0.422662 0.157336
H6    H     H_    0.089880 0.930894 0.545699 0.163033
H7    H     H_    0.492166 0.419055 0.422662 0.157335
H8    H     H_    0.589860 0.430916 0.545702 0.163021
H9    H     H_    0.588957 0.412328 0.417474 0.145177
H10   H     H_    0.493190 0.422298 0.548350 0.127166
H11   H     H_    0.088971 0.912291 0.417469 0.145183
H12   H     H_    0.993210 0.922321 0.548350 0.127167
H13   H     H_    0.689028 0.559443 0.572924 0.124911
H14   H     H_    0.379876 0.382786 0.455103 0.130212
H15   H     H_    0.189040 0.059459 0.572929 0.124915
H16   H     H_    0.879871 0.882822 0.455098 0.130213
H17   H     H_    0.686724 0.577435 0.441835 0.139600
H18   H     H_    0.362415 0.436130 0.583124 0.113964
H19   H     H_    0.186735 0.077452 0.441839 0.139606
H20   H     H_    0.862414 0.936148 0.583121 0.113970
H21   H     H_    0.812144 0.137297 0.416302 0.144419
H22   H     H_    0.112306 0.445897 0.546483 0.163300
H23   H     H_    0.312166 0.637326 0.416306 0.144417
H24   H     H_    0.612290 0.945816 0.546507 0.163330
H25   H     H_    0.716265 0.168171 0.422017 0.140944
H26   H     H_    0.093157 0.278685 0.559598 0.122154
H27   H     H_    0.216287 0.668178 0.422011 0.140945
H28   H     H_    0.593177 0.778588 0.559615 0.122144
H29   H     H_    0.721520 0.145747 0.548866 0.148226
H30   H     H_    0.113070 0.246766 0.434901 0.143316
H31   H     H_    0.221528 0.645752 0.548860 0.148222
H32   H     H_    0.613073 0.746717 0.434910 0.143306
H33   H     H_    0.819504 0.127712 0.543723 0.145149
H34   H     H_    0.137000 0.413210 0.424151 0.150784
H35   H     H_    0.319510 0.627719 0.543726 0.145143
H36   H     H_    0.636990 0.913172 0.424175 0.150784
H37   H     H_    0.519993 0.256700 0.054523 0.088636
H38   H     H_    0.479241 0.256810 0.944728 0.089756
H39   H     H_    0.019986 0.756700 0.054519 0.088636
H40   H     H_    0.979235 0.756808 0.944723 0.089760
H41   H     H_    0.883264 0.430190 0.039567 0.157962
H42   H     H_    0.116470 0.430821 0.960430 0.158278
H43   H     H_    0.383272 0.930228 0.039562 0.157956
H44   H     H_    0.616473 0.930829 0.960431 0.158272
H45   H     H_    0.642658 0.381115 0.087668 0.115756
H46   H     H_    0.357700 0.382748 0.912963 0.113260
H47   H     H_    0.142666 0.881079 0.087674 0.115758
H48   H     H_    0.857690 0.882711 0.912962 0.113249
H49   H     H_    0.624799 0.336568 0.962208 0.107549
H50   H     H_    0.375600 0.338353 0.038651 0.105738
H51   H     H_    0.124805 0.836530 0.962214 0.107545
H52   H     H_    0.875591 0.838319 0.038649 0.105717
H53   H     H_    0.588684 0.494139 0.948313 0.170551
H54   H     H_    0.410548 0.496182 0.051874 0.171918
H55   H     H_    0.088675 0.994093 0.948321 0.170563
H56   H     H_    0.910551 0.996136 0.051868 0.171932
O1    O     O_R   0.784290 0.290360 0.830540 -0.474560
O2    O     O_R   0.215710 0.290360 0.169460 -0.465807
O3    O     O_R   0.284290 0.790360 0.830540 -0.474544
O4    O     O_R   0.715710 0.790360 0.169460 -0.465800
O5    O     O_R   0.554690 0.080440 0.673480 -0.512482
O6    O     O_R   0.445310 0.080440 0.326520 -0.528325
O7    O     O_R   0.054690 0.580440 0.673480 -0.512509
O8    O     O_R   0.945310 0.580440 0.326520 -0.528329
O9    O     O_R   0.543980 0.282110 0.666770 -0.520887
O10   O     O_R   0.456020 0.282110 0.333230 -0.529783
O11   O     O_R   0.043980 0.782110 0.666770 -0.520887
O12   O     O_R   0.956020 0.782110 0.333230 -0.529773
O13   O     O_R   0.679070 0.374030 0.674430 -0.503239
O14   O     O_R   0.320930 0.374030 0.325570 -0.507294
O15   O     O_R   0.179070 0.874030 0.674430 -0.503243
O16   O     O_R   0.820930 0.874030 0.325570 -0.507297
O17   O     O_3   0.665360 0.165350 0.749070 -0.267565
O18   O     O_3   0.334640 0.165350 0.250930 -0.289714
O19   O     O_3   0.165360 0.665350 0.749070 -0.267559
O20   O     O_3   0.834640 0.665350 0.250930 -0.289723
O21   O     O_R   0.762610 0.041070 0.825230 -0.459677
O22   O     O_R   0.237390 0.041070 0.174770 -0.457889
O23   O     O_R   0.262610 0.541070 0.825230 -0.459688
O24   O     O_R   0.737390 0.541070 0.174770 -0.457891
O25   O     O_R   0.667390 0.924160 0.829970 -0.514957
O26   O     O_R   0.332610 0.924160 0.170030 -0.513603
O27   O     O_R   0.167390 0.424160 0.829970 -0.514942
O28   O     O_R   0.832610 0.424160 0.170030 -0.513604
O29   O     O_R   0.553980 0.081420 0.821780 -0.518963
O30   O     O_R   0.446020 0.081420 0.178220 -0.507108
O31   O     O_R   0.053980 0.581420 0.821780 -0.518969
O32   O     O_R   0.946020 0.581420 0.178220 -0.507104
O33   O     O_R   0.543210 0.283170 0.826740 -0.519791
O34   O     O_R   0.456790 0.283170 0.173260 -0.518122
O35   O     O_R   0.043210 0.783170 0.826740 -0.519794
O36   O     O_R   0.956790 0.783170 0.173260 -0.518130
O37   O     O_R   0.678350 0.375000 0.822720 -0.505004
O38   O     O_R   0.321650 0.375000 0.177280 -0.500294
O39   O     O_R   0.178350 0.875000 0.822720 -0.505002
O40   O     O_R   0.821650 0.875000 0.177280 -0.500303
O41   O     O_R   0.785060 0.289300 0.670580 -0.532399
O42   O     O_R   0.214940 0.289300 0.329420 -0.527847
O43   O     O_R   0.285060 0.789300 0.670580 -0.532361
O44   O     O_R   0.714940 0.789300 0.329420 -0.527844
O45   O     O_R   0.763330 0.040090 0.676940 -0.504609
O46   O     O_R   0.236670 0.040090 0.323060 -0.519364
O47   O     O_R   0.263330 0.540090 0.676940 -0.504619
O48   O     O_R   0.736670 0.540090 0.323060 -0.519361
O49   O     O_R   0.668160 0.923110 0.670000 -0.519162
O50   O     O_R   0.331840 0.923110 0.330000 -0.539044
O51   O     O_R   0.168160 0.423110 0.670000 -0.519157
O52   O     O_R   0.831840 0.423110 0.330000 -0.539064
O53   O     O_3   0.881823 0.410371 0.902460 -0.673193
H57   H     H_    0.872938 0.441515 0.853496 0.319053
O54   O     O_3   0.117777 0.411705 0.097807 -0.668903
H58   H     H_    0.126631 0.441623 0.146903 0.331667
O55   O     O_3   0.381823 0.910395 0.902455 -0.673191
H59   H     H_    0.372932 0.941528 0.853489 0.319065
O56   O     O_3   0.617780 0.911718 0.097808 -0.668923
H60   H     H_    0.626635 0.941634 0.146904 0.331663
O57   O     O_3   0.099775 0.058411 0.077179 -0.638964
H61   H     H_    0.053731 0.021504 0.088225 0.319391
O58   O     O_3   0.899165 0.060434 0.922694 -0.639328
H62   H     H_    0.945501 0.023935 0.911847 0.318237
O59   O     O_3   0.599784 0.558457 0.077171 -0.638969
H63   H     H_    0.553736 0.521564 0.088215 0.319390
O60   O     O_3   0.399160 0.560486 0.922700 -0.639314
H64   H     H_    0.445508 0.524007 0.911873 0.318225
C113  C     C_3   0.425031 0.007373 0.595079 -0.244161
C114  C     C_3   0.451908 0.888235 0.629914 -0.285101
C115  C     C_3   0.435944 0.882338 0.710231 -0.387395
H65   H     H_    0.469840 0.945707 0.739997 0.181811
H66   H     H_    0.380996 0.908031 0.721446 0.166840
H67   H     H_    0.445474 0.788370 0.730509 0.147823
H68   H     H_    0.426861 0.808578 0.604174 0.145236
H69   H     H_    0.508928 0.878562 0.622544 0.178587
H70   H     H_    0.407881 0.072821 0.637150 0.137041
H71   H     H_    0.376228 0.990056 0.565751 0.133302
C116  C     C_3   0.444671 0.933034 0.443830 -0.210405
C117  C     C_3   0.481799 0.858506 0.384138 -0.251258
C118  C     C_3   0.480438 0.720785 0.398776 -0.472601
H72   H     H_    0.499422 0.698743 0.453338 0.137240
H73   H     H_    0.426453 0.686379 0.393959 0.155147
H74   H     H_    0.513681 0.672688 0.358848 0.142416
H75   H     H_    0.455624 0.870019 0.332064 0.218285
H76   H     H_    0.535465 0.890698 0.375382 0.152815
H77   H     H_    0.436598 0.868967 0.488641 0.139581
H78   H     H_    0.392125 0.961332 0.429377 0.180640
C119  C     C_3   0.925033 0.507360 0.595112 -0.244186
C120  C     C_3   0.951952 0.388267 0.629966 -0.285099
C121  C     C_3   0.935990 0.382397 0.710285 -0.387516
H79   H     H_    0.969731 0.446042 0.740018 0.181807
H80   H     H_    0.880993 0.407744 0.721481 0.167000
H81   H     H_    0.945723 0.288535 0.730617 0.147758
H82   H     H_    0.926942 0.308563 0.604240 0.145221
H83   H     H_    0.008976 0.378664 0.622602 0.178706
H84   H     H_    0.907871 0.572815 0.637175 0.137038
H85   H     H_    0.876229 0.489982 0.565798 0.133298
C122  C     C_3   0.944619 0.433064 0.443848 -0.210334
C123  C     C_3   0.981765 0.358507 0.384175 -0.251190
C124  C     C_3   0.980427 0.220789 0.398845 -0.472574
H86   H     H_    0.999422 0.198795 0.453415 0.137248
H87   H     H_    0.926446 0.186349 0.394042 0.155127
H88   H     H_    0.013671 0.172680 0.358922 0.142394
H89   H     H_    0.955591 0.369980 0.332094 0.218261
H90   H     H_    0.035425 0.390724 0.375416 0.152814
H91   H     H_    0.936496 0.368996 0.488665 0.139563
H92   H     H_    0.892083 0.461426 0.429368 0.180624

loop_
_geom_bond_atom_site_label_1
_geom_bond_atom_site_label_2
_ccdc_geom_bond_type
Cr8   O32   S    
C121  H81   S    
C39   C51   S    
C4    C109  S    
C48   O36   A    
C58   C62   A    
C55   C59   A    
C16   C32   A    
C3    O23   A    
C41   C42   A    
C96   O8    A    
O56   H60   S    
C2    O22   A    
C34   C93   S    
C113  H71   S    
C53   C69   A    
C33   C94   S    
Cr8   O52   S    
C104  H39   S    
Cr12  O40   S    
C51   H5    S    
O54   H58   S    
C9    C25   S    
C115  H65   S    
C63   C79   S    
C35   C96   S    
C65   C69   A    
C124  H88   S    
C67   C83   A    
C49   H7    S    
Cr9   O33   S    
C103  H40   S    
C37   C38   A    
C75   C79   S    
C5    C109  A    
C24   O58   S    
Cr7   O19   S    
C33   C42   A    
C90   O50   A    
C13   C29   A    
C101  H38   S    
Cr6   O26   S    
C27   H55   S    
C55   C90   S    
C47   O31   A    
C8    C112  A    
C1    C112  S    
C87   O3    A    
C118  H72   S    
Cr4   O20   S    
C50   H8    S    
C25   H53   S    
C80   H36   S    
C44   C122  S    
Cr2   O46   S    
C100  O44   A    
C3    C110  S    
C69   H17   S    
O58   H62   S    
C48   C104  S    
C99   O15   A    
C114  H68   S    
C37   C49   S    
C98   O14   A    
C102  C105  D    
C72   H20   S    
O57   H61   S    
C86   O38   A    
C57   C73   S    
C85   O37   A    
C123  H89   S    
C64   C84   A    
C49   H9    S    
C116  H78   S    
C77   H29   S    
C15   C19   A    
C51   H11   S    
C78   H34   S    
Cr1   O1    S    
C48   O32   A    
C16   O56   S    
C61   C77   S    
C56   C72   A    
C47   O35   A    
C89   O45   A    
C45   O33   A    
C107  C108  S    
Cr2   O22   S    
Cr10  O34   S    
C80   H32   S    
C103  C108  D    
C2    O26   A    
C87   O39   A    
Cr4   O44   S    
C30   C86   S    
C67   H15   S    
O53   H57   S    
C98   O42   A    
C29   C85   S    
C13   O53   S    
C7    C23   S    
C120  H82   S    
Cr7   O51   S    
C116  H77   S    
C65   H13   S    
C19   C111  A    
C10   C26   S    
C6    C22   S    
C26   H54   S    
C62   C82   A    
C97   O13   A    
C1    O21   A    
C73   H25   S    
C83   C99   S    
C119  C120  S    
C12   C32   A    
C114  H69   S    
C64   C80   S    
Cr11  O15   S    
C34   C41   A    
C19   H43   S    
Cr10  O14   S    
C91   O51   A    
Cr8   O8    S    
Cr9   O13   S    
C14   O54   S    
Cr4   O24   S    
C4    O24   A    
C74   H22   S    
C60   C64   A    
C7    C11   A    
C123  H90   S    
C100  O16   A    
C79   H31   S    
C18   H42   S    
C62   C78   S    
C20   H44   S    
Cr10  O10   S    
C99   O43   A    
C2    C111  S    
C70   H18   S    
C31   C87   S    
C82   C98   S    
C95   O7    A    
C51   C52   S    
C68   C84   A    
C18   C110  A    
Cr11  O35   S    
C36   C40   A    
C47   C103  S    
C123  C124  S    
C88   O4    A    
C50   H10   S    
C27   H51   S    
C39   C40   A    
C118  H73   S    
O59   H63   S    
C53   C57   A    
C78   H30   S    
C115  H67   S    
C21   O59   S    
C7    C111  A    
C52   H12   S    
C46   O34   A    
C114  C115  S    
C40   C52   S    
Cr3   O19   S    
Cr11  O39   S    
C60   C76   S    
C45   O29   A    
C56   C60   A    
C76   H24   S    
Cr3   O23   S    
C68   C72   A    
Cr8   O28   S    
C55   C71   A    
C6    C110  A    
C35   C39   A    
C43   C44   A    
C94   O10   A    
Cr3   O47   S    
C42   C116  S    
C120  H83   S    
C66   C82   A    
C46   C102  S    
C10   C30   A    
Cr1   O45   S    
Cr2   O42   S    
C54   C70   A    
C11   C27   S    
C8    C12   A    
C63   C83   A    
C17   H41   S    
Cr12  O16   S    
C53   C92   S    
C54   C58   A    
C113  C114  S    
C119  H84   S    
C16   C20   A    
C108  H4    S    
C57   C61   A    
C35   C44   A    
C28   H56   S    
Cr1   O41   S    
C106  H2    S    
C22   H46   S    
C45   C101  S    
C73   H21   S    
C56   C89   S    
C84   C100  S    
C12   C28   S    
Cr5   O5    S    
C23   C27   S    
C74   C78   S    
C66   H14   S    
C59   C63   A    
C68   H16   S    
C32   C88   S    
Cr7   O27   S    
C117  H76   S    
C116  C117  S    
Cr6   O18   S    
C59   C75   S    
C46   O30   A    
Cr12  O12   S    
Cr5   O17   S    
C58   C74   S    
C24   C28   S    
C33   C37   A    
C23   O57   S    
Cr12  O36   S    
Cr11  O19   S    
C101  C106  D    
C121  H80   S    
C26   H50   S    
C21   C25   S    
C85   O1    A    
C95   O11   A    
Cr10  O38   S    
C91   O47   A    
C34   C38   A    
Cr7   O31   S    
C14   C18   A    
C90   O46   A    
C28   H52   S    
C76   C80   S    
C113  H70   S    
C117  C118  S    
C17   C109  A    
Cr9   O17   S    
C122  H91   S    
Cr3   O3    S    
O60   H64   S    
C15   C31   A    
C38   C50   S    
C93   O9    A    
C124  H87   S    
Cr9   O37   S    
C105  C106  S    
Cr12  O20   S    
Cr5   O25   S    
C118  H74   S    
C94   O6    A    
C105  H1    S    
Cr6   O30   S    
C75   H23   S    
C122  H92   S    
C96   O12   A    
C92   O52   A    
Cr5   O29   S    
C9    C29   A    
C124  H86   S    
C122  C123  S    
C14   C30   A    
C54   C91   S    
Cr1   O21   S    
Cr2   O2    S    
Cr9   O9    S    
C52   H6    S    
Cr10  O18   S    
C36   C95   S    
C86   O2    A    
C22   O60   S    
C71   H19   S    
C81   C97   S    
Cr6   O50   S    
C102  H37   S    
C21   H45   S    
Cr2   O18   S    
Cr4   O4    S    
C79   H35   S    
Cr5   O49   S    
C3    O27   A    
C8    C24   S    
C97   O41   A    
C119  H85   S    
Cr1   O17   S    
C67   C71   A    
C1    O25   A    
C25   H49   S    
C24   H48   S    
C15   O55   S    
Cr7   O7    S    
C43   C119  S    
C115  H66   S    
C6    C10   A    
Cr3   O43   S    
C11   C31   A    
C13   C17   A    
C88   O40   A    
Cr8   O20   S    
C5    C21   S    
C66   C70   A    
C92   O48   A    
C73   C77   S    
C49   C50   S    
C22   C26   S    
C20   C112  A    
C41   C113  S    
C75   H27   S    
Cr6   O6    S    
C76   H28   S    
C65   C81   A    
C74   H26   S    
C36   C43   A    
C61   C81   A    
C5    C9    A    
C107  H3    S    
C4    O28   A    
C89   O49   A    
C117  H75   S    
O55   H59   S    
Cr11  O11   S    
C104  C107  D    
C120  C121  S    
C121  H79   S    
C77   H33   S    
Cr4   O48   S    
C23   H47   S    
C93   O5    A    
