data_mof_unit_34364.cif
_audit_creation_date              2012-12-11T15:30:37-0500
_audit_creation_method            fapswitch 2.2
_symmetry_space_group_name_H-M    P1
_symmetry_Int_Tables_number       1
_space_group_crystal_system       triclinic
_cell_length_a                    6.967048
_cell_length_b                    20.456557
_cell_length_c                    24.408586
_cell_angle_alpha                 89.769016
_cell_angle_beta                  90.250097
_cell_angle_gamma                 89.554175
_cell_volume                      3478.58876701

loop_
_atom_site_label
_atom_site_type_symbol
_atom_type_description
_atom_site_fract_x
_atom_site_fract_y
_atom_site_fract_z
_atom_type_partial_charge
O1    O     O_R   0.507310 0.423620 0.460450 -0.534715
O2    O     O_R   0.170760 0.556060 0.437190 -0.538472
O3    O     O_R   0.004040 0.576380 0.539550 -0.536328
C1    C     C_R   0.339251 0.576129 0.421346 0.722454
O4    O     O_R   0.177350 0.422870 0.454070 -0.537264
O5    O     O_R   0.010680 0.442240 0.556560 -0.532457
C2    C     C_R   0.346362 0.398855 0.443613 0.698905
O6    O     O_R   0.500670 0.557760 0.443440 -0.536269
O7    O     O_3   0.340380 0.506510 0.533610 -0.366523
V1    V     V_3+5 0.064130 0.498790 0.493770 1.428812
O8    O     O_R   0.681170 0.443940 0.562810 -0.537764
C3    C     C_R   0.850558 0.423849 0.578646 0.728336
O9    O     O_R   0.674570 0.577130 0.545930 -0.538016
C4    C     C_R   0.842541 0.601063 0.556590 0.701546
V2    V     V_3+5 0.564560 0.501210 0.506230 1.430392
O10   O     O_3   0.838170 0.493490 0.466390 -0.368518
C5    C     C_R   0.977619 0.838522 0.910395 -0.129475
C6    C     C_R   0.846403 0.662128 0.588483 -0.084892
C7    C     C_R   0.073019 0.725174 0.902492 -0.095684
C8    C     C_R   0.050323 0.781177 0.933869 -0.298887
C9    C     C_R   0.922085 0.839214 0.854754 0.563106
C10   C     C_R   0.936071 0.781222 0.822160 -0.091579
C11   C     C_R   0.021364 0.724943 0.846818 -0.053100
C12   C     C_R   0.876877 0.777495 0.765664 0.024018
C13   C     C_R   0.922945 0.721192 0.733685 -0.031698
C14   C     C_R   0.017837 0.668403 0.759805 -0.245825
C15   C     C_R   0.060251 0.669411 0.815412 0.625741
C16   C     C_R   0.759147 0.825628 0.741440 -0.094855
C17   C     C_R   0.715503 0.826105 0.685338 0.077050
C18   C     C_R   0.794161 0.776612 0.651004 0.042976
C19   C     C_R   0.873506 0.719508 0.676547 0.071888
C20   C     C_R   0.785388 0.779086 0.592467 0.140573
C21   C     C_R   0.796720 0.720653 0.562821 -0.168805
C22   C     C_R   0.893752 0.662032 0.644267 -0.202340
H1    H     H_    0.934234 0.615489 0.661830 0.105325
H2    H     H_    0.772015 0.721003 0.518934 0.109723
H3    H     H_    0.135592 0.682211 0.921817 0.187732
H4    H     H_    0.095921 0.780428 0.976377 0.134260
H5    H     H_    0.063222 0.625239 0.738167 0.151995
H6    H     H_    0.685378 0.860746 0.766679 0.202260
C23   C     C_3   0.763413 0.256315 0.801433 -0.345667
C24   C     C_3   0.117235 0.246196 0.783315 -0.338770
C25   C     C_3   0.096828 0.295975 0.735200 -0.304972
H7    H     H_    0.761180 0.356507 0.768936 0.182985
H8    H     H_    0.790664 0.283282 0.840166 0.162282
H9    H     H_    0.238958 0.212152 0.774988 0.149441
H10   H     H_    0.152249 0.272800 0.821717 0.149192
H11   H     H_    0.120918 0.346305 0.750804 0.144727
H12   H     H_    0.209899 0.286030 0.704204 0.181957
C26   C     C_1   0.862577 0.378196 0.624292 -0.167526
C27   C     C_3   0.929423 0.206939 0.790887 0.207399
C28   C     C_3   0.743294 0.305935 0.753180 -0.444495
C29   C     C_3   0.894875 0.291792 0.708262 0.179605
C30   C     C_3   0.864825 0.220592 0.688039 0.520272
C31   C     C_3   0.886173 0.171002 0.736396 -0.350739
C32   C     C_1   0.875864 0.339523 0.662133 -0.020933
C33   C     C_1   0.948244 0.159598 0.837265 -0.060149
C34   C     C_1   0.961547 0.121286 0.875355 -0.170177
H13   H     H_    0.751460 0.142517 0.740429 0.112115
H14   H     H_    0.003523 0.135408 0.727555 0.188934
H15   H     H_    0.718517 0.216212 0.669992 0.058844
H16   H     H_    0.625978 0.229635 0.806565 0.147079
H17   H     H_    0.596235 0.302910 0.735404 0.145567
C35   C     C_3   0.514391 0.680238 0.246387 -0.410059
C36   C     C_3   0.189870 0.726698 0.265310 0.042743
C37   C     C_3   0.213670 0.783196 0.222483 -0.345015
H18   H     H_    0.456772 0.707264 0.160745 0.161291
H19   H     H_    0.454112 0.633137 0.231795 0.152217
H20   H     H_    0.148198 0.683014 0.240874 0.092450
H21   H     H_    0.139711 0.769440 0.183731 0.121593
H22   H     H_    0.142459 0.828767 0.236621 0.147365
C38   C     C_1   0.472884 0.879269 0.125108 -0.196150
C39   C     C_3   0.387253 0.709227 0.292582 0.251441
C40   C     C_3   0.527505 0.728985 0.197290 -0.379574
C41   C     C_3   0.430216 0.795860 0.210936 0.210112
C42   C     C_3   0.526469 0.821787 0.264572 0.019282
C43   C     C_3   0.488836 0.772437 0.312712 -0.322231
C44   C     C_1   0.455050 0.841814 0.163636 -0.091584
C45   C     C_1   0.366639 0.660805 0.338227 -0.077714
C46   C     C_1   0.350716 0.621921 0.375787 -0.200619
H23   H     H_    0.626441 0.758244 0.332115 0.127665
H24   H     H_    0.407468 0.796123 0.345846 0.162112
H25   H     H_    0.682974 0.823411 0.256533 0.132721
H26   H     H_    0.660398 0.668826 0.262413 0.150845
H27   H     H_    0.681068 0.736360 0.186684 0.143322
C47   C     C_R   0.471052 0.162358 0.088063 -0.040113
C48   C     C_R   0.353906 0.338401 0.411070 -0.048128
C49   C     C_R   0.514293 0.279118 0.090927 -0.167868
C50   C     C_R   0.510840 0.220994 0.061705 -0.160958
C51   C     C_R   0.435510 0.162014 0.144560 -0.197527
C52   C     C_R   0.440928 0.220665 0.176074 0.067610
C53   C     C_R   0.480660 0.280427 0.148085 0.072705
C54   C     C_R   0.409744 0.221499 0.234193 0.056722
C55   C     C_R   0.417894 0.281849 0.263620 0.009964
C56   C     C_R   0.456382 0.339551 0.234086 -0.187718
C57   C     C_R   0.487433 0.340225 0.177280 0.110882
C58   C     C_R   0.371114 0.163723 0.264011 -0.175453
C59   C     C_R   0.340597 0.164639 0.320102 -0.200996
C60   C     C_R   0.346846 0.222903 0.349287 0.138605
C61   C     C_R   0.386365 0.282662 0.321964 0.099206
C62   C     C_R   0.312091 0.221533 0.405900 -0.154377
C63   C     C_R   0.314166 0.278834 0.436376 -0.157351
C64   C     C_R   0.390640 0.340485 0.354509 -0.216262
H28   H     H_    0.418587 0.388145 0.337648 0.089514
H29   H     H_    0.284134 0.276758 0.479866 0.127462
H30   H     H_    0.310883 0.118902 0.340912 0.121729
H31   H     H_    0.545719 0.322830 0.067772 0.111286
H32   H     H_    0.540118 0.221782 0.018133 0.102416
H33   H     H_    0.407401 0.114887 0.162398 0.088096
H34   H     H_    0.463048 0.385183 0.255062 0.141022
H35   H     H_    0.362801 0.116271 0.245406 0.119276
H36   H     H_    0.281224 0.175880 0.426643 0.124534
O11   O     O_R   0.323590 0.942280 0.056590 -0.538950
O12   O     O_R   0.647030 0.077140 0.045940 -0.540824
O13   O     O_R   0.813570 0.057750 0.943430 -0.531681
C65   C     C_R   0.478059 0.101129 0.056496 0.681756
O14   O     O_R   0.653510 0.943950 0.062820 -0.540755
O15   O     O_R   0.820100 0.923600 0.960440 -0.530492
C66   C     C_R   0.484953 0.924027 0.078794 0.717504
O16   O     O_R   0.317060 0.076430 0.039590 -0.539193
O17   O     O_3   0.483830 0.993520 0.966410 -0.358967
V3    V     V_3+5 0.760140 0.001200 0.006230 1.447136
O18   O     O_R   0.149560 0.922820 0.954030 -0.539480
C67   C     C_R   0.981523 0.899056 0.943149 0.787891
O19   O     O_R   0.143080 0.056020 0.937150 -0.537922
C68   C     C_R   0.973660 0.076009 0.921252 0.754923
V4    V     V_3+5 0.259690 0.998730 0.993720 1.450079
O20   O     O_3   0.986120 0.006480 0.033580 -0.377323
F1    F     F_    0.147323 0.616130 0.838197 -0.689635
C69   C     C_3   0.785349 0.842410 0.559705 -0.372480
C70   C     C_3   0.958990 0.847032 0.521661 -0.754837
H37   H     H_    0.094173 0.839545 0.545279 0.230432
H38   H     H_    0.950986 0.810321 0.488387 0.219367
H39   H     H_    0.962244 0.896271 0.502365 0.220493
H40   H     H_    0.651273 0.846316 0.535033 0.173827
H41   H     H_    0.794874 0.885255 0.586750 0.208844
F2    F     F_    0.996073 0.205428 0.647374 -0.687045
C71   C     C_3   0.016677 0.735926 0.304170 -0.363583
C72   C     C_3   0.036444 0.787239 0.349220 -0.752667
H42   H     H_    0.133467 0.769188 0.382170 0.220902
H43   H     H_    0.085828 0.834436 0.332466 0.219645
H44   H     H_    0.895824 0.796283 0.368855 0.207277
H45   H     H_    0.892829 0.748861 0.278075 0.168524
H46   H     H_    0.981611 0.688405 0.323839 0.179389
C73   C     C_3   0.468736 0.892905 0.279749 -0.359851
C74   C     C_3   0.598212 0.920913 0.324548 -0.781537
H47   H     H_    0.585024 0.892617 0.363214 0.227919
H48   H     H_    0.750475 0.920136 0.311219 0.225799
H49   H     H_    0.555590 0.972359 0.332768 0.222333
H50   H     H_    0.481619 0.925400 0.243442 0.186136
H51   H     H_    0.317841 0.895665 0.293573 0.181359
C75   C     C_3   0.528603 0.404376 0.146977 -0.338596
C76   C     C_3   0.531008 0.467027 0.181141 -0.787581
H52   H     H_    0.389268 0.475509 0.200653 0.223816
H53   H     H_    0.646113 0.464514 0.212733 0.225995
H54   H     H_    0.560905 0.509408 0.153990 0.221084
H55   H     H_    0.671163 0.400070 0.126982 0.181416
H56   H     H_    0.417773 0.411446 0.114548 0.180819
C77   C     C_3   0.552625 0.871523 0.667458 -0.385232
C78   C     C_3   0.603664 0.943831 0.673829 -0.709986
H57   H     H_    0.606495 0.957565 0.717779 0.240959
H58   H     H_    0.745983 0.954791 0.655972 0.227531
H59   H     H_    0.493285 0.974534 0.652921 0.221715
H60   H     H_    0.502547 0.861850 0.625202 0.177474
H61   H     H_    0.425458 0.861451 0.693473 0.194022
F3    F     F_    0.876405 0.898184 0.832389 -0.724833

loop_
_geom_bond_atom_site_label_1
_geom_bond_atom_site_label_2
_ccdc_geom_bond_type
C13   C19   A    
C18   C20   A    
C41   C42   S    
C54   C55   A    
C31   H13   S    
C4    C6    S    
O2    C1    A    
C56   C57   A    
C1    O6    A    
C70   H39   S    
C21   H2    S    
C20   C69   S    
C73   C74   S    
C51   C52   A    
O16   V4    S    
O18   C67   A    
C17   C77   S    
C29   C30   S    
C62   H36   S    
C14   C15   A    
C62   C63   A    
O13   C68   A    
C35   H19   S    
C9    C10   A    
C16   C17   A    
O17   V4    S    
C71   H45   S    
O14   C66   A    
C77   C78   S    
O15   V3    S    
C18   C19   A    
C58   H35   S    
C72   H44   S    
C14   H5    S    
C30   F2    S    
C16   H6    S    
V2    O10   S    
C74   H49   S    
C53   C57   A    
C5    C8    A    
C36   C39   S    
C50   H32   S    
C63   H29   S    
C47   C65   S    
C22   H1    S    
C24   H9    S    
C35   C40   S    
C35   H26   S    
C38   C44   T    
C7    H3    S    
O11   C66   A    
O8    V2    S    
C25   C29   S    
C2    C48   S    
C49   C53   A    
C35   C39   S    
O1    V2    S    
C11   C15   A    
C76   H53   S    
C25   H11   S    
C23   C28   S    
C27   C31   S    
C73   H50   S    
C28   H17   S    
C24   C27   S    
H7    C28   S    
O13   V3    S    
O9    C4    A    
C23   H16   S    
C42   H25   S    
C41   C44   S    
C58   C59   A    
C74   H48   S    
C75   H56   S    
C40   C41   S    
C78   H59   S    
C42   C43   S    
C47   C51   A    
C52   C53   A    
O4    C2    A    
C49   H31   S    
C25   H12   S    
C13   C14   A    
C47   C50   A    
C61   C64   A    
C26   C32   T    
C9    F3    S    
C77   H61   S    
O12   C65   A    
C78   H58   S    
C7    C11   A    
O14   V3    S    
C17   C18   A    
C52   C54   A    
C48   C63   A    
C8    H4    S    
C5    C67   S    
O18   V4    S    
C37   H22   S    
C77   H60   S    
C55   C61   A    
C72   H42   S    
C39   C45   S    
C19   C22   A    
H18   C40   S    
O15   C67   A    
C12   C13   A    
C76   H54   S    
C6    C22   A    
O17   V3    S    
C73   H51   S    
O3    C4    A    
C27   C33   S    
C36   C71   S    
C60   C62   A    
C69   H40   S    
C42   C73   S    
C34   C68   S    
O6    V2    S    
O9    V2    S    
O19   C68   A    
C15   F1    S    
C48   C64   A    
C24   C25   S    
V4    O20   S    
O2    V1    S    
C54   C58   A    
C28   C29   S    
C74   H47   S    
O7    V1    S    
C29   C32   S    
C30   C31   S    
C23   H8    S    
O1    C2    A    
C69   H41   S    
C12   C16   A    
C70   H38   S    
C56   H34   S    
O5    V1    S    
C3    C26   S    
O8    C3    A    
C1    C46   S    
O11   V4    S    
C30   H15   S    
C59   H30   S    
C60   C61   A    
C78   H57   S    
C7    C8    A    
C69   C70   S    
O7    V2    S    
O4    V1    S    
O3    V1    S    
V1    O10   S    
C20   C21   A    
O5    C3    A    
C72   H43   S    
C33   C34   T    
C37   H21   S    
C43   H24   S    
C36   H20   S    
C37   C41   S    
C38   C66   S    
C59   C60   A    
C75   H55   S    
C10   C12   A    
C24   H10   S    
C36   C37   S    
C40   H27   S    
V3    O20   S    
C55   C56   A    
C6    C21   A    
C5    C9    A    
C71   C72   S    
C45   C46   T    
O12   V3    S    
C65   O16   A    
C49   C50   A    
C43   H23   S    
C64   H28   S    
O19   V4    S    
C39   C43   S    
C10   C11   A    
C71   H46   S    
C75   C76   S    
C51   H33   S    
C76   H52   S    
C31   H14   S    
C23   C27   S    
C70   H37   S    
C57   C75   S    
