data_mof_unit_38158.cif
_audit_creation_date              2012-12-11T15:08:36-0500
_audit_creation_method            fapswitch 2.2
_symmetry_space_group_name_H-M    P1
_symmetry_Int_Tables_number       1
_space_group_crystal_system       triclinic
_cell_length_a                    26.789856
_cell_length_b                    7.093602
_cell_length_c                    12.010759
_cell_angle_alpha                 89.99443
_cell_angle_beta                  103.387221
_cell_angle_gamma                 90.008422
_cell_volume                      2220.46280069

loop_
_atom_site_label
_atom_site_type_symbol
_atom_type_description
_atom_site_fract_x
_atom_site_fract_y
_atom_site_fract_z
_atom_type_partial_charge
O1    O     O_R   0.437360 0.505910 0.042120 -0.533371
O2    O     O_R   0.562640 0.005910 0.957880 -0.533343
O3    O     O_R   0.542480 0.176660 0.157100 -0.541592
O4    O     O_R   0.457520 0.676660 0.842900 -0.541605
C1    C     C_R   0.557245 0.344492 0.197041 0.693993
C2    C     C_R   0.442759 0.844485 0.802955 0.693977
O5    O     O_R   0.436520 0.176250 0.054800 -0.544607
O6    O     O_R   0.563480 0.676250 0.945200 -0.544619
O7    O     O_R   0.455920 0.005040 0.854840 -0.541344
O8    O     O_R   0.544080 0.505040 0.145160 -0.541358
C3    C     C_R   0.417467 0.345089 0.063159 0.670933
C4    C     C_R   0.582534 0.845114 0.936845 0.670966
O9    O     O_3   0.506490 0.338900 0.934520 -0.374039
O10   O     O_3   0.493510 0.838900 0.065480 -0.374043
V1    V     V_3+5 0.498800 0.064400 0.012150 1.425687
V2    V     V_3+5 0.501200 0.564400 0.987850 1.425617
C5    C     C_R   0.680723 0.974105 0.772975 -0.159986
C6    C     C_R   0.319273 0.473370 0.227141 -0.160006
H1    H     H_    0.599071 0.994502 0.744371 0.113398
H2    H     H_    0.400932 0.493810 0.255784 0.113362
C7    C     C_R   0.632197 0.858448 0.905358 -0.104400
C8    C     C_R   0.367800 0.358338 0.094626 -0.104356
C9    C     C_R   0.867783 0.817736 0.207618 -0.014657
C10   C     C_R   0.132207 0.318593 0.792269 -0.015129
C11   C     C_R   0.822013 0.811824 0.243134 -0.098409
C12   C     C_R   0.177982 0.312893 0.756761 -0.098723
C13   C     C_R   0.775408 0.830395 0.163593 -0.139440
C14   C     C_R   0.224588 0.331100 0.836342 -0.139021
C15   C     C_R   0.773466 0.848826 0.045292 0.098950
C16   C     C_R   0.226528 0.348960 0.954668 0.099128
C17   C     C_R   0.820566 0.877025 0.011720 0.038651
C18   C     C_R   0.179428 0.376858 0.988281 0.038754
C19   C     C_R   0.726118 0.855865 0.960634 0.074445
C20   C     C_R   0.273876 0.355776 0.039332 0.074393
C21   C     C_R   0.726738 0.930117 0.850974 0.119563
C22   C     C_R   0.273257 0.429562 0.149088 0.119462
C23   C     C_R   0.773274 0.961978 0.820377 -0.194423
C24   C     C_R   0.226720 0.461128 0.179731 -0.194486
C25   C     C_R   0.819547 0.928786 0.898132 -0.194697
C26   C     C_R   0.180447 0.428105 0.101941 -0.194798
C27   C     C_R   0.677935 0.796395 0.980409 -0.076420
C28   C     C_R   0.322060 0.296531 0.019479 -0.076349
C29   C     C_R   0.634081 0.948510 0.802868 -0.169670
C30   C     C_R   0.365918 0.447996 0.197225 -0.169809
C31   C     C_R   0.867688 0.856899 0.093628 -0.076930
C32   C     C_R   0.132305 0.357054 0.906339 -0.076659
H3    H     H_    0.903594 0.794350 0.269759 0.137989
H4    H     H_    0.096392 0.295552 0.730077 0.137855
H5    H     H_    0.741403 0.837165 0.197086 0.115498
H6    H     H_    0.258599 0.338097 0.802882 0.115472
H7    H     H_    0.822633 0.792017 0.332840 0.131236
H8    H     H_    0.177366 0.293567 0.667027 0.131149
H9    H     H_    0.854560 0.952871 0.869833 0.124593
H10   H     H_    0.145432 0.451961 0.130266 0.124534
C33   C     C_R   0.089876 0.859625 0.312154 -0.031221
C34   C     C_R   0.910125 0.359581 0.687853 -0.031155
C35   C     C_R   0.407211 0.854509 0.690275 -0.041231
C36   C     C_R   0.592793 0.354577 0.309719 -0.041250
C37   C     C_R   0.099143 0.820187 0.515767 0.006343
C38   C     C_R   0.900858 0.319440 0.484295 0.006603
C39   C     C_R   0.068345 0.843961 0.405795 -0.249346
C40   C     C_R   0.931658 0.343381 0.594247 -0.249217
C41   C     C_R   0.142774 0.861262 0.326995 -0.218814
C42   C     C_R   0.857228 0.361526 0.672994 -0.218911
C43   C     C_R   0.176086 0.854736 0.437286 0.052546
C44   C     C_R   0.823919 0.354786 0.562706 0.052454
C45   C     C_R   0.154220 0.828841 0.534826 0.069444
C46   C     C_R   0.845782 0.328438 0.465204 0.069648
C47   C     C_R   0.230517 0.871083 0.451359 0.056798
C48   C     C_R   0.769492 0.371329 0.548606 0.056795
C49   C     C_R   0.263860 0.840745 0.560775 0.053097
C50   C     C_R   0.736144 0.340782 0.439219 0.053151
C51   C     C_R   0.241597 0.805622 0.653961 -0.267000
C52   C     C_R   0.758401 0.305367 0.346062 -0.267275
C53   C     C_R   0.188571 0.811185 0.644732 -0.052411
C54   C     C_R   0.811431 0.310711 0.355304 -0.052352
C55   C     C_R   0.252578 0.922831 0.359331 -0.195769
C56   C     C_R   0.747442 0.423470 0.640572 -0.195808
C57   C     C_R   0.305181 0.936959 0.372564 -0.212007
C58   C     C_R   0.694842 0.437713 0.627329 -0.212036
C59   C     C_R   0.338330 0.903629 0.478176 0.128073
C60   C     C_R   0.661686 0.404127 0.521761 0.128066
C61   C     C_R   0.318519 0.854861 0.574328 0.092088
C62   C     C_R   0.681487 0.355017 0.425656 0.092081
C63   C     C_R   0.391336 0.924720 0.488722 -0.165172
C64   C     C_R   0.608683 0.425336 0.511200 -0.165181
C65   C     C_R   0.425466 0.902396 0.594363 -0.174437
C66   C     C_R   0.574548 0.402809 0.405584 -0.174398
C67   C     C_R   0.354477 0.827966 0.680439 -0.220257
C68   C     C_R   0.645524 0.327920 0.319574 -0.220346
H11   H     H_    0.343159 0.790223 0.757869 0.122700
H12   H     H_    0.656836 0.289953 0.242179 0.122672
H13   H     H_    0.320027 0.977875 0.299376 0.147194
H14   H     H_    0.680005 0.478932 0.700471 0.147221
H15   H     H_    0.026823 0.839082 0.391765 0.113138
H16   H     H_    0.973179 0.338192 0.608311 0.112905
H17   H     H_    0.265113 0.783555 0.738507 0.156446
H18   H     H_    0.734883 0.283259 0.261523 0.156335
H19   H     H_    0.406343 0.962692 0.415323 0.116552
H20   H     H_    0.593684 0.463585 0.584557 0.116553
O11   O     O_R   0.955980 0.206520 0.854760 -0.545934
O12   O     O_R   0.044020 0.706520 0.145240 -0.545899
O13   O     O_R   0.063490 0.536770 0.945200 -0.529435
O14   O     O_R   0.936510 0.036770 0.054800 -0.529425
C69   C     C_R   0.082810 0.368119 0.938310 0.693808
C70   C     C_R   0.917184 0.868088 0.061666 0.693841
O15   O     O_R   0.957530 0.536190 0.842880 -0.539660
O16   O     O_R   0.042470 0.036190 0.157120 -0.539723
O17   O     O_R   0.937350 0.707210 0.042130 -0.535725
O18   O     O_R   0.062650 0.207210 0.957870 -0.535667
C71   C     C_R   0.943202 0.367879 0.802923 0.702301
C72   C     C_R   0.056797 0.867882 0.197082 0.702249
O19   O     O_3   0.993540 0.373870 0.065440 -0.372320
O20   O     O_3   0.006460 0.873870 0.934560 -0.372268
V3    V     V_3+5 0.001200 0.648440 0.987860 1.485125
V4    V     V_3+5 0.998800 0.148440 0.012140 1.484969
H21   H     H_    0.466133 0.924074 0.601600 0.102607
H22   H     H_    0.533886 0.424617 0.398323 0.102621
C73   C     C_2   0.069939 0.773764 0.602103 0.415596
H23   H     H_    0.038721 0.864674 0.612457 0.053712
O21   O     O_2   0.077637 0.626920 0.655755 -0.558735
C74   C     C_2   0.930049 0.272335 0.398056 0.415356
H24   H     H_    0.961403 0.362644 0.387787 0.053731
O22   O     O_2   0.922192 0.125525 0.344424 -0.558857
H25   H     H_    0.156575 0.862949 0.249590 0.104415
H26   H     H_    0.843425 0.363563 0.750392 0.104415
H27   H     H_    0.230265 0.960838 0.275823 0.144003
H28   H     H_    0.769762 0.461709 0.724032 0.144012
H29   H     H_    0.773906 0.012533 0.735510 0.137513
H30   H     H_    0.226087 0.511333 0.264657 0.137519
H31   H     H_    0.680927 0.035304 0.690395 0.132969
H32   H     H_    0.319070 0.534248 0.309791 0.132972
C75   C     C_2   0.674166 0.651994 0.067792 0.327818
H33   H     H_    0.643838 0.658625 0.113841 0.054675
O23   O     O_2   0.704156 0.519872 0.086040 -0.541012
C76   C     C_2   0.325825 0.152509 0.931913 0.327655
H34   H     H_    0.356190 0.159276 0.885973 0.054695
O24   O     O_2   0.295792 0.020509 0.913416 -0.541094
C77   C     C_2   0.173451 0.805201 0.756107 0.480524
H35   H     H_    0.193942 0.713601 0.823615 0.058717
O25   O     O_2   0.141730 0.913297 0.778045 -0.537931
C78   C     C_2   0.826560 0.304523 0.243942 0.480403
H36   H     H_    0.806013 0.213053 0.176425 0.058832
O26   O     O_2   0.858368 0.412303 0.222034 -0.537988

loop_
_geom_bond_atom_site_label_1
_geom_bond_atom_site_label_2
_ccdc_geom_bond_type
C44   C46   A    
C69   O18   A    
C41   C43   A    
C9    C31   A    
C40   H16   S    
C33   C72   S    
C5    H31   S    
C47   C55   A    
O1    C3    A    
C56   H28   S    
C2    O7    A    
O14   C70   A    
O20   V3    S    
O8    V2    S    
C52   H18   S    
C25   H9    S    
O5    C3    A    
C52   C54   A    
C1    C36   S    
C24   H30   S    
C38   C40   A    
C21   C23   A    
C10   C12   A    
C57   H13   S    
C12   H8    S    
C56   C58   A    
C48   C56   A    
C32   C69   S    
C15   C19   A    
C13   C15   A    
C28   C76   S    
C47   C49   A    
O12   V3    S    
C37   C45   A    
O14   V4    S    
C14   H6    S    
C8    C30   A    
C23   H29   S    
C20   C28   A    
C43   C45   A    
C33   C41   A    
C6    H32   S    
C34   C42   A    
C67   H11   S    
C64   H20   S    
C34   C71   S    
C20   C22   A    
C55   H27   S    
O19   V4    S    
O15   C71   A    
O5    V1    S    
O12   C72   A    
O2    C4    A    
O6    V2    S    
C7    C29   A    
C51   C53   A    
C2    C35   S    
C62   C68   A    
C27   C75   S    
C12   C14   A    
C59   C61   A    
H1    C29   S    
C49   C61   A    
C63   C65   A    
C61   C67   A    
C37   C39   A    
C9    H3    S    
C16   C20   A    
C10   H4    S    
C58   C60   A    
C49   C51   A    
C60   C64   A    
C4    C7    S    
O16   C72   A    
C26   H10   S    
C42   C44   A    
O4    V2    S    
C51   H17   S    
C11   H7    S    
O13   V3    S    
C63   H19   S    
C16   C18   A    
C6    C30   A    
C68   H12   S    
O6    C4    A    
C55   C57   A    
O13   C69   A    
O1    V2    S    
C41   H25   S    
C73   H23   S    
C38   C74   S    
O2    V1    S    
C36   C68   A    
O15   V3    S    
C50   C62   A    
C73   O21   D    
C35   C67   A    
C7    C27   A    
C50   C52   A    
H2    C30   S    
C42   H26   S    
C75   H33   S    
C34   C40   A    
O4    C2    A    
O11   C71   A    
C74   O22   D    
O18   V4    S    
C78   O26   D    
O3    V1    S    
C31   C70   S    
C76   O24   D    
C57   C59   A    
C37   C73   S    
C78   H36   S    
C18   C32   A    
C76   H34   S    
O3    C1    A    
C36   C66   A    
O20   V4    S    
C77   H35   S    
C39   H15   S    
C65   H21   S    
C46   C54   A    
C44   C48   A    
C3    C8    S    
C60   C62   A    
C66   H22   S    
C19   C27   A    
O16   V4    S    
C22   C24   A    
O7    V1    S    
C10   C32   A    
C1    O8    A    
C23   C25   A    
C53   C77   S    
C24   C26   A    
C77   O25   D    
C8    C28   A    
C6    C22   A    
C43   C47   A    
C33   C39   A    
C14   C16   A    
C19   C21   A    
C17   C25   A    
C64   C66   A    
C18   C26   A    
O17   V3    S    
C35   C65   A    
C9    C11   A    
C45   C53   A    
C38   C46   A    
C15   C17   A    
C17   C31   A    
O9    V2    S    
C5    C29   A    
C75   O23   D    
O11   V4    S    
O10   V1    S    
C48   C50   A    
C5    C21   A    
C74   H24   S    
C58   H14   S    
C70   O17   A    
C59   C63   A    
C13   H5    S    
O19   V3    S    
C11   C13   A    
C54   C78   S    
