data_mof_unit_34441.cif
_audit_creation_date              2012-12-11T14:13:30-0500
_audit_creation_method            fapswitch 2.2
_symmetry_space_group_name_H-M    P1
_symmetry_Int_Tables_number       1
_space_group_crystal_system       triclinic
_cell_length_a                    11.672182
_cell_length_b                    18.42848
_cell_length_c                    10.100261
_cell_angle_alpha                 89.999002
_cell_angle_beta                  113.031849
_cell_angle_gamma                 90.001263
_cell_volume                      1999.3908177

loop_
_atom_site_label
_atom_site_type_symbol
_atom_type_description
_atom_site_fract_x
_atom_site_fract_y
_atom_site_fract_z
_atom_type_partial_charge
C1    C     C_R   0.071581 0.646668 0.138284 0.574157
C2    C     C_2   0.624466 0.062439 0.026077 -0.097183
C3    C     C_2   0.624728 0.437612 0.025566 -0.097590
C4    C     C_2   0.375645 0.562479 0.975307 -0.083059
C5    C     C_2   0.489242 0.965426 0.027927 -0.116072
C6    C     C_2   0.510279 0.035082 0.976127 -0.112274
C7    C     C_2   0.510703 0.465202 0.974755 -0.113016
C8    C     C_2   0.489677 0.534857 0.026563 -0.115385
C9    C     C_2   0.997956 0.919232 0.104749 0.236806
C10   C     C_2   0.981541 0.075193 0.885228 0.239684
C11   C     C_2   0.981498 0.424828 0.885203 0.239704
C12   C     C_R   0.926276 0.353872 0.860579 0.588204
C13   C     C_2   0.997932 0.580774 0.104749 0.236732
C14   C     C_2   0.986668 0.954958 0.985012 -0.075997
C15   C     C_2   0.942361 0.028751 0.960160 -0.089525
C16   C     C_2   0.942324 0.471255 0.960163 -0.089617
C17   C     C_2   0.986556 0.545067 0.984960 -0.076016
C18   C     C_R   0.472697 0.647109 0.443957 0.617006
C19   C     C_R   0.527402 0.353007 0.556269 0.610789
C20   C     C_R   0.527396 0.146999 0.556257 0.610877
C21   C     C_R   0.472695 0.852897 0.443943 0.616911
C22   C     C_R   0.354109 0.636561 0.007109 0.568740
C23   C     C_R   0.926282 0.146134 0.860583 0.588256
C24   C     C_R   0.645880 0.363494 0.993153 0.555910
C25   C     C_R   0.645787 0.136476 0.993324 0.555717
C26   C     C_R   0.354023 0.863409 0.007259 0.568863
C27   C     C_R   0.491660 0.424398 0.481479 0.044292
C28   C     C_R   0.508949 0.576104 0.520072 0.045117
C29   C     C_R   0.508944 0.923915 0.520011 0.045122
C30   C     C_R   0.491641 0.075621 0.481424 0.044277
C31   C     C_R   0.278261 0.431157 0.479810 0.261873
C32   C     C_R   0.723364 0.569179 0.525665 0.249119
C33   C     C_R   0.723345 0.930851 0.525560 0.249117
C34   C     C_R   0.071588 0.853334 0.138285 0.574088
C35   C     C_R   0.278254 0.068848 0.479794 0.261902
C36   C     C_R   0.194869 0.467806 0.524571 -0.055106
C37   C     C_R   0.808612 0.532054 0.484636 -0.075920
C38   C     C_R   0.808596 0.967986 0.484547 -0.075981
C39   C     C_R   0.194899 0.032197 0.524619 -0.055115
C40   C     C_R   0.225799 0.535426 0.590656 -0.090540
C41   C     C_R   0.777891 0.464710 0.417244 -0.096038
C42   C     C_R   0.777893 0.035342 0.417201 -0.096136
C43   C     C_R   0.225872 0.964587 0.590745 -0.090555
C44   C     C_R   0.335525 0.569784 0.601259 0.233936
C45   C     C_R   0.394185 0.463369 0.499540 -0.043183
C46   C     C_R   0.666759 0.430848 0.402760 0.234651
C47   C     C_R   0.666769 0.069205 0.402734 0.234521
C48   C     C_R   0.335594 0.930240 0.601311 0.234060
C49   C     C_R   0.414113 0.536829 0.542272 -0.049817
C50   C     C_R   0.586944 0.463741 0.460102 -0.049603
C51   C     C_R   0.586925 0.036289 0.460025 -0.049669
C52   C     C_R   0.414122 0.963188 0.542233 -0.049753
C53   C     C_R   0.606761 0.537143 0.503166 -0.043530
C54   C     C_R   0.606741 0.962881 0.503066 -0.043608
C55   C     C_R   0.394172 0.036642 0.499482 -0.043112
C56   C     C_2   0.375392 0.937569 0.975780 -0.083418
Cl1   Cl    Cl    0.227242 0.349638 0.383064 -0.449499
Cl2   Cl    Cl    0.947340 0.955490 0.234308 -0.681441
Cl3   Cl    Cl    0.947421 0.544491 0.234382 -0.681612
Cl4   Cl    Cl    0.081211 0.448797 0.798866 -0.686904
Cl5   Cl    Cl    0.772661 0.651026 0.621650 -0.483026
Cl6   Cl    Cl    0.772660 0.849008 0.621555 -0.482903
Cl7   Cl    Cl    0.227210 0.150366 0.383053 -0.449579
Cl8   Cl    Cl    0.379339 0.651175 0.699967 -0.463357
Cl9   Cl    Cl    0.623465 0.349983 0.302236 -0.456517
Cl10  Cl    Cl    0.623573 0.150129 0.302374 -0.456663
Cl11  Cl    Cl    0.379527 0.848895 0.700147 -0.463204
Cl12  Cl    Cl    0.081326 0.051267 0.798970 -0.687072
Cr1   Cr    Cr6+3 0.187610 0.750000 0.979860 1.120764
Cr2   Cr    Cr6+3 0.812390 0.250000 0.020140 1.139247
Cr3   Cr    Cr6+3 0.245810 0.750000 0.341640 1.156894
Cr4   Cr    Cr6+3 0.754190 0.250000 0.658360 1.147788
Cr5   Cr    Cr6+3 0.485760 0.750000 0.219910 1.129464
Cr6   Cr    Cr6+3 0.514240 0.250000 0.780090 1.131746
H1    H     H_    0.106278 0.443392 0.509587 0.207540
H2    H     H_    0.022455 0.931936 0.909802 0.186796
H3    H     H_    0.022243 0.568112 0.909675 0.186884
H4    H     H_    0.877084 0.453666 0.006379 0.146807
H5    H     H_    0.431337 0.064999 0.900642 0.186815
H6    H     H_    0.567953 0.935769 0.104458 0.179304
H7    H     H_    0.568494 0.564630 0.102642 0.179647
H8    H     H_    0.431834 0.435403 0.898840 0.186309
H9    H     H_    0.702110 0.031804 0.101611 0.150923
H10   H     H_    0.298318 0.967846 0.899110 0.163699
H11   H     H_    0.298451 0.532071 0.899141 0.163607
H12   H     H_    0.898199 0.556047 0.502951 0.204855
H13   H     H_    0.702286 0.468117 0.101579 0.151076
H14   H     H_    0.898184 0.943996 0.502863 0.204882
H15   H     H_    0.106314 0.056605 0.509671 0.207499
H16   H     H_    0.163358 0.561732 0.631506 0.190265
H17   H     H_    0.841471 0.438162 0.378440 0.198093
H18   H     H_    0.841491 0.061902 0.378437 0.198115
H19   H     H_    0.163473 0.938285 0.631664 0.190188
H20   H     H_    0.877046 0.046313 0.006290 0.146810
O1    O     O_R   0.267710 0.668200 0.902110 -0.432387
O2    O     O_R   0.883280 0.330790 0.732340 -0.463282
O3    O     O_R   0.883280 0.169210 0.732340 -0.463268
O4    O     O_R   0.116720 0.830790 0.267660 -0.450462
O5    O     O_R   0.366710 0.675440 0.427590 -0.451438
O6    O     O_R   0.633290 0.324560 0.572410 -0.454412
O7    O     O_R   0.633290 0.175440 0.572410 -0.454373
O8    O     O_R   0.366710 0.824560 0.427590 -0.451495
O9    O     O_R   0.534870 0.669390 0.371760 -0.483241
O10   O     O_R   0.465130 0.330610 0.628240 -0.485021
O11   O     O_R   0.465130 0.169390 0.628240 -0.484892
O12   O     O_R   0.732290 0.331800 0.097890 -0.427117
O13   O     O_R   0.534870 0.830610 0.371760 -0.483357
O14   O     O_R   0.453080 0.674480 0.075160 -0.460276
O15   O     O_R   0.546920 0.325520 0.924840 -0.455060
O16   O     O_R   0.546920 0.174480 0.924840 -0.455387
O17   O     O_R   0.453080 0.825520 0.075160 -0.459982
O18   O     O_3   0.306390 0.750000 0.180470 -0.357369
O19   O     O_3   0.693610 0.250000 0.819530 -0.365491
O20   O     O_R   0.732290 0.168200 0.097890 -0.427147
O21   O     O_R   0.267710 0.831800 0.902110 -0.432431
O22   O     O_R   0.099480 0.674460 0.038850 -0.541155
O23   O     O_R   0.900520 0.325540 0.961150 -0.523621
O24   O     O_R   0.900520 0.174460 0.961150 -0.523536
O25   O     O_R   0.099480 0.825540 0.038850 -0.541241
O26   O     O_R   0.116720 0.669210 0.267660 -0.450411

loop_
_geom_bond_atom_site_label_1
_geom_bond_atom_site_label_2
_ccdc_geom_bond_type
C44   C49   A    
C30   C51   A    
Cr1   O22   S    
C21   C29   S    
C22   O1    A    
C5    C56   D    
C4    C8    D    
C23   O24   A    
C3    C24   S    
C7    C8    S    
C20   C30   S    
Cr2   O20   S    
Cr3   O26   S    
C32   Cl5   S    
C38   C42   A    
C3    C7    D    
C10   C15   D    
C5    C6    S    
Cr1   O18   S    
Cr5   O13   S    
C29   C54   A    
Cr2   O23   S    
C33   C54   A    
C9    Cl2   S    
C11   C16   D    
C26   O21   A    
C34   O4    A    
C33   Cl6   S    
Cr5   O9    S    
C41   C46   A    
Cr5   O17   S    
C1    O22   A    
C19   C27   S    
C43   C48   A    
C40   C44   A    
C42   H18   S    
C27   C50   A    
C18   O9    A    
C27   C45   A    
C2    H9    S    
C2    C6    D    
Cr6   O15   S    
C56   H10   S    
Cr4   O3    S    
Cr2   O19   S    
Cr3   O4    S    
C50   C53   A    
C3    H13   S    
C8    H7    S    
C37   H12   S    
C36   C40   A    
C18   C28   S    
C46   Cl9   S    
Cr2   O12   S    
C16   C17   S    
Cr5   O14   S    
C47   C51   A    
C20   O7    A    
Cr6   O19   S    
C35   C55   A    
Cr4   O19   S    
Cr1   O25   S    
C44   Cl8   S    
C38   H14   S    
C1    O26   A    
C14   H2    S    
C35   C39   A    
C9    C14   D    
C36   H1    S    
C4    C22   S    
C19   O10   A    
C45   C49   A    
C28   C53   A    
Cr3   O18   S    
C7    H8    S    
C17   H3    S    
C32   C37   A    
C5    H6    S    
C21   O13   A    
C25   O16   A    
C13   Cl3   S    
C21   O8    A    
C23   O3    A    
Cr3   O8    S    
C31   C45   A    
C9    C34   S    
C24   O12   A    
C18   O5    A    
C11   Cl4   S    
C32   C53   A    
Cr5   O18   S    
Cr6   O10   S    
C20   O11   A    
Cr4   O6    S    
C34   O25   A    
Cr1   O21   S    
C47   Cl10  S    
C41   H17   S    
C31   C36   A    
C24   O15   A    
Cr1   O1    S    
C26   C56   S    
Cr6   O16   S    
C39   C43   A    
C19   O6    A    
C52   C55   A    
C4    H11   S    
C10   Cl12  S    
C10   C23   S    
C30   C55   A    
C46   C50   A    
C33   C38   A    
C13   C17   D    
C51   C54   A    
C31   Cl1   S    
C25   O20   A    
Cr6   O11   S    
C6    H5    S    
Cr3   O5    S    
Cr2   O24   S    
C22   O14   A    
C43   H19   S    
C28   C49   A    
C2    C25   S    
C16   H4    S    
C42   C47   A    
C48   Cl11  S    
C37   C41   A    
C12   O23   A    
Cr4   O2    S    
C48   C52   A    
C15   H20   S    
C1    C13   S    
Cr4   O7    S    
C14   C15   S    
C12   O2    A    
C35   Cl7   S    
C40   H16   S    
C26   O17   A    
C39   H15   S    
C11   C12   S    
C29   C52   A    
