data_mof_unit_54864.cif
_audit_creation_date              2012-12-11T15:21:33-0500
_audit_creation_method            fapswitch 2.2
_symmetry_space_group_name_H-M    P1
_symmetry_Int_Tables_number       1
_space_group_crystal_system       triclinic
_cell_length_a                    19.179479
_cell_length_b                    7.137739
_cell_length_c                    17.732955
_cell_angle_alpha                 89.998892
_cell_angle_beta                  109.135818
_cell_angle_gamma                 89.999687
_cell_volume                      2293.46861507

loop_
_atom_site_label
_atom_site_type_symbol
_atom_type_description
_atom_site_fract_x
_atom_site_fract_y
_atom_site_fract_z
_atom_type_partial_charge
O1    O     O_R   0.562310 0.505770 0.439670 -0.522359
O2    O     O_R   0.437690 0.005770 0.560330 -0.522333
O3    O     O_R   0.411650 0.169150 0.405330 -0.548479
O4    O     O_R   0.588350 0.669150 0.594670 -0.548477
C1    C     C_R   0.384687 0.345970 0.382638 0.705272
C2    C     C_R   0.615314 0.845968 0.617361 0.705271
O5    O     O_R   0.560140 0.175610 0.430010 -0.522343
O6    O     O_R   0.439860 0.675610 0.569990 -0.522263
O7    O     O_R   0.587240 0.012100 0.585200 -0.540533
O8    O     O_R   0.412760 0.512100 0.414800 -0.540521
C3    C     C_R   0.581216 0.344660 0.414911 0.683043
C4    C     C_R   0.418780 0.844659 0.585086 0.683239
O9    O     O_3   0.508720 0.341420 0.550890 -0.367569
O10   O     O_3   0.491280 0.841420 0.449110 -0.367623
V1    V     V_3+5 0.498380 0.063930 0.490560 1.482237
V2    V     V_3+5 0.501620 0.563930 0.509440 1.482310
C5    C     C_R   0.177645 0.758398 0.874073 -0.201674
C6    C     C_R   0.822298 0.258498 0.125866 -0.201667
C7    C     C_R   0.130963 0.914402 0.866458 -0.078628
C8    C     C_R   0.869034 0.414403 0.133539 -0.078659
C9    C     C_R   0.131894 0.056615 0.812237 -0.202454
C10   C     C_R   0.868156 0.556519 0.187818 -0.202503
C11   C     C_R   0.178271 0.043359 0.765539 0.143242
C12   C     C_R   0.821780 0.543257 0.234519 0.143120
C13   C     C_R   0.225122 0.886317 0.773250 0.062774
C14   C     C_R   0.774869 0.386325 0.226742 0.062771
C15   C     C_R   0.224308 0.740681 0.827258 -0.005682
C16   C     C_R   0.775625 0.240794 0.172671 -0.005645
C17   C     C_R   0.178349 0.185170 0.711019 -0.206991
C18   C     C_R   0.821767 0.684945 0.289109 -0.207199
C19   C     C_R   0.223763 0.171948 0.663823 -0.107272
C20   C     C_R   0.776363 0.671693 0.336316 -0.107230
C21   C     C_R   0.271534 0.018161 0.671165 0.075012
C22   C     C_R   0.728528 0.518024 0.328905 0.075069
C23   C     C_R   0.273006 0.876028 0.727058 -0.086710
C24   C     C_R   0.726983 0.376036 0.272933 -0.086747
C25   C     C_R   0.322336 0.724409 0.737170 -0.026365
C26   C     C_R   0.677580 0.224563 0.262742 -0.026264
C27   C     C_R   0.321359 0.581314 0.791282 -0.108250
C28   C     C_R   0.678497 0.081579 0.208563 -0.108159
C29   C     C_R   0.271744 0.584111 0.834082 0.315951
C30   C     C_R   0.728125 0.084339 0.165778 0.315976
C31   C     C_R   0.315753 0.002161 0.621745 0.286758
C32   C     C_R   0.684316 0.501988 0.378333 0.286731
C33   C     C_R   0.368752 0.855293 0.634485 -0.257465
C34   C     C_R   0.631239 0.355295 0.365508 -0.257417
C35   C     C_R   0.373020 0.719357 0.694675 0.312613
C36   C     C_R   0.626887 0.219545 0.305228 0.312656
H1    H     H_    0.095950 0.177071 0.805778 0.126434
H2    H     H_    0.904145 0.676893 0.194325 0.126500
C37   C     C_3   0.752872 0.803940 0.837232 0.170132
C38   C     C_3   0.247117 0.303844 0.162779 0.170137
C39   C     C_3   0.680337 0.776410 0.764902 -0.452030
C40   C     C_3   0.319657 0.276345 0.235106 -0.452039
H3    H     H_    0.846850 0.654623 0.767041 0.048512
H4    H     H_    0.153118 0.154722 0.232998 0.048498
H5    H     H_    0.741950 0.618558 0.663614 0.077901
H6    H     H_    0.258033 0.118619 0.336405 0.077890
C41   C     C_3   0.827070 0.796783 0.743080 0.110151
C42   C     C_3   0.172924 0.296877 0.256938 0.110179
C43   C     C_3   0.780149 0.104570 0.777298 -0.314442
C44   C     C_3   0.219873 0.604570 0.222666 -0.314409
C45   C     C_3   0.812649 0.912000 0.811553 0.049573
C46   C     C_3   0.187352 0.411997 0.188444 0.049563
C47   C     C_3   0.687317 0.866859 0.688193 -0.023345
C48   C     C_3   0.312685 0.366862 0.311806 -0.023342
C49   C     C_3   0.753693 0.771504 0.670715 0.195934
C50   C     C_3   0.246304 0.271571 0.329297 0.195875
C51   C     C_3   0.706436 0.079051 0.708659 -0.321902
C52   C     C_3   0.293580 0.579051 0.291314 -0.321918
H7    H     H_    0.661599 0.145430 0.726390 0.167021
H8    H     H_    0.338425 0.645383 0.273581 0.167002
H9    H     H_    0.709195 0.157892 0.655652 0.140510
H10   H     H_    0.290821 0.657933 0.344309 0.140523
O11   O     O_R   0.087220 0.271820 0.085230 -0.553758
O12   O     O_R   0.912780 0.771820 0.914770 -0.553759
O13   O     O_R   0.939860 0.595540 0.069990 -0.541090
O14   O     O_R   0.060140 0.095540 0.930010 -0.541094
C53   C     C_R   0.918735 0.426430 0.084736 0.717430
C54   C     C_R   0.081264 0.926430 0.915264 0.717458
O15   O     O_R   0.088340 0.601930 0.094680 -0.539870
O16   O     O_R   0.911660 0.101930 0.905320 -0.539872
O17   O     O_R   0.062310 0.765410 0.939660 -0.539684
O18   O     O_R   0.937690 0.265410 0.060340 -0.539674
C55   C     C_R   0.115996 0.431864 0.117619 0.752563
C56   C     C_R   0.884004 0.931866 0.882379 0.752558
O19   O     O_3   0.991270 0.429630 0.949130 -0.379466
O20   O     O_3   0.008730 0.929630 0.050870 -0.379461
V3    V     V_3+5 0.001620 0.707150 0.009440 1.421722
V4    V     V_3+5 0.998380 0.207150 0.990560 1.421722
H11   H     H_    0.178437 0.654414 0.918655 0.148613
H12   H     H_    0.821468 0.154587 0.081244 0.148638
O21   O     O_3   0.737748 0.901316 0.899057 -0.640016
H13   H     H_    0.712150 0.811994 0.924018 0.311269
O22   O     O_3   0.262236 0.401112 0.100927 -0.640005
H14   H     H_    0.287838 0.311738 0.075990 0.311264
H15   H     H_    0.632507 0.838942 0.778256 0.182091
H16   H     H_    0.367483 0.338847 0.221738 0.182110
H17   H     H_    0.668620 0.624013 0.755013 0.121602
H18   H     H_    0.331373 0.123952 0.245016 0.121635
H19   H     H_    0.819854 0.181702 0.754935 0.165413
H20   H     H_    0.180176 0.681784 0.245011 0.165418
H21   H     H_    0.770825 0.192446 0.824950 0.170195
H22   H     H_    0.229211 0.692369 0.174998 0.170195
O23   O     O_3   0.882549 0.883645 0.719592 -0.647514
H23   H     H_    0.901909 0.787287 0.691248 0.311510
O24   O     O_3   0.117466 0.383851 0.280425 -0.647521
H24   H     H_    0.098093 0.287555 0.308783 0.311506
O25   O     O_3   0.760530 0.833423 0.598008 -0.625316
H25   H     H_    0.774231 0.967762 0.603375 0.326509
O26   O     O_3   0.239481 0.333525 0.402005 -0.625405
H26   H     H_    0.225805 0.467881 0.396637 0.326509
H27   H     H_    0.142868 0.306491 0.704519 0.125226
H28   H     H_    0.857296 0.806178 0.295662 0.125282
H29   H     H_    0.221692 0.284060 0.621979 0.179550
H30   H     H_    0.778490 0.783694 0.378222 0.179552
O27   O     O_3   0.304634 0.129424 0.560288 -0.611443
H31   H     H_    0.307267 0.060580 0.512776 0.308360
O28   O     O_3   0.695522 0.629034 0.439878 -0.611525
H32   H     H_    0.692760 0.560149 0.487321 0.308329
O29   O     O_3   0.426789 0.582157 0.714339 -0.630094
H33   H     H_    0.473297 0.638107 0.711960 0.287180
O30   O     O_3   0.573023 0.082592 0.285450 -0.630240
H34   H     H_    0.526587 0.138518 0.288034 0.287203
H35   H     H_    0.357920 0.461857 0.799089 0.195829
H36   H     H_    0.641883 0.962224 0.200698 0.195807
O31   O     O_3   0.272425 0.431685 0.882167 -0.633241
H37   H     H_    0.221580 0.408901 0.882184 0.287510
O32   O     O_3   0.727395 0.932002 0.117636 -0.633254
H38   H     H_    0.778244 0.909063 0.117659 0.287542
H39   H     H_    0.775133 0.662521 0.859533 0.070257
H40   H     H_    0.224845 0.162415 0.140512 0.070270

loop_
_geom_bond_atom_site_label_1
_geom_bond_atom_site_label_2
_ccdc_geom_bond_type
C48   C50   S    
O21   H13   S    
C27   H35   S    
H3    C41   S    
C29   O31   S    
O26   H26   S    
C5    H11   S    
O2    C4    A    
C36   O30   S    
C9    H1    S    
O30   H34   S    
C27   C29   A    
C39   H17   S    
O5    C3    A    
O13   V3    S    
C41   O23   S    
C11   C17   A    
C7    C9    A    
C12   C14   A    
C53   O18   A    
O14   C54   A    
C35   O29   S    
C14   C24   A    
C44   C52   S    
C38   O22   S    
C51   H7    S    
C43   C45   S    
C44   C46   S    
O11   V4    S    
C41   C49   S    
C49   O25   S    
C2    C47   S    
O22   H14   S    
C32   C34   A    
C47   C49   S    
O1    C3    A    
C52   H10   S    
O24   H24   S    
C19   C21   A    
C51   H9    S    
C25   C35   A    
C39   C47   S    
C26   C36   A    
O12   V3    S    
C10   H2    S    
O15   V3    S    
C33   C35   A    
O6    V2    S    
C40   H18   S    
O18   V4    S    
C2    O7    A    
C54   O17   A    
C19   H29   S    
C38   C40   S    
C44   H22   S    
O13   C53   A    
O17   V3    S    
C34   C36   A    
C5    C15   A    
C6    C16   A    
O4    C2    A    
C38   C46   S    
C37   H39   S    
C4    C33   S    
O5    V1    S    
C32   O28   S    
C39   H15   S    
O16   C56   A    
O14   V4    S    
H4    C42   S    
C37   C39   S    
C50   O26   S    
C38   H40   S    
O4    V2    S    
C43   H19   S    
C18   C20   A    
C15   C29   A    
C28   C30   A    
O6    C4    A    
C28   H36   S    
C37   C45   S    
O1    V2    S    
C20   H30   S    
O2    V1    S    
C31   C33   A    
O29   H33   S    
C42   O24   S    
C13   C23   A    
H6    C50   S    
C37   O21   S    
C9    C11   A    
C45   C56   S    
C10   C12   A    
O19   V4    S    
C5    C7    A    
O31   H37   S    
O12   C56   A    
C46   C55   S    
O3    V1    S    
C23   C25   A    
O11   C55   A    
O32   H38   S    
C18   H28   S    
C43   C51   S    
C22   C32   A    
C17   H27   S    
C8    C53   S    
C43   H21   S    
C14   C16   A    
C8    C10   A    
C1    C48   S    
O3    C1    A    
C6    C8    A    
O28   H32   S    
C40   C48   S    
C13   C15   A    
O23   H23   S    
C41   C45   S    
O16   V4    S    
C42   C46   S    
C6    H12   S    
C24   C26   A    
O7    V1    S    
C1    O8    A    
C17   C19   A    
O8    V2    S    
O25   H25   S    
C26   C28   A    
H5    C49   S    
C48   C52   S    
C47   C51   S    
C16   C30   A    
C21   C23   A    
C30   O32   S    
C22   C24   A    
C11   C13   A    
C7    C54   S    
C12   C18   A    
O20   V3    S    
C42   C50   S    
C25   C27   A    
O9    V2    S    
C31   O27   S    
O10   V1    S    
C40   H16   S    
C3    C34   S    
C52   H8    S    
O27   H31   S    
C21   C31   A    
O15   C55   A    
C20   C22   A    
C44   H20   S    
