data_mof_unit_62966.cif
_audit_creation_date              2012-12-10T21:20:09-0500
_audit_creation_method            fapswitch 2.2
_symmetry_space_group_name_H-M    P1
_symmetry_Int_Tables_number       1
_space_group_crystal_system       triclinic
_cell_length_a                    16.860417
_cell_length_b                    16.684831
_cell_length_c                    17.370257
_cell_angle_alpha                 93.040178
_cell_angle_beta                  89.370527
_cell_angle_gamma                 85.949874
_cell_volume                      4866.88693873

loop_
_atom_site_label
_atom_site_type_symbol
_atom_type_description
_atom_site_fract_x
_atom_site_fract_y
_atom_site_fract_z
_atom_type_partial_charge
C1    C     C_R   0.500461 0.499687 0.353326 0.881924
C2    C     C_R   0.527087 0.451236 0.217232 -0.136304
C3    C     C_R   0.430053 0.543141 0.856255 -0.049189
C4    C     C_R   0.532454 0.470160 0.139176 -0.008358
C5    C     C_R   0.503572 0.559534 0.889506 -0.024120
C6    C     C_R   0.513904 0.550507 0.118961 -0.043725
C7    C     C_1   0.508073 0.569264 0.971155 0.006326
C8    C     C_1   0.511459 0.566361 0.039327 -0.003581
C9    C     C_R   0.839146 0.437889 0.464869 -0.326170
C10   C     C_R   0.161892 0.561903 0.540006 -0.333205
C11   C     C_R   0.755257 0.438712 0.462460 0.112906
C12   C     C_R   0.499458 0.500533 0.647775 0.975048
C13   C     C_R   0.245900 0.560530 0.540302 0.135441
C14   C     C_R   0.744636 0.562083 0.537826 0.112657
C15   C     C_R   0.253739 0.440371 0.459794 0.128143
C16   C     C_R   0.510453 0.346343 0.505924 0.928552
C17   C     C_R   0.490127 0.649972 0.484250 0.907051
C18   C     C_R   0.828403 0.563478 0.537295 -0.294474
C19   C     C_R   0.169851 0.439926 0.462167 -0.321775
C20   C     C_R   0.876453 0.500773 0.501645 0.159588
C21   C     C_R   0.123193 0.501020 0.501689 0.168708
C22   C     C_1   0.963518 0.501262 0.502094 -0.000535
C23   C     C_R   0.574345 0.552537 0.845465 -0.024863
C24   C     C_1   0.036050 0.501398 0.502146 -0.000625
C25   C     C_R   0.517134 0.257690 0.510136 -0.177377
C26   C     C_R   0.487164 0.727886 0.445834 -0.245552
C27   C     C_R   0.448925 0.212966 0.501638 -0.040337
C28   C     C_R   0.558894 0.758349 0.418464 -0.029978
C29   C     C_R   0.458747 0.133406 0.472488 -0.176557
C30   C     C_R   0.557700 0.836945 0.395482 -0.157441
C31   C     C_R   0.534676 0.096273 0.457349 0.138818
C32   C     C_R   0.487321 0.885742 0.397583 0.145435
C33   C     C_R   0.601339 0.135751 0.480309 -0.183472
C34   C     C_R   0.489406 0.611646 0.174798 -0.009054
C35   C     C_R   0.415426 0.852991 0.412358 -0.143544
C36   C     C_R   0.593317 0.215252 0.510351 -0.040243
C37   C     C_R   0.413898 0.773455 0.433617 -0.019671
C38   C     C_2   0.545070 0.011056 0.432092 -0.184787
C39   C     C_2   0.488873 0.972914 0.393757 -0.184712
C40   C     C_2   0.368233 0.243468 0.529911 0.917954
C41   C     C_2   0.636023 0.710364 0.408081 0.912354
C42   C     C_2   0.724142 0.371228 0.416602 0.449367
C43   C     C_2   0.278050 0.628602 0.584796 0.443158
C44   C     C_2   0.701488 0.631325 0.579834 0.475105
C45   C     C_R   0.570885 0.529199 0.767598 -0.117235
C46   C     C_2   0.294055 0.373540 0.411462 0.437002
C47   C     C_2   0.334612 0.740775 0.437168 0.921865
C48   C     C_2   0.663595 0.248498 0.548187 0.920498
C49   C     C_2   0.652461 0.568795 0.880168 0.476322
C50   C     C_2   0.470125 0.696204 0.154217 0.442603
C51   C     C_2   0.352743 0.487831 0.746814 0.511796
C52   C     C_2   0.548404 0.368783 0.243195 0.555529
C53   C     C_2   0.356414 0.548809 0.904897 0.890802
C54   C     C_2   0.553241 0.406155 0.077821 1.020967
C55   C     C_R   0.482638 0.591480 0.251131 -0.084568
C56   C     C_R   0.498740 0.512759 0.732572 -0.115050
C57   C     C_R   0.501100 0.512814 0.271982 -0.122781
C58   C     C_R   0.427768 0.517006 0.777827 -0.080872
H1    H     H_    0.875537 0.388909 0.435845 0.151024
H2    H     H_    0.406945 0.098979 0.466106 0.174942
H3    H     H_    0.625502 0.524309 0.733842 0.236160
H4    H     H_    0.464345 0.637570 0.295396 0.182720
H5    H     H_    0.301525 0.315694 0.605650 0.364407
H6    H     H_    0.695844 0.609772 0.362510 0.348828
H7    H     H_    0.756865 0.312776 0.414256 0.083763
H8    H     H_    0.245695 0.687216 0.586143 0.069723
H9    H     H_    0.722309 0.690981 0.575203 0.081905
H10   H     H_    0.265225 0.317694 0.402992 0.090276
H11   H     H_    0.218734 0.760931 0.467251 0.338087
H12   H     H_    0.126498 0.610226 0.571135 0.147041
H13   H     H_    0.783037 0.243819 0.557481 0.348732
H14   H     H_    0.656151 0.589337 0.940229 0.084516
H15   H     H_    0.475449 0.713067 0.095030 0.075742
H16   H     H_    0.296913 0.523650 0.755800 0.105283
H17   H     H_    0.520852 0.348724 0.294878 0.075927
H18   H     H_    0.299586 0.512066 0.998104 0.360604
H19   H     H_    0.621558 0.369414 0.984757 0.361173
H20   H     H_    0.856248 0.613136 0.566335 0.151338
H21   H     H_    0.140537 0.392442 0.431187 0.149920
H22   H     H_    0.436719 0.006118 0.372344 0.166111
H23   H     H_    0.596690 0.977199 0.453928 0.162834
H24   H     H_    0.659356 0.103181 0.477323 0.185752
H25   H     H_    0.360366 0.890270 0.408658 0.170347
H26   H     H_    0.612482 0.860939 0.376919 0.164723
N1    N     N_R   0.707230 0.500020 0.500030 -0.099867
N2    N     N_R   0.292770 0.499980 0.499970 -0.082715
O1    O     O_R   0.566570 0.500000 0.389130 -0.543092
O2    O     O_R   0.359408 0.300642 0.591657 -0.727794
O3    O     O_2   0.697106 0.738289 0.431198 -0.655690
O4    O     O_R   0.639764 0.636016 0.366937 -0.778037
O5    O     O_2   0.666843 0.380605 0.375446 -0.545352
O6    O     O_2   0.335651 0.620042 0.625737 -0.558246
O7    O     O_2   0.647512 0.622864 0.625005 -0.552743
O8    O     O_2   0.354938 0.380480 0.375220 -0.556527
O9    O     O_2   0.323493 0.675938 0.404372 -0.612862
O10   O     O_R   0.270746 0.787682 0.472030 -0.807030
O11   O     O_2   0.654569 0.300101 0.600865 -0.600573
O12   O     O_R   0.433430 0.500000 0.610870 -0.542233
O13   O     O_R   0.740299 0.217056 0.526976 -0.824806
O14   O     O_2   0.713975 0.559665 0.841924 -0.539207
O15   O     O_2   0.448253 0.748418 0.203360 -0.552947
O16   O     O_2   0.352410 0.421476 0.713878 -0.529076
O17   O     O_2   0.599018 0.323691 0.209399 -0.511701
O18   O     O_2   0.299738 0.594247 0.888572 -0.618118
O19   O     O_R   0.352387 0.502539 0.969434 -0.768116
O20   O     O_2   0.516588 0.345420 0.073541 -0.562231
O21   O     O_R   0.613720 0.416350 0.024248 -0.794979
O22   O     O_R   0.433480 0.499990 0.389100 -0.555549
O23   O     O_R   0.566520 0.500010 0.610900 -0.577986
O24   O     O_R   0.574410 0.384200 0.500000 -0.591650
O25   O     O_R   0.425590 0.615800 0.500000 -0.574883
O26   O     O_R   0.441320 0.384200 0.499980 -0.575831
O27   O     O_R   0.558680 0.615800 0.500020 -0.591038
O28   O     O_2   0.309280 0.214917 0.502358 -0.654262
Zn1   Zn    Zn3+2 0.588860 0.500000 0.500020 1.066323
Zn2   Zn    Zn3+2 0.411140 0.500000 0.499980 1.091177

loop_
_geom_bond_atom_site_label_1
_geom_bond_atom_site_label_2
_ccdc_geom_bond_type
C1    O1    A    
C41   O3    D    
C52   O17   D    
H18   O19   S    
C23   C45   A    
H5    O2    S    
C27   C29   A    
C14   C18   A    
C51   H16   S    
H6    O4    S    
H11   O10   S    
C2    C57   A    
C17   O27   A    
C7    C8    T    
C51   O16   D    
C15   C19   A    
C48   O11   D    
C54   O21   S    
C17   C26   S    
C35   C37   A    
C38   C39   D    
C23   C49   S    
O26   Zn2   S    
C53   O18   D    
C55   H4    S    
C28   C41   S    
C33   C36   A    
C11   C42   S    
N2    Zn2   S    
C42   O5    D    
C32   C39   S    
C44   O7    D    
C40   O28   D    
C45   C56   A    
C49   H14   S    
C5    C23   A    
C13   N2    A    
C42   H7    S    
C47   O10   S    
C31   C33   A    
O25   Zn2   S    
C37   C47   S    
C33   H24   S    
O1    Zn1   S    
C52   H17   S    
C41   O4    S    
C34   C55   A    
C17   O25   A    
C12   O23   A    
C10   C21   A    
C34   C50   S    
C54   O20   D    
C16   O24   A    
C32   C35   A    
N1    Zn1   S    
C4    C6    A    
C50   H15   S    
C5    C7    S    
C35   H25   S    
C6    C8    S    
C1    O22   A    
H13   O13   S    
C6    C34   A    
C9    H1    S    
C2    C4    A    
C46   H10   S    
C19   C21   A    
C1    C57   S    
C9    C20   A    
O12   Zn2   S    
C46   O8    D    
C29   H2    S    
H19   O21   S    
C27   C40   S    
C18   H20   S    
C51   C58   S    
C19   H21   S    
C9    C11   A    
C12   C56   S    
C2    C52   S    
C15   N2    A    
C10   H12   S    
C20   C22   S    
C55   C57   A    
C38   H23   S    
C22   C24   T    
C13   C43   S    
C16   O26   A    
C14   C44   S    
C16   C25   S    
C48   O13   S    
C4    C54   S    
C12   O12   A    
C14   N1    A    
C3    C5    A    
C10   C13   A    
C26   C37   A    
C25   C27   A    
C26   C28   A    
C43   O6    D    
C31   C38   S    
C39   H22   S    
O22   Zn2   S    
C28   C30   A    
C29   C31   A    
C49   O14   D    
C30   C32   A    
C3    C53   S    
C40   O2    S    
C11   N1    A    
C43   H8    S    
C45   H3    S    
C56   C58   A    
C36   C48   S    
C18   C20   A    
C30   H26   S    
O23   Zn1   S    
C25   C36   A    
C3    C58   A    
C53   O19   S    
C50   O15   D    
C21   C24   S    
C47   O9    D    
C44   H9    S    
C15   C46   S    
O24   Zn1   S    
O27   Zn1   S    
