data_mof_unit_20272.cif
_audit_creation_date              2012-12-10T17:19:21-0500
_audit_creation_method            fapswitch 2.2
_symmetry_space_group_name_H-M    P1
_symmetry_Int_Tables_number       1
_space_group_crystal_system       triclinic
_cell_length_a                    15.027575
_cell_length_b                    10.877984
_cell_length_c                    9.595812
_cell_angle_alpha                 91.187742
_cell_angle_beta                  89.159643
_cell_angle_gamma                 93.286398
_cell_volume                      1565.56579993

loop_
_atom_site_label
_atom_site_type_symbol
_atom_type_description
_atom_site_fract_x
_atom_site_fract_y
_atom_site_fract_z
_atom_type_partial_charge
C1    C     C_R   0.508111 0.263496 0.498557 0.820734
C2    C     C_R   0.911728 0.591887 0.420265 0.011979
C3    C     C_R   0.944650 0.336645 0.665068 -0.186320
C4    C     C_R   0.037437 0.336636 0.666187 -0.219662
C5    C     C_R   0.088911 0.419965 0.584634 0.108222
C6    C     C_R   0.047016 0.504408 0.501209 0.090203
C7    C     C_R   0.098549 0.587594 0.417586 0.118964
C8    C     C_R   0.056575 0.671980 0.336324 -0.238492
C9    C     C_R   0.963942 0.674658 0.338183 -0.180701
C10   C     C_R   0.181677 0.420175 0.584481 -0.255404
C11   C     C_R   0.232512 0.502296 0.501475 -0.065186
C12   C     C_R   0.328972 0.500240 0.500677 0.817502
C13   C     C_R   0.191282 0.584976 0.417102 -0.255284
C14   C     C_R   0.579476 0.131846 0.737030 -0.246266
C15   C     C_R   0.578246 0.078658 0.870444 0.514896
C16   C     C_R   0.533669 0.963736 0.885139 -0.189828
C17   C     C_R   0.501016 0.896975 0.769385 -0.255862
C18   C     C_R   0.511615 0.944237 0.633463 0.089250
C19   C     C_R   0.537245 0.069997 0.622359 0.001897
C20   C     C_R   0.519870 0.130227 0.496748 -0.207740
C21   C     C_R   0.502579 0.060046 0.373986 0.489417
C22   C     C_R   0.498612 0.932478 0.380170 -0.313411
C23   C     C_R   0.497935 0.737944 0.502460 0.802342
C24   C     C_R   0.498870 0.873019 0.508022 -0.170160
C25   C     C_R   0.618868 0.664446 0.144248 -0.092286
C26   C     C_R   0.677220 0.744925 0.072438 -0.157072
C27   C     C_R   0.677727 0.744129 0.928894 -0.222368
C28   C     C_R   0.619137 0.663981 0.856501 -0.116529
C29   C     C_R   0.558402 0.580811 0.925555 0.087979
C30   C     C_R   0.558334 0.580830 0.074874 0.149073
C31   C     C_R   0.444700 0.422642 0.074363 -0.146680
C32   C     C_R   0.443178 0.422509 0.924764 0.572881
C33   C     C_R   0.671092 0.501270 0.499423 0.819295
C34   C     C_R   0.818437 0.594363 0.424123 0.445952
C35   C     C_R   0.767907 0.504607 0.499567 -0.144788
C36   C     C_R   0.809733 0.420285 0.580849 -0.329143
C37   C     C_R   0.902400 0.420551 0.583134 0.114277
C38   C     C_R   0.953636 0.505473 0.501276 -0.014871
Cu1   Cu    Cu3+1 0.499990 0.499990 0.640660 0.953905
Cu2   Cu    Cu3+1 0.500010 0.500010 0.359340 0.939704
H1    H     H_    0.614711 0.219556 0.720034 0.125731
H2    H     H_    0.526536 0.923631 0.987386 0.171527
H3    H     H_    0.464985 0.810924 0.790859 0.190999
H4    H     H_    0.493998 0.880003 0.283133 0.178885
H5    H     H_    0.402127 0.359121 0.133178 0.155012
H6    H     H_    0.623962 0.671291 0.253962 0.236751
H7    H     H_    0.722334 0.808615 0.128568 0.184039
H8    H     H_    0.722952 0.807279 0.872941 0.150944
H9    H     H_    0.623404 0.672847 0.746732 0.199675
H10   H     H_    0.769805 0.353820 0.641406 0.147764
H11   H     H_    0.905911 0.271196 0.728363 0.135915
H12   H     H_    0.068953 0.271336 0.730455 0.136692
H13   H     H_    0.214506 0.354446 0.645439 0.147158
H14   H     H_    0.231565 0.648222 0.352994 0.141760
H15   H     H_    0.095425 0.736345 0.271843 0.143432
H16   H     H_    0.933396 0.741289 0.274597 0.185019
N1    N     N_R   0.500860 0.501210 0.147910 -0.224570
N2    N     N_R   0.500890 0.501290 0.852040 -0.248825
O1    O     O_R   0.499990 0.319640 0.618810 -0.540232
O2    O     O_R   0.500000 0.319660 0.381240 -0.544239
O3    O     O_R   0.370250 0.499960 0.618800 -0.540161
O4    O     O_R   0.370260 0.499980 0.381230 -0.587372
O5    O     O_R   0.500000 0.680340 0.618760 -0.617473
O6    O     O_R   0.500010 0.680360 0.381190 -0.606791
O7    O     O_R   0.629740 0.500020 0.618770 -0.622230
O8    O     O_R   0.629750 0.500040 0.381200 -0.583276
O9    O     O_3   0.776734 0.684019 0.353785 -0.609806
C39   C     C_3   0.762762 0.783206 0.447282 -0.404523
H17   H     H_    0.718077 0.754551 0.535673 0.154231
H18   H     H_    0.729540 0.855498 0.390934 0.193834
H19   H     H_    0.827013 0.825016 0.487209 0.176391
O10   O     O_3   0.615708 0.132759 0.990994 -0.556747
C40   C     C_3   0.659926 0.249223 0.971195 0.063203
H20   H     H_    0.613185 0.315709 0.932180 0.152222
H21   H     H_    0.717743 0.241484 0.898297 0.119269
C41   C     C_3   0.694831 0.299156 0.110444 -0.698419
H22   H     H_    0.743371 0.236653 0.152400 0.230193
H23   H     H_    0.728325 0.391914 0.096815 0.199222
H24   H     H_    0.638744 0.306740 0.186065 0.290072
O11   O     O_3   0.390642 0.336428 0.848872 -0.537955
C42   C     C_3   0.304330 0.317614 0.907616 -0.371547
H25   H     H_    0.262366 0.262893 0.832541 0.183155
H26   H     H_    0.272758 0.406289 0.929246 0.164943
H27   H     H_    0.304484 0.260727 0.001988 0.135501
O12   O     O_3   0.500948 0.115628 0.245562 -0.528453
C43   C     C_3   0.415628 0.095439 0.187121 -0.290477
H28   H     H_    0.364246 0.139467 0.252792 0.142166
H29   H     H_    0.396918 0.996074 0.169668 0.135005
H30   H     H_    0.416960 0.138046 0.083241 0.201965

loop_
_geom_bond_atom_site_label_1
_geom_bond_atom_site_label_2
_ccdc_geom_bond_type
C27   H8    S    
Cu2   O2    S    
C40   H21   S    
C40   H20   S    
C35   C36   A    
C41   H24   S    
C32   N2    A    
C42   H25   S    
C33   O7    A    
C7    C8    A    
O12   C43   S    
C15   O10   S    
C26   C27   A    
C29   C30   A    
C4    H12   S    
C18   C24   A    
C28   C29   A    
C41   H23   S    
C18   C19   A    
C1    O1    A    
C5    C6    A    
O11   C42   S    
C43   H29   S    
C15   C16   A    
C30   N1    A    
Cu2   O4    S    
C34   C35   A    
C10   H13   S    
C39   H17   S    
C22   H4    S    
C19   C20   A    
C8    C9    A    
C23   C24   S    
C6    C38   A    
C2    C34   A    
C23   O5    A    
Cu2   O8    S    
C21   C22   A    
Cu1   O7    S    
C8    H15   S    
C42   H26   S    
C33   O8    A    
Cu1   O3    S    
C21   O12   S    
O9    C39   S    
C41   H22   S    
C1    O2    A    
Cu1   Cu2   S    
C3    H11   S    
C43   H28   S    
C16   C17   A    
C25   C26   A    
Cu1   N2    S    
C17   H3    S    
C37   C38   A    
C32   O11   S    
C12   O4    A    
C28   H9    S    
C2    C38   A    
C31   C32   A    
C7    C13   A    
Cu1   O1    S    
C17   C18   A    
C9    H16   S    
C20   C21   A    
C26   H7    S    
C14   H1    S    
C23   O6    A    
C40   C41   S    
C22   C24   A    
C3    C4    A    
C16   H2    S    
C42   H27   S    
C36   H10   S    
C13   H14   S    
C25   C30   A    
C36   C37   A    
C1    C20   S    
Cu2   N1    S    
C14   C19   A    
O10   C40   S    
C43   H30   S    
C34   O9    S    
C11   C12   S    
C6    C7    A    
Cu1   O5    S    
Cu2   O6    S    
C31   N1    A    
C5    C10   A    
C12   O3    A    
C11   C13   A    
C39   H19   S    
C33   C35   S    
C10   C11   A    
C4    C5    A    
C29   N2    A    
C3    C37   A    
C39   H18   S    
C31   H5    S    
C27   C28   A    
C14   C15   A    
C2    C9    A    
C25   H6    S    
