data_mof_unit_9522.cif
_audit_creation_date              2012-12-10T16:52:43-0500
_audit_creation_method            fapswitch 2.2
_symmetry_space_group_name_H-M    P1
_symmetry_Int_Tables_number       1
_space_group_crystal_system       triclinic
_cell_length_a                    13.032133
_cell_length_b                    10.978461
_cell_length_c                    9.695186
_cell_angle_alpha                 91.319361
_cell_angle_beta                  95.399541
_cell_angle_gamma                 90.518441
_cell_volume                      1380.50826718

loop_
_atom_site_label
_atom_site_type_symbol
_atom_type_description
_atom_site_fract_x
_atom_site_fract_y
_atom_site_fract_z
_atom_type_partial_charge
C1    C     C_R   0.500986 0.265591 0.497991 0.872572
C2    C     C_R   0.026746 0.511943 0.568812 -0.064684
C3    C     C_R   0.973128 0.497098 0.434564 -0.043223
C4    C     C_R   0.867051 0.469812 0.422699 0.150142
C5    C     C_R   0.864392 0.504232 0.670087 -0.285552
C6    C     C_R   0.971201 0.502796 0.686328 0.536105
C7    C     C_2   0.447698 0.930196 0.394261 -0.043505
C8    C     C_2   0.476847 0.864947 0.508555 0.230275
C9    C     C_2   0.460473 0.065006 0.387170 0.479595
C10   C     C_2   0.505455 0.133986 0.494092 -0.430823
C11   C     C_2   0.456831 0.414497 0.915210 -0.121048
C12   C     C_R   0.300865 0.507255 0.475539 0.838995
C13   C     C_2   0.439512 0.428765 0.069048 0.661887
C14   C     C_R   0.491304 0.733774 0.500775 0.804684
C15   C     C_R   0.699106 0.494663 0.524773 0.838584
C16   C     C_R   0.811566 0.490253 0.538536 -0.196263
C17   C     C_R   0.188271 0.516627 0.463457 -0.157228
C18   C     C_R   0.027320 0.511964 0.317015 0.211323
C19   C     C_R   0.134193 0.511785 0.331704 -0.222814
C20   C     C_R   0.133771 0.534381 0.581410 0.150138
Cu1   Cu    Cu3+1 0.500020 0.500020 0.638640 0.988789
Cu2   Cu    Cu3+1 0.499980 0.499980 0.361360 1.057897
H1    H     H_    0.546499 0.097285 0.584737 0.195392
H2    H     H_    0.430333 0.331670 0.859706 0.141627
H3    H     H_    0.508829 0.582906 0.894616 0.232210
H4    H     H_    0.823271 0.508691 0.762130 0.215734
H5    H     H_    0.174931 0.515287 0.239495 0.206608
N1    N     N_2   0.498860 0.498660 0.846770 -0.262687
N2    N     N_2   0.498840 0.498630 0.152900 -0.020888
O1    O     O_R   0.500020 0.321960 0.617050 -0.595021
O2    O     O_R   0.499980 0.321920 0.382890 -0.508713
O3    O     O_R   0.349010 0.500000 0.598060 -0.571791
O4    O     O_R   0.348980 0.499950 0.363910 -0.541111
O5    O     O_R   0.500020 0.678080 0.617110 -0.550061
O6    O     O_R   0.499980 0.678040 0.382950 -0.614770
O7    O     O_R   0.651020 0.500050 0.636090 -0.575158
O8    O     O_R   0.650990 0.500000 0.401940 -0.545484
I1    I     I_    0.803191 0.347223 0.259813 -0.305875
O9    O     O_3   0.364810 0.360905 0.127702 -0.549393
C21   C     C_3   0.277290 0.337004 0.034084 -0.344853
H6    H     H_    0.291624 0.260958 0.961138 0.156245
H7    H     H_    0.250968 0.419838 0.977626 0.191425
H8    H     H_    0.213799 0.307138 0.094430 0.212851
O10   O     O_3   0.591923 0.522979 0.108492 -0.512751
C22   C     C_3   0.614027 0.647794 0.133683 -0.092466
H9    H     H_    0.651511 0.664672 0.239620 0.193541
H10   H     H_    0.544717 0.705627 0.114229 0.134962
H11   H     H_    0.669927 0.676868 0.061092 0.152303
I2    I     I_    0.958044 0.575231 0.124908 -0.267414
O11   O     O_3   0.019431 0.487572 0.817426 -0.531115
C23   C     C_3   0.027955 0.361429 0.840227 -0.257574
H12   H     H_    0.083487 0.319418 0.773275 0.149120
H13   H     H_    0.951859 0.313595 0.823926 0.168843
H14   H     H_    0.057455 0.348312 0.949674 0.195887
I3    I     I_    0.205031 0.631406 0.762554 -0.316919
I4    I     I_    0.357066 0.845063 0.220337 -0.345949
O12   O     O_3   0.491713 0.917309 0.640414 -0.600349
C24   C     C_3   0.394845 0.933013 0.691938 -0.265639
H15   H     H_    0.353548 0.844450 0.697145 0.199576
H16   H     H_    0.346276 0.997778 0.628631 0.163385
H17   H     H_    0.407256 0.972021 0.798864 0.191724
O13   O     O_3   0.420890 0.120481 0.266806 -0.515267
C25   C     C_3   0.495704 0.114632 0.170117 -0.150422
H18   H     H_    0.460999 0.147778 0.069273 0.175171
H19   H     H_    0.522157 0.020087 0.151676 0.134097
H20   H     H_    0.563508 0.173792 0.203970 0.175124

loop_
_geom_bond_atom_site_label_1
_geom_bond_atom_site_label_2
_ccdc_geom_bond_type
C12   C17   S    
C4    C16   A    
C25   H19   S    
C14   O5    A    
O13   C25   S    
Cu2   N2    S    
C8    O12   S    
C19   H5    S    
Cu1   O1    S    
C15   O7    A    
C9    O13   S    
C23   H14   S    
C24   H17   S    
C21   H7    S    
C2    C3    A    
C12   O4    A    
C25   H20   S    
C7    C8    D    
Cu1   O7    S    
Cu1   Cu2   S    
C12   O3    A    
H3    N1    S    
Cu2   O6    S    
C11   C13   S    
O12   C24   S    
C2    C6    A    
C11   N1    D    
C20   I3    S    
C7    I4    S    
C13   N2    D    
C1    O1    A    
C17   C19   A    
Cu1   N1    S    
C4    I1    S    
O11   C23   S    
C22   H10   S    
N2    O10   S    
C5    C6    A    
C10   H1    S    
Cu1   O3    S    
C13   O9    S    
Cu2   O2    S    
C24   H16   S    
C23   H12   S    
O9    C21   S    
C5    H4    S    
C11   H2    S    
C1    O2    A    
C17   C20   A    
O10   C22   S    
C3    C4    A    
C3    C18   A    
C18   C19   A    
C9    C10   D    
C22   H11   S    
C14   O6    A    
C7    C9    S    
Cu2   O4    S    
C21   H6    S    
C5    C16   A    
C8    C14   S    
Cu1   O5    S    
C6    O11   S    
C24   H15   S    
C22   H9    S    
Cu2   O8    S    
C2    C20   A    
C21   H8    S    
C15   O8    A    
C1    C10   S    
C15   C16   S    
C18   I2    S    
C25   H18   S    
C23   H13   S    
