data_mof_unit_35920.cif
_audit_creation_date              2013-03-05T16:33:55-0500
_audit_creation_method            fapswitch 2.2
_symmetry_space_group_name_H-M    P1
_symmetry_Int_Tables_number       1
_space_group_crystal_system       triclinic
_cell_length_a                    17.704401
_cell_length_b                    10.865592
_cell_length_c                    9.566438
_cell_angle_alpha                 90.857763
_cell_angle_beta                  89.857796
_cell_angle_gamma                 90.409806
_cell_volume                      1840.02569825

loop_
_atom_site_label
_atom_site_type_symbol
_atom_site_description
_atom_site_fract_x
_atom_site_fract_y
_atom_site_fract_z
_atom_type_partial_charge
O1    O     O_R   0.500000 0.319640 0.618810 -0.568726
O2    O     O_R   0.500010 0.319680 0.381230 -0.533106
C1    C     C_R   0.497513 0.262251 0.498880 0.858601
O3    O     O_R   0.391250 0.499990 0.618840 -0.574658
O4    O     O_R   0.391260 0.500020 0.381250 -0.562553
C2    C     C_R   0.355294 0.501062 0.500022 0.793178
Cu1   Cu    Cu3+1 0.500000 0.499980 0.640670 1.017968
Cu2   Cu    Cu3+1 0.500000 0.500020 0.359330 0.995225
O5    O     O_R   0.499990 0.680320 0.618770 -0.588614
O6    O     O_R   0.500000 0.680360 0.381190 -0.596273
O7    O     O_R   0.608740 0.499980 0.618750 -0.531110
O8    O     O_R   0.608750 0.500010 0.381160 -0.578504
C3    C     C_R   0.497837 0.737539 0.500712 0.809109
C4    C     C_R   0.644117 0.499788 0.499871 0.882791
C5    C     C_R   0.846070 0.424851 0.591079 0.106570
C6    C     C_R   0.766912 0.415630 0.582946 0.395772
C7    C     C_R   0.726752 0.499887 0.500763 -0.158536
C8    C     C_R   0.765629 0.589782 0.425226 -0.200818
H1    H     H_    0.735104 0.655127 0.362721 0.159998
C9    C     C_R   0.843976 0.598154 0.432571 -0.127982
H2    H     H_    0.873276 0.668171 0.373369 0.162232
C10   C     C_R   0.884214 0.516739 0.515452 0.029565
C11   C     C_1   0.965034 0.523451 0.516213 -0.028850
C12   C     C_1   0.032780 0.524718 0.515230 -0.040189
C13   C     C_R   0.155171 0.531474 0.633979 -0.159601
H3    H     H_    0.127036 0.544212 0.733824 0.144145
C14   C     C_R   0.233701 0.524198 0.629100 -0.236182
H4    H     H_    0.264607 0.533008 0.726250 0.182898
C15   C     C_R   0.271693 0.506652 0.500824 -0.029922
C16   C     C_R   0.228687 0.497020 0.376190 0.157077
C17   C     C_R   0.149869 0.504719 0.382720 -0.200295
H5    H     H_    0.117077 0.496452 0.287399 0.139250
C18   C     C_R   0.113427 0.521784 0.510825 0.117630
C19   C     C_R   0.487621 0.065667 0.622892 0.021138
C20   C     C_R   0.488332 0.128816 0.496778 -0.123294
C21   C     C_R   0.476218 0.060440 0.371407 0.129155
C22   C     C_R   0.476399 0.931546 0.374602 -0.253672
H6    H     H_    0.470941 0.880463 0.276939 0.168125
C23   C     C_R   0.488271 0.870163 0.500812 -0.097507
C24   C     C_R   0.487373 0.938761 0.624994 0.078391
C25   C     C_3   0.538414 0.934745 0.748612 -0.520625
C26   C     C_3   0.539852 0.074297 0.745443 0.216289
H7    H     H_    0.508996 0.896925 0.841454 0.217774
H8    H     H_    0.594077 0.893271 0.723041 0.210211
H9    H     H_    0.596298 0.113383 0.720829 0.188407
C27   C     C_R   0.563268 0.532903 0.073813 0.255746
N1    N     N_R   0.500470 0.500930 0.147930 -0.210697
C28   C     C_R   0.441661 0.450720 0.075061 -0.035532
H10   H     H_    0.395064 0.410691 0.131836 0.167541
C29   C     C_R   0.441026 0.450118 0.926172 0.282988
N2    N     N_R   0.500480 0.500890 0.852020 -0.226655
C30   C     C_R   0.563836 0.530946 0.926691 0.241435
C31   C     C_3   0.606800 0.649454 0.923592 0.091339
C32   C     C_3   0.605317 0.651940 0.082855 -0.555253
H11   H     H_    0.574610 0.724027 0.875250 0.109394
H12   H     H_    0.661517 0.641740 0.132643 0.232260
H13   H     H_    0.570369 0.727722 0.127136 0.184617
N3    N     N_3   0.887169 0.337566 0.671749 -0.507682
H14   H     H_    0.924345 0.290527 0.605160 0.221557
H15   H     H_    0.918961 0.385873 0.746723 0.237375
N4    N     N_R   0.504584 0.131226 0.868355 0.126631
O9    O     O_R   0.541896 0.213554 0.940687 -0.355242
O10   O     O_R   0.436802 0.099524 0.907667 -0.420233
N5    N     N_3   0.378261 0.394689 0.854354 -0.547601
H16   H     H_    0.397213 0.313833 0.806253 0.282320
H17   H     H_    0.335926 0.368947 0.924738 0.183623
N6    N     N_R   0.682851 0.634793 0.865674 0.162729
O11   O     O_R   0.707151 0.710455 0.771301 -0.367036
O12   O     O_R   0.726687 0.546828 0.906980 -0.317828
N7    N     N_R   0.727986 0.315933 0.649561 0.138466
O13   O     O_R   0.744304 0.285735 0.777015 -0.269109
O14   O     O_R   0.680395 0.248496 0.578256 -0.421245
N8    N     N_3   0.264107 0.478507 0.242908 -0.595456
H18   H     H_    0.242737 0.396988 0.198430 0.211000
H19   H     H_    0.248968 0.551116 0.178411 0.216916
N9    N     N_3   0.467202 0.119926 0.240067 -0.509224
H20   H     H_    0.509881 0.088531 0.173114 0.280195
H21   H     H_    0.415289 0.092120 0.197902 0.242171

loop_
_geom_bond_atom_site_label_1
_geom_bond_atom_site_label_2
_geom_bond_distance
_ccdc_geom_bond_type
C14   C15   1.409029 A    
C29   N5    1.432277 S    
C25   C26   1.517110 S    
C20   C21   1.417297 A    
C19   C26   1.496395 S    
Cu1   Cu2   2.691427 S    
C31   C32   1.523586 S    
Cu1   O7    1.936044 S    
C15   C16   1.418409 A    
C19   C24   1.379337 A    
C21   C22   1.401330 A    
N9    H21   1.045440 S    
C8    H1    1.083302 S    
C16   C17   1.399717 A    
O7    C4    1.296935 A    
N3    H15   1.045583 S    
C5    C6    1.406577 A    
C27   C30   1.407286 A    
C19   C20   1.396821 A    
N8    H18   1.045688 S    
N4    O10   1.302265 A    
O5    C3    1.298115 A    
C21   N9    1.431337 S    
C5    C10   1.409212 A    
N1    C28   1.360777 A    
C6    C7    1.412599 A    
C11   C12   1.199396 T    
C17   C18   1.394097 A    
N7    O13   1.301098 A    
C28   C29   1.424333 A    
C25   H7    1.111093 S    
C4    C7    1.463044 S    
O3    Cu1   1.937164 S    
C29   N2    1.383903 A    
C31   H11   1.101974 S    
C32   H12   1.111148 S    
N6    O11   1.300483 A    
C6    N7    1.436080 S    
N9    H20   1.045113 S    
O3    C2    1.304403 A    
C23   C24   1.393073 A    
C16   N8    1.431636 S    
N3    H14   1.045574 S    
N2    C30   1.366330 A    
O1    C1    1.298273 A    
C26   H9    1.109168 S    
N5    H17   1.045699 S    
C22   H6    1.083720 S    
C17   H5    1.084460 S    
C1    C20   1.457623 S    
Cu2   O8    1.937162 S    
C27   C32   1.489238 S    
C7    C8    1.399663 A    
C26   N4    1.461219 S    
C24   C25   1.491443 S    
O8    C4    1.298218 A    
C5    N3    1.434936 S    
N8    H19   1.045650 S    
C30   C31   1.491491 S    
Cu1   O5    1.973785 S    
C27   N1    1.362881 A    
C28   H10   1.079109 S    
O1    Cu1   1.967513 S    
O2    Cu2   1.973785 S    
C9    C10   1.396972 A    
O6    C3    1.293707 A    
O4    Cu2   1.936046 S    
C13   C14   1.393762 A    
C12   C18   1.428890 S    
N5    H16   1.042840 S    
O2    C1    1.295546 A    
C13   H3    1.083645 S    
Cu2   N1    2.022513 S    
Cu1   N2    2.021781 S    
C22   C23   1.405049 A    
O4    C2    1.301038 A    
C25   H8    1.111732 S    
C8    C9    1.391285 A    
N4    O9    1.300262 A    
C31   N6    1.463547 S    
C3    C23   1.452137 S    
C2    C15   1.481795 S    
C9    H2    1.083715 S    
Cu2   O6    1.967513 S    
C14   H4    1.082322 S    
C10   C11   1.432230 S    
N7    O14   1.300456 A    
N6    O12   1.302096 A    
C13   C18   1.394567 A    
C32   H13   1.111686 S    
