data_mof_unit_34092.cif
_audit_creation_date              2012-12-11T16:29:36-0500
_audit_creation_method            fapswitch 2.2
_symmetry_space_group_name_H-M    P1
_symmetry_Int_Tables_number       1
_space_group_crystal_system       triclinic
_cell_length_a                    6.952177
_cell_length_b                    17.391605
_cell_length_c                    18.692184
_cell_angle_alpha                 106.297066
_cell_angle_beta                  89.555521
_cell_angle_gamma                 90.442434
_cell_volume                      2169.15136214

loop_
_atom_site_label
_atom_site_type_symbol
_atom_type_description
_atom_site_fract_x
_atom_site_fract_y
_atom_site_fract_z
_atom_type_partial_charge
O1    O     O_R   0.494360 0.415680 0.413760 -0.531920
O2    O     O_R   0.818810 0.432910 0.557230 -0.522796
O3    O     O_R   0.994290 0.584320 0.586240 -0.531806
C1    C     C_R   0.649678 0.415893 0.580552 0.720068
O4    O     O_R   0.823740 0.406440 0.412520 -0.540471
O5    O     O_R   0.999250 0.557660 0.440500 -0.528448
C2    C     C_R   0.656894 0.389045 0.380943 0.721528
O6    O     O_R   0.489400 0.442340 0.559500 -0.522595
O7    O     O_3   0.662500 0.549650 0.509350 -0.359094
V1    V     V_3+5 0.935340 0.490790 0.498270 1.402386
O8    O     O_R   0.329270 0.567090 0.442770 -0.528727
C3    C     C_R   0.161176 0.584106 0.419452 0.699488
O9    O     O_R   0.324340 0.593560 0.587480 -0.533717
C4    C     C_R   0.155180 0.616353 0.615093 0.701109
V2    V     V_3+5 0.435970 0.509210 0.501730 1.402246
O10   O     O_3   0.158940 0.450350 0.490650 -0.357252
H1    H     H_    0.840763 0.845548 0.561103 0.115791
C5    C     C_R   0.308034 0.605243 0.755577 -0.140719
C6    C     C_R   0.381791 0.597680 0.822321 -0.122439
C7    C     C_R   0.369278 0.661056 0.886776 -0.120973
C8    C     C_R   0.283158 0.732525 0.884964 -0.131035
C9    C     C_R   0.209441 0.742562 0.817752 0.070198
C10   C     C_R   0.221876 0.677481 0.751648 0.068561
C11   C     C_R   0.120480 0.815203 0.816064 -0.187803
C12   C     C_R   0.043591 0.822606 0.748186 0.068768
C13   C     C_R   0.056014 0.757519 0.682079 0.070180
C14   C     C_R   0.144895 0.684865 0.683786 -0.189383
C15   C     C_R   0.957575 0.894866 0.744237 -0.141166
C16   C     C_R   0.884039 0.902463 0.677461 -0.121690
C17   C     C_R   0.896525 0.839078 0.613009 -0.120450
C18   C     C_R   0.982410 0.767566 0.614851 -0.131073
H2    H     H_    0.318186 0.553479 0.707508 0.109733
H3    H     H_    0.447521 0.542032 0.824139 0.117319
H4    H     H_    0.425186 0.654614 0.938668 0.114714
H5    H     H_    0.273640 0.779248 0.937063 0.105654
H6    H     H_    0.947411 0.946619 0.792319 0.109057
H7    H     H_    0.818477 0.958138 0.675613 0.116714
H8    H     H_    0.991879 0.720817 0.562763 0.106486
C19   C     C_1   0.111578 0.863812 0.132549 -0.219207
C20   C     C_1   0.119002 0.821178 0.176078 -0.004651
C21   C     C_1   0.128352 0.770907 0.227937 -0.007922
C22   C     C_1   0.136377 0.728604 0.271742 -0.008800
C23   C     C_1   0.145821 0.678453 0.323684 -0.004678
C24   C     C_1   0.153373 0.635992 0.367338 -0.223021
C25   C     C_1   0.640837 0.363691 0.632328 -0.230411
C26   C     C_1   0.636711 0.320909 0.675737 -0.008919
C27   C     C_1   0.633594 0.270578 0.727548 -0.002998
C28   C     C_1   0.631350 0.228292 0.771413 -0.005768
C29   C     C_1   0.628248 0.178199 0.823441 -0.005349
C30   C     C_1   0.624152 0.135749 0.867151 -0.220109
C31   C     C_R   0.689370 0.408419 0.222343 0.130818
C32   C     C_R   0.655483 0.415898 0.150601 -0.118212
C33   C     C_R   0.606669 0.350352 0.092327 -0.165799
C34   C     C_R   0.596657 0.275202 0.103485 -0.133791
C35   C     C_R   0.623127 0.264293 0.174925 0.051061
C36   C     C_R   0.655916 0.332543 0.237815 0.018311
C37   C     C_R   0.618861 0.185844 0.183151 -0.160849
C38   C     C_R   0.627859 0.174607 0.255001 0.063179
C39   C     C_R   0.639844 0.241766 0.318968 0.059270
C40   C     C_R   0.652161 0.320927 0.311299 -0.175338
C41   C     C_R   0.621147 0.096840 0.264476 -0.198991
C42   C     C_R   0.624733 0.085064 0.335133 -0.105975
C43   C     C_R   0.634596 0.150632 0.398979 0.179366
C44   C     C_R   0.641794 0.228007 0.390251 -0.191109
H9    H     H_    0.674249 0.473129 0.138893 0.120165
H10   H     H_    0.584102 0.357339 0.037243 0.126388
H11   H     H_    0.565831 0.225694 0.055081 0.103491
H12   H     H_    0.611933 0.044021 0.217265 0.106876
H13   H     H_    0.618973 0.024197 0.338895 0.127891
H14   H     H_    0.650129 0.277329 0.440532 0.098568
O11   O     O_R   0.775690 0.057750 0.940570 -0.523664
O12   O     O_R   0.441200 0.093570 0.087490 -0.535391
O13   O     O_R   0.265840 0.942320 0.059480 -0.525425
C45   C     C_R   0.609424 0.115438 0.115910 0.699242
O14   O     O_R   0.446270 0.067110 0.942790 -0.525543
O15   O     O_R   0.270950 0.915660 0.913750 -0.533330
C46   C     C_R   0.615372 0.083950 0.919298 0.711590
O16   O     O_R   0.770580 0.084400 0.086300 -0.531145
O17   O     O_3   0.602640 0.950400 0.990690 -0.360643
V3    V     V_3+5 0.329740 0.009200 0.001730 1.418030
O18   O     O_R   0.940900 0.906360 0.912450 -0.535619
C47   C     C_R   0.110092 0.883676 0.884798 0.695043
O19   O     O_R   0.935830 0.932820 0.057160 -0.525042
C48   C     C_R   0.103874 0.915879 0.080559 0.712687
V4    V     V_3+5 0.829130 0.990680 0.998180 1.418077
O20   O     O_3   0.106100 0.049590 0.009310 -0.357742
C49   C     C_3   0.781411 0.481500 0.274807 -0.408842
C50   C     C_3   0.631184 0.544567 0.309298 -0.683168
H15   H     H_    0.584899 0.575636 0.267950 0.206454
H16   H     H_    0.503421 0.515637 0.326307 0.225578
H17   H     H_    0.691817 0.589610 0.358420 0.223903
H18   H     H_    0.871631 0.466240 0.316602 0.190907
H19   H     H_    0.886828 0.508574 0.243684 0.177268
C51   C     C_3   0.638421 0.142409 0.477721 -0.356536
C52   C     C_3   0.631715 0.056630 0.484005 -0.769192
H20   H     H_    0.496518 0.026243 0.459659 0.226822
H21   H     H_    0.758137 0.022339 0.455549 0.225450
H22   H     H_    0.635696 0.057924 0.543720 0.222997
H23   H     H_    0.771617 0.171593 0.505445 0.183467
H24   H     H_    0.513853 0.175396 0.509232 0.183839

loop_
_geom_bond_atom_site_label_1
_geom_bond_atom_site_label_2
_ccdc_geom_bond_type
C35   C36   A    
C21   C22   T    
C52   H20   S    
O17   V4    S    
C1    O6    A    
O18   C47   A    
C52   H22   S    
C25   C26   T    
C12   C15   A    
C43   C51   S    
C13   C14   A    
C16   C17   A    
C8    C9    A    
C15   C16   A    
C19   C48   S    
C5    C6    A    
V4    O20   S    
C17   C18   A    
V2    O10   S    
C31   C36   A    
C11   C47   S    
V3    O20   S    
C26   C27   S    
O8    V2    S    
C6    C7    A    
O1    V2    S    
C44   H14   S    
C4    C14   S    
O7    V1    S    
O13   C48   A    
C7    H4    S    
C38   C41   A    
C39   C40   A    
O11   V4    S    
C49   H18   S    
H1    C17   S    
C41   C42   A    
C1    C25   S    
C5    C10   A    
C27   C28   T    
C11   C12   A    
O12   C45   A    
C6    H3    S    
O15   C47   A    
C19   C20   T    
O4    C2    A    
C34   H11   S    
C38   C39   A    
C33   C34   A    
C31   C32   A    
C42   H13   S    
C37   C45   S    
O2    C1    A    
C23   C24   T    
C42   C43   A    
O19   C48   A    
C50   H17   S    
C51   H24   S    
C39   C44   A    
C7    C8    A    
C33   H10   S    
O14   C46   A    
O3    C4    A    
O16   V4    S    
C20   C21   S    
O19   V4    S    
C50   H16   S    
O6    V2    S    
C10   C14   A    
C35   C37   A    
C9    C11   A    
O17   V3    S    
C5    H2    S    
C22   C23   S    
C31   C49   S    
O2    V1    S    
C30   C46   S    
C2    C40   S    
O11   C46   A    
C32   C33   A    
O14   V3    S    
C34   C35   A    
C28   C29   S    
O1    C2    A    
O15   V3    S    
O5    V1    S    
O8    C3    A    
C52   H21   S    
C8    H5    S    
C18   H8    S    
O9    V2    S    
C12   C13   A    
O4    V1    S    
O12   V3    S    
O3    V1    S    
V1    O10   S    
O5    C3    A    
C41   H12   S    
C37   C38   A    
C51   H23   S    
C49   H19   S    
O13   V3    S    
O7    V2    S    
C51   C52   S    
C43   C44   A    
C36   C40   A    
C13   C18   A    
C50   H15   S    
C15   H6    S    
C49   C50   S    
C3    C24   S    
C29   C30   T    
C45   O16   A    
C16   H7    S    
C9    C10   A    
O9    C4    A    
O18   V4    S    
C32   H9    S    
