data_mof_unit_7186.cif
_audit_creation_date              2012-12-10T17:17:27-0500
_audit_creation_method            fapswitch 2.2
_symmetry_space_group_name_H-M    P1
_symmetry_Int_Tables_number       1
_space_group_crystal_system       triclinic
_cell_length_a                    10.245426
_cell_length_b                    10.70376
_cell_length_c                    12.678616
_cell_angle_alpha                 91.739036
_cell_angle_beta                  110.068214
_cell_angle_gamma                 95.67621
_cell_volume                      1296.49591563

loop_
_atom_site_label
_atom_site_type_symbol
_atom_type_description
_atom_site_fract_x
_atom_site_fract_y
_atom_site_fract_z
_atom_type_partial_charge
C1    C     C_R   0.048513 0.732516 0.488330 0.940465
C2    C     C_R   0.429728 0.497099 0.982339 0.102825
C3    C     C_R   0.336571 0.457263 0.874004 0.083485
C4    C     C_R   0.560299 0.450723 0.020036 -0.007999
C5    C     C_R   0.610869 0.389562 0.944292 0.108348
C6    C     C_R   0.513779 0.340671 0.840443 -0.234162
C7    C     C_R   0.375602 0.367108 0.809344 -0.220339
C8    C     C_R   0.634637 0.449531 0.134087 0.138812
C9    C     C_R   0.840064 0.410442 0.090950 -0.326554
C10   C     C_R   0.210250 0.512401 0.832372 -0.115139
C11   C     C_2   0.066091 0.864215 0.466977 -0.370900
C12   C     C_R   0.133720 0.506250 0.712220 0.851390
C13   C     C_2   0.952812 0.925397 0.437380 -0.152287
C14   C     C_2   0.907921 0.131873 0.493175 0.064131
C15   C     C_2   0.967742 0.060642 0.437486 -0.240718
C16   C     C_2   0.433366 0.505442 0.517394 -0.138963
C17   C     C_2   0.569513 0.476736 0.504776 0.267747
C18   C     C_R   0.946504 0.266784 0.503515 0.877793
C19   C     C_R   0.862645 0.479854 0.287793 0.892779
C20   C     C_R   0.754139 0.371117 0.979687 0.214975
C21   C     C_R   0.779820 0.448902 0.168977 -0.134736
C22   C     C_R   0.172513 0.594877 0.902279 -0.206160
C23   C     C_R   0.264335 0.631943 0.010019 -0.148253
C24   C     C_R   0.394299 0.587847 0.048165 -0.186238
H1    H     H_    0.849450 0.876672 0.422758 0.172258
H2    H     H_    0.312525 0.381747 0.392749 0.190027
H3    H     H_    0.542283 0.278410 0.785127 0.172913
H4    H     H_    0.469028 0.629983 0.126987 0.126536
H5    H     H_    0.042017 0.103041 0.401088 0.171506
N1    N     N_2   0.313640 0.446500 0.454900 -0.208924
N2    N     N_2   0.686360 0.553430 0.545150 -0.048708
O1    O     O_R   0.936910 0.692950 0.509080 -0.610470
O2    O     O_R   0.138320 0.658600 0.480130 -0.599326
O3    O     O_R   0.002900 0.525670 0.675280 -0.618044
O4    O     O_R   0.204310 0.491320 0.646330 -0.608327
O5    O     O_R   0.861680 0.341400 0.519870 -0.610264
O6    O     O_R   0.063090 0.307050 0.490920 -0.634514
O7    O     O_R   0.795690 0.508680 0.353670 -0.624783
O8    O     O_R   0.997100 0.474330 0.324720 -0.614322
Zn1   Zn    Zn3+2 0.865520 0.522940 0.519330 0.925941
Zn2   Zn    Zn3+2 0.134480 0.477060 0.480670 0.924594
H6    H     H_    0.951347 0.403390 0.117793 0.175645
N3    N     N_2   0.815256 0.080483 0.546901 -0.304663
H7    H     H_    0.747931 0.002270 0.506035 0.221827
C25   C     C_3   0.880854 0.071506 0.666732 -0.806971
H8    H     H_    0.799245 0.047150 0.704309 0.243170
H9    H     H_    0.941011 0.162572 0.707767 0.235700
H10   H     H_    0.953189 0.997816 0.683100 0.247651
H11   H     H_    0.169494 0.911742 0.479088 0.153842
N4    N     N_2   0.566863 0.360361 0.446833 -0.325402
H12   H     H_    0.638315 0.357592 0.407367 0.302087
C26   C     C_3   0.554117 0.250298 0.507746 -0.806303
H13   H     H_    0.646697 0.252194 0.585913 0.278982
H14   H     H_    0.546804 0.164201 0.454024 0.242975
H15   H     H_    0.458292 0.245777 0.530338 0.236172
H16   H     H_    0.433592 0.576911 0.579924 0.170273
N5    N     N_2   0.687111 0.641190 0.628030 -0.280784
H17   H     H_    0.676917 0.602628 0.698782 0.205032
C27   C     C_3   0.789479 0.749826 0.652585 -0.660741
H18   H     H_    0.771429 0.815173 0.714481 0.192836
H19   H     H_    0.776619 0.799670 0.575158 0.246924
H20   H     H_    0.896516 0.723111 0.690765 0.255518
N6    N     N_2   0.812894 0.314963 0.905635 -0.325644
H21   H     H_    0.903535 0.275938 0.946496 0.224370
C28   C     C_3   0.827251 0.393810 0.818786 -0.753887
H22   H     H_    0.886336 0.348782 0.772524 0.248266
H23   H     H_    0.884234 0.487177 0.856384 0.241220
H24   H     H_    0.723290 0.406239 0.757427 0.235329
N7    N     N_2   0.561313 0.411228 0.207624 -0.295976
H25   H     H_    0.519409 0.480278 0.239553 0.232090
C29   C     C_3   0.472880 0.291776 0.175251 -0.796771
H26   H     H_    0.431059 0.265403 0.242349 0.242386
H27   H     H_    0.534287 0.216622 0.162088 0.248658
H28   H     H_    0.382207 0.297982 0.097225 0.245290
H29   H     H_    0.077318 0.639221 0.870511 0.144477
H30   H     H_    0.238267 0.700972 0.061463 0.142909
H31   H     H_    0.301685 0.319087 0.732752 0.177117

loop_
_geom_bond_atom_site_label_1
_geom_bond_atom_site_label_2
_ccdc_geom_bond_type
C17   N4    S    
C29   H28   S    
N4    C26   S    
N3    H7    S    
N6    C28   S    
N1    Zn2   S    
C15   H5    S    
C6    C7    A    
C11   H11   S    
C19   O7    A    
C11   C13   D    
C14   C18   S    
C9    C20   A    
C2    C4    A    
C6    H3    S    
C1    C11   S    
C26   H15   S    
C4    C8    A    
C23   H30   S    
C23   C24   A    
C28   H24   S    
O2    Zn2   S    
N2    N5    S    
C20   N6    S    
C16   H16   S    
C2    C3    A    
C9    H6    S    
C1    O2    A    
C27   H18   S    
O8    Zn2   S    
C3    C10   A    
C25   H8    S    
C26   H13   S    
C12   O4    A    
O7    Zn1   S    
C4    C5    A    
N3    C25   S    
C28   H23   S    
C9    C21   A    
C8    N7    S    
N7    H25   S    
C10   C12   S    
C22   H29   S    
O3    Zn1   S    
C5    C6    A    
C19   O8    A    
C19   C21   S    
C18   O6    A    
C26   H14   S    
H2    N1    S    
C3    C7    A    
O1    Zn1   S    
C13   C15   S    
O6    Zn2   S    
C7    H31   S    
O4    Zn2   S    
C27   H19   S    
C13   H1    S    
N5    C27   S    
C16   N1    D    
N6    H21   S    
N7    C29   S    
C29   H26   S    
N2    Zn1   S    
C18   O5    A    
C29   H27   S    
C28   H22   S    
C25   H9    S    
C5    C20   A    
C22   C23   A    
C16   C17   S    
O5    Zn1   S    
C2    C24   A    
C25   H10   S    
N4    H12   S    
N5    H17   S    
C14   C15   D    
C12   O3    A    
C1    O1    A    
C10   C22   A    
C17   N2    D    
C24   H4    S    
C14   N3    S    
C27   H20   S    
C8    C21   A    
