data_mof_unit_51556.cif
_audit_creation_date              2012-12-10T19:04:26-0500
_audit_creation_method            fapswitch 2.2
_symmetry_space_group_name_H-M    P1
_symmetry_Int_Tables_number       1
_space_group_crystal_system       triclinic
_cell_length_a                    24.499413
_cell_length_b                    24.509201
_cell_length_c                    27.543457
_cell_angle_alpha                 89.945621
_cell_angle_beta                  90.048633
_cell_angle_gamma                 90.035439
_cell_volume                      16538.7562071

loop_
_atom_site_label
_atom_site_type_symbol
_atom_type_description
_atom_site_fract_x
_atom_site_fract_y
_atom_site_fract_z
_atom_type_partial_charge
C1    C     C_R   0.772328 0.728505 0.751145 -0.036883
C2    C     C_R   0.771167 0.270118 0.749867 -0.042607
C3    C     C_R   0.646465 0.809298 0.784659 0.191654
C4    C     C_R   0.831232 0.334653 0.204905 0.187159
C5    C     C_R   0.199054 0.638257 0.772891 0.204758
C6    C     C_R   0.641721 0.804061 0.221402 0.206828
C7    C     C_R   0.361196 0.198682 0.773230 0.194360
C8    C     C_R   0.322484 0.158304 0.292314 0.188687
C9    C     C_R   0.692481 0.854788 0.717245 0.207564
C10   C     C_R   0.171045 0.661367 0.296397 0.186476
C11   C     C_R   0.855739 0.306787 0.717522 0.207716
C12   C     C_R   0.694710 0.856843 0.280174 0.207832
C13   C     C_R   0.270474 0.227378 0.249035 -0.031967
C14   C     C_R   0.302709 0.140154 0.723447 0.204703
C15   C     C_R   0.833827 0.330480 0.293463 0.190038
C16   C     C_R   0.139129 0.698168 0.725822 0.197082
C17   C     C_R   0.669713 0.165103 0.705732 0.188615
C18   C     C_R   0.311045 0.852327 0.287823 0.205716
C19   C     C_R   0.831894 0.667244 0.706326 0.188617
C20   C     C_R   0.139496 0.302392 0.275723 0.203967
C21   C     C_R   0.321305 0.842699 0.707152 0.200506
C22   C     C_R   0.696109 0.141795 0.278003 0.193665
C23   C     C_R   0.160152 0.325139 0.706025 0.179347
C24   C     C_R   0.730323 0.771642 0.751677 -0.040773
C25   C     C_R   0.867694 0.702560 0.248563 0.187898
C26   C     C_R   0.853123 0.647616 0.750433 -0.038142
C27   C     C_R   0.148027 0.352133 0.250591 -0.069057
C28   C     C_R   0.647534 0.147038 0.750027 -0.045573
C29   C     C_R   0.352773 0.850764 0.252146 -0.073770
C30   C     C_R   0.148590 0.353403 0.749370 -0.055965
C31   C     C_R   0.852757 0.647194 0.250033 -0.042774
C32   C     C_R   0.352561 0.852108 0.749524 -0.062736
C33   C     C_R   0.649470 0.146834 0.247976 -0.069351
C34   C     C_R   0.147769 0.646686 0.251513 -0.047870
C35   C     C_R   0.772370 0.271408 0.248152 -0.038199
C36   C     C_R   0.851609 0.352142 0.749214 -0.073703
C37   C     C_R   0.352078 0.147135 0.249604 -0.051820
C38   C     C_R   0.648419 0.852246 0.750393 -0.072905
C39   C     C_R   0.852696 0.352713 0.249499 -0.046399
C40   C     C_R   0.148285 0.647667 0.749584 -0.071847
C41   C     C_R   0.647791 0.851424 0.250475 -0.074432
C42   C     C_R   0.352358 0.148437 0.748980 -0.069746
C43   C     C_3   0.814228 0.784898 0.845032 0.025776
C44   C     C_3   0.811304 0.801886 0.898284 -0.247834
C45   C     C_3   0.841494 0.855478 0.906971 -0.498237
C46   C     C_R   0.229732 0.728281 0.748735 -0.010655
C47   C     C_3   0.324970 0.353354 0.241168 0.025335
C48   C     C_3   0.373576 0.379126 0.215088 -0.245494
C49   C     C_3   0.414883 0.402212 0.251136 -0.499157
C50   C     C_3   0.779565 0.193394 0.848109 0.023640
C51   C     C_3   0.794629 0.201448 0.901423 -0.247290
C52   C     C_3   0.847847 0.172325 0.913982 -0.497990
C53   C     C_3   0.339993 0.673758 0.217380 0.013960
C54   C     C_3   0.360421 0.631310 0.181139 -0.254952
C55   C     C_3   0.378318 0.579076 0.206854 -0.493738
C56   C     C_3   0.217422 0.233638 0.854464 0.008196
C57   C     C_R   0.728957 0.770082 0.250430 -0.042510
C58   C     C_3   0.160371 0.241444 0.876349 -0.254367
C59   C     C_3   0.139791 0.188819 0.899639 -0.501963
C60   C     C_3   0.685794 0.666129 0.311588 0.013241
C61   C     C_3   0.713378 0.628789 0.349141 -0.258530
C62   C     C_3   0.690527 0.638677 0.399882 -0.501254
C63   C     C_3   0.257285 0.797089 0.866566 0.017282
C64   C     C_3   0.233760 0.766382 0.910108 -0.267349
C65   C     C_3   0.208344 0.805320 0.946898 -0.493868
C66   C     C_3   0.656569 0.325977 0.219542 0.017056
C67   C     C_3   0.597530 0.319443 0.237390 -0.258789
C68   C     C_R   0.272015 0.230212 0.747420 -0.013251
C69   C     C_3   0.578348 0.370407 0.264148 -0.503725
C70   C     C_3   0.173762 0.786437 0.161975 0.016226
C71   C     C_3   0.189356 0.819481 0.117029 -0.260067
C72   C     C_3   0.146815 0.863109 0.105727 -0.492693
C73   C     C_3   0.675419 0.346085 0.778479 0.024531
C74   C     C_3   0.628522 0.362579 0.811864 -0.245703
C75   C     C_3   0.579472 0.382902 0.782803 -0.499290
C76   C     C_3   0.238158 0.210774 0.140711 0.024949
C77   C     C_3   0.234764 0.226632 0.087146 -0.246620
C78   C     C_3   0.185343 0.200635 0.062560 -0.497776
C79   C     C_1   0.999989 0.500087 0.569081 -0.012114
C80   C     C_3   0.658437 0.677213 0.793992 0.020578
C81   C     C_3   0.596381 0.681117 0.787157 -0.256231
C82   C     C_3   0.572204 0.626560 0.771362 -0.504083
C83   C     C_3   0.802473 0.218718 0.150130 0.014571
C84   C     C_3   0.864356 0.222412 0.141432 -0.257557
C85   C     C_3   0.888174 0.166681 0.128908 -0.503817
C86   C     C_3   0.328635 0.649134 0.748426 0.008799
C87   C     C_3   0.323273 0.588465 0.735743 -0.248624
C88   C     C_3   0.366848 0.570994 0.699418 -0.504931
C89   C     C_3   0.708862 0.724893 0.146083 0.013404
C90   C     C_1   0.000049 0.499977 0.430915 -0.012515
C91   C     C_3   0.684154 0.765189 0.109468 -0.252272
C92   C     C_3   0.712722 0.761643 0.060361 -0.498298
C93   C     C_3   0.370427 0.320021 0.754288 0.018734
C94   C     C_3   0.372631 0.380145 0.768797 -0.266273
C95   C     C_3   0.411821 0.412241 0.736565 -0.496437
C96   C     C_3   0.281887 0.263362 0.356272 0.015338
C97   C     C_3   0.335970 0.252961 0.382766 -0.251979
C98   C     C_3   0.355869 0.304240 0.408704 -0.503753
C99   C     C_3   0.826362 0.842915 0.716651 0.017428
C100  C     C_3   0.820717 0.902578 0.732970 -0.259328
C101  C     C_1   0.500024 0.000067 0.569080 -0.007719
C102  C     C_3   0.872817 0.922625 0.757569 -0.503370
C103  C     C_3   0.291154 0.686678 0.345079 0.013825
C104  C     C_3   0.288935 0.624276 0.350087 -0.255285
C105  C     C_3   0.345980 0.600428 0.356605 -0.503836
C106  C     C_3   0.844211 0.172918 0.721501 0.017336
C107  C     C_3   0.903230 0.179398 0.739501 -0.258316
C108  C     C_3   0.922004 0.128739 0.767062 -0.503822
C109  C     C_3   0.764288 0.788881 0.357573 0.024365
C110  C     C_3   0.803072 0.807075 0.397851 -0.250576
C111  C     C_3   0.793961 0.774193 0.444246 -0.493833
C112  C     C_R   0.227823 0.269755 0.248638 -0.037818
C113  C     C_1   0.500084 0.000073 0.430917 -0.007103
C114  C     C_3   0.174899 0.147343 0.741793 0.020232
C115  C     C_3   0.126458 0.120047 0.716715 -0.247473
C116  C     C_3   0.085287 0.098601 0.753652 -0.498761
C117  C     C_3   0.720819 0.304312 0.346841 0.022605
C118  C     C_3   0.705125 0.294212 0.399722 -0.247449
C119  C     C_3   0.652005 0.323242 0.412645 -0.496593
C120  C     C_3   0.136213 0.820393 0.749035 0.019960
C121  C     C_3   0.135428 0.880844 0.735449 -0.262642
C122  C     C_3   0.103096 0.914338 0.772157 -0.494206
C123  C     C_3   0.699185 0.281508 0.651898 0.014359
C124  C     C_1   0.500188 0.000072 0.069078 -0.006313
C125  C     C_3   0.637682 0.277739 0.641410 -0.257321
C126  C     C_3   0.614180 0.333525 0.628486 -0.501769
C127  C     C_3   0.183747 0.850438 0.297441 0.030230
C128  C     C_3   0.151244 0.878556 0.337540 -0.249755
C129  C     C_3   0.103736 0.911336 0.316691 -0.499190
C130  C     C_3   0.714508 0.697363 0.654640 0.014090
C131  C     C_3   0.718544 0.636682 0.641369 -0.254267
C132  C     C_3   0.663301 0.614115 0.625513 -0.500534
C133  C     C_3   0.147974 0.171651 0.255112 0.015457
C134  C     C_3   0.088524 0.180749 0.239394 -0.252899
C135  C     C_1   0.500286 0.999945 0.930911 -0.008273
C136  C     C_3   0.069287 0.136010 0.204906 -0.504282
C137  C     C_3   0.290318 0.746479 0.637045 0.020055
C138  C     C_3   0.280524 0.753962 0.582641 -0.249445
C139  C     C_3   0.310271 0.710648 0.553021 -0.494405
C140  C     C_3   0.827917 0.155193 0.273736 0.018660
C141  C     C_3   0.875834 0.138576 0.306011 -0.250624
C142  C     C_3   0.925025 0.121362 0.275683 -0.498810
C143  C     C_3   0.252480 0.303947 0.635375 0.019012
C144  C     C_3   0.283277 0.274091 0.595171 -0.265986
C145  C     C_3   0.317168 0.313435 0.564579 -0.494906
C146  C     C_1   0.999884 0.499851 0.069077 -0.007421
C147  C     C_3   0.835552 0.817464 0.193995 0.012422
C148  C     C_3   0.879002 0.796022 0.158733 -0.253281
C149  C     C_3   0.876531 0.825954 0.110193 -0.500745
C150  C     C_3   0.822661 0.620605 0.865088 0.038898
C151  C     C_3   0.850820 0.602286 0.911887 -0.256101
C152  C     C_3   0.810819 0.574651 0.946514 -0.501799
C153  C     C_3   0.196999 0.398943 0.150215 0.049662
C154  C     C_3   0.199876 0.453161 0.122918 -0.253173
C155  C     C_3   0.187234 0.445441 0.069081 -0.492913
C156  C     C_3   0.611515 0.188976 0.858783 0.042290
C157  C     C_1   0.999916 0.499891 0.930916 -0.009142
C158  C     C_3   0.585994 0.165549 0.904923 -0.256159
C159  C     C_3   0.550137 0.207595 0.930385 -0.505220
C160  C     C_3   0.376815 0.833524 0.141421 0.049619
C161  C     C_3   0.351679 0.795596 0.103228 -0.261243
C162  C     C_3   0.340730 0.825728 0.055691 -0.509550
C163  C     C_3   0.204012 0.415957 0.837421 0.058555
C164  C     C_3   0.255400 0.403479 0.867150 -0.265085
C165  C     C_3   0.287777 0.455330 0.877690 -0.512618
C166  C     C_3   0.757521 0.558554 0.214546 0.051506
C167  C     C_3   0.717955 0.512827 0.228249 -0.251894
C168  C     C_1   0.000017 0.500096 0.525486 -0.058303
C169  C     C_3   0.685510 0.492974 0.184377 -0.503134
C170  C     C_3   0.419233 0.789273 0.831093 0.057162
C171  C     C_3   0.407479 0.738453 0.861781 -0.269161
C172  C     C_3   0.457740 0.701979 0.865598 -0.503941
C173  C     C_3   0.612782 0.169512 0.140953 0.041686
C174  C     C_3   0.636186 0.208191 0.102497 -0.259999
C175  C     C_3   0.638709 0.180869 0.052764 -0.510055
C176  C     C_3   0.172185 0.618833 0.140766 0.046467
C177  C     C_3   0.210519 0.644732 0.103285 -0.259297
C178  C     C_3   0.234928 0.601976 0.069524 -0.516437
C179  C     C_1   0.000051 0.500040 0.474508 -0.057427
C180  C     C_3   0.823544 0.382318 0.858192 0.047049
C181  C     C_3   0.825151 0.431430 0.892242 -0.249198
C182  C     C_3   0.854255 0.417846 0.939751 -0.489462
C183  C     C_3   0.406186 0.206582 0.154744 0.047294
C184  C     C_3   0.441409 0.190714 0.111250 -0.251982
C185  C     C_3   0.481687 0.235943 0.098281 -0.505292
C186  C     C_3   0.624294 0.831698 0.862111 0.042800
C187  C     C_3   0.578229 0.831683 0.899459 -0.253048
C188  C     C_3   0.595064 0.861109 0.945929 -0.482109
C189  C     C_3   0.812351 0.392505 0.142458 0.040260
C190  C     C_1   0.500089 0.000097 0.525486 -0.055855
C191  C     C_3   0.835510 0.417978 0.096180 -0.251132
C192  C     C_3   0.797613 0.461815 0.075873 -0.495391
C193  C     C_3   0.194075 0.595069 0.846727 0.050281
C194  C     C_3   0.243049 0.610364 0.878564 -0.265676
C195  C     C_3   0.228974 0.606860 0.932422 -0.516345
C196  C     C_3   0.553600 0.772029 0.220147 0.051810
C197  C     C_3   0.553829 0.709893 0.214302 -0.255518
C198  C     C_3   0.501385 0.684646 0.233898 -0.512720
C199  C     C_3   0.399535 0.190345 0.848901 0.048310
C200  C     C_3   0.387163 0.238894 0.882089 -0.268493
C201  C     C_1   0.500115 0.000100 0.474510 -0.056294
C202  C     C_3   0.384042 0.221342 0.935205 -0.507177
C203  C     C_3   0.292093 0.091471 0.343015 0.045555
C204  C     C_3   0.309053 0.054179 0.384885 -0.249722
C205  C     C_3   0.265308 0.011492 0.395667 -0.498791
C206  C     C_3   0.667669 0.882801 0.640742 0.043742
C207  C     C_3   0.707201 0.864329 0.601002 -0.260464
C208  C     C_3   0.678395 0.858974 0.552096 -0.505550
C209  C     C_3   0.122706 0.665049 0.367070 0.036083
C210  C     C_3   0.108147 0.633090 0.412937 -0.248824
C211  C     C_3   0.066601 0.663616 0.443941 -0.493085
C212  C     C_1   0.500315 0.000044 0.025481 -0.055606
C213  C     C_3   0.886793 0.329596 0.641542 0.042822
C214  C     C_3   0.864360 0.290264 0.603195 -0.260719
C215  C     C_3   0.860888 0.317488 0.553414 -0.509276
C216  C     C_3   0.729049 0.943868 0.284339 0.049623
C217  C     C_3   0.789725 0.945339 0.297655 -0.259464
C218  C     C_3   0.816702 0.997703 0.279755 -0.510526
C219  C     C_3   0.310930 0.097148 0.649849 0.049775
C220  C     C_3   0.264586 0.114665 0.615834 -0.265719
C221  C     C_3   0.281524 0.110190 0.562677 -0.512435
C222  C     C_3   0.888158 0.310776 0.358356 0.042006
C223  C     C_R   0.728402 0.227841 0.749716 -0.038465
C224  C     C_1   0.500365 0.999977 0.974503 -0.056834
C225  C     C_3   0.913021 0.334328 0.404729 -0.254894
C226  C     C_3   0.949543 0.292787 0.430215 -0.505143
C227  C     C_3   0.096887 0.691058 0.651786 0.050559
C228  C     C_3   0.111667 0.738932 0.618506 -0.267831
C229  C     C_3   0.112530 0.721535 0.565321 -0.515362
C230  C     C_3   0.691170 0.106946 0.644359 0.042962
C231  C     C_3   0.667921 0.076780 0.600421 -0.252636
C232  C     C_3   0.707731 0.033908 0.581510 -0.498899
C233  C     C_3   0.341089 0.880231 0.362746 0.040024
C234  C     C_3   0.306798 0.852550 0.402252 -0.262458
C235  C     C_1   0.999806 0.499805 0.025483 -0.055748
C236  C     C_3   0.338564 0.847360 0.449708 -0.505687
C237  C     C_3   0.884773 0.684426 0.640075 0.039692
C238  C     C_3   0.909330 0.658852 0.594500 -0.255591
C239  C     C_3   0.945441 0.699387 0.567318 -0.500919
C240  C     C_3   0.100818 0.312847 0.351016 0.048285
C241  C     C_3   0.112194 0.265470 0.385854 -0.264781
C242  C     C_3   0.114976 0.285019 0.438408 -0.507940
C243  C     C_3   0.294610 0.918257 0.663848 0.063309
C244  C     C_3   0.245095 0.907383 0.631253 -0.267354
C245  C     C_3   0.212829 0.959587 0.621966 -0.509604
C246  C     C_1   0.999813 0.499827 0.974508 -0.056500
C247  C     C_3   0.687439 0.109681 0.355122 0.037757
C248  C     C_3   0.688622 0.057806 0.385943 -0.251122
C249  C     C_3   0.670398 0.068922 0.437973 -0.487007
C250  C     C_3   0.095705 0.294032 0.653249 0.042059
C251  C     C_3   0.059397 0.310530 0.610568 -0.252032
C252  C     C_3   0.019942 0.264852 0.596895 -0.503905
C253  C     C_3   0.940473 0.738068 0.289518 0.043833
C254  C     C_3   0.001385 0.750724 0.285642 -0.260258
C255  C     C_3   0.023354 0.775561 0.332518 -0.515025
C256  C     C_R   0.999994 0.499976 0.879118 0.500392
C257  C     C_R   0.999973 0.499950 0.120880 0.502533
C258  C     C_R   0.500103 0.999977 0.879112 0.499878
C259  C     C_R   0.500026 0.000027 0.120885 0.496428
C260  C     C_R   0.500023 0.000023 0.379117 0.497908
C261  C     C_R   0.499995 0.000017 0.620882 0.499125
C262  C     C_R   0.000021 0.499982 0.379113 0.498105
C263  C     C_R   0.271820 0.769163 0.255176 -0.025209
C264  C     C_R   0.999979 0.500026 0.620886 0.497865
C265  C     C_R   0.105443 0.605301 0.749917 0.538636
C266  C     C_R   0.894808 0.394940 0.250008 0.581460
C267  C     C_R   0.605439 0.894628 0.750027 0.528728
C268  C     C_R   0.394728 0.105146 0.249924 0.566178
C269  C     C_R   0.894481 0.394702 0.749777 0.529439
C270  C     C_R   0.105126 0.605068 0.250108 0.583086
C271  C     C_R   0.394615 0.105405 0.749891 0.536893
C272  C     C_R   0.605364 0.894488 0.250113 0.525398
C273  C     C_R   0.894961 0.605151 0.249912 0.585293
C274  C     C_R   0.229311 0.272397 0.748375 -0.009072
C275  C     C_R   0.105387 0.394915 0.749965 0.562887
C276  C     C_R   0.394736 0.894356 0.250348 0.520746
C277  C     C_R   0.605193 0.105031 0.750054 0.578016
C278  C     C_R   0.105476 0.394758 0.250262 0.539506
C279  C     C_R   0.894969 0.605179 0.750066 0.585764
C280  C     C_R   0.605818 0.105044 0.249464 0.529053
C281  C     C_R   0.394848 0.894628 0.749837 0.555090
C282  C     C_R   0.797692 0.712325 0.794995 0.226684
C283  C     C_R   0.238817 0.321234 0.227892 0.227795
C284  C     C_R   0.709802 0.205726 0.794146 0.230374
C285  C     C_R   0.771651 0.727727 0.250728 -0.034283
C286  C     C_R   0.316431 0.764030 0.223043 0.246169
C287  C     C_R   0.214361 0.297282 0.792630 0.255885
C288  C     C_R   0.757353 0.672172 0.257039 0.243259
C289  C     C_R   0.298149 0.784808 0.792726 0.237578
C290  C     C_R   0.682278 0.235324 0.219971 0.249773
C291  C     C_R   0.200778 0.716665 0.211033 0.238221
C292  C     C_R   0.764162 0.317701 0.778005 0.233408
C293  C     C_R   0.296785 0.212631 0.205360 0.231946
C294  C     C_R   0.684492 0.766859 0.782569 0.243874
C295  C     C_R   0.794849 0.290614 0.204041 0.244578
C296  C     C_R   0.271754 0.771143 0.749054 -0.009743
C297  C     C_R   0.241338 0.676069 0.767556 0.256139
C298  C     C_R   0.684142 0.766037 0.218338 0.245980
C299  C     C_R   0.323445 0.241113 0.767783 0.238934
C300  C     C_R   0.285418 0.201726 0.293112 0.243335
C301  C     C_R   0.735569 0.817685 0.721029 0.253010
C302  C     C_R   0.214120 0.699079 0.297695 0.244777
C303  C     C_R   0.818681 0.263639 0.721432 0.251350
C304  C     C_R   0.732601 0.814412 0.282886 0.236674
C305  C     C_R   0.261009 0.178797 0.726915 0.237236
C306  C     C_R   0.790522 0.293174 0.292827 0.229143
C307  C     C_R   0.730132 0.228642 0.247919 -0.038983
C308  C     C_R   0.177566 0.739973 0.730300 0.241840
C309  C     C_R   0.706123 0.209122 0.705352 0.244141
C310  C     C_R   0.268667 0.814135 0.286592 0.235767
C311  C     C_R   0.788254 0.704200 0.706737 0.241754
C312  C     C_R   0.176538 0.259566 0.270175 0.251220
C313  C     C_R   0.285169 0.798648 0.705780 0.241661
C314  C     C_R   0.738014 0.180461 0.275214 0.235324
C315  C     C_R   0.204074 0.288475 0.704760 0.234473
C316  C     C_R   0.827124 0.742662 0.244809 0.244045
C317  C     C_R   0.834877 0.668869 0.794917 0.189209
C318  C     C_R   0.227988 0.727991 0.254966 -0.023660
C319  C     C_R   0.197422 0.360305 0.225132 0.190856
C320  C     C_R   0.666060 0.168935 0.794241 0.189641
C321  C     C_R   0.353897 0.806867 0.218658 0.209749
C322  C     C_R   0.178613 0.341690 0.791987 0.200974
C323  C     C_R   0.797588 0.631888 0.252285 0.187706
C324  C     C_R   0.342890 0.820424 0.791593 0.187854
C325  C     C_R   0.644930 0.192425 0.216536 0.207882
C326  C     C_R   0.164224 0.672818 0.208468 0.191251
C327  C     C_R   0.806276 0.355971 0.780792 0.196099
C328  C     C_R   0.340550 0.176010 0.206546 0.190734
H1    H     H_    0.795744 0.817955 0.822830 0.115693
H2    H     H_    0.393946 0.347816 0.192216 0.159576
H3    H     H_    0.752109 0.734934 0.153886 0.098500
H4    H     H_    0.640086 0.755955 0.104441 0.203101
H5    H     H_    0.688197 0.807492 0.123500 0.160803
H6    H     H_    0.757010 0.769996 0.064453 0.140128
H7    H     H_    0.694991 0.792274 0.035157 0.145585
H8    H     H_    0.707113 0.720418 0.044386 0.146972
H9    H     H_    0.356096 0.317343 0.715928 0.105108
H10   H     H_    0.412222 0.302496 0.756962 0.175376
H11   H     H_    0.331120 0.398164 0.765691 0.159135
H12   H     H_    0.386187 0.383559 0.807216 0.168079
H13   H     H_    0.358927 0.412544 0.191067 0.175346
H14   H     H_    0.453765 0.395329 0.739495 0.146298
H15   H     H_    0.412650 0.455557 0.748338 0.145482
H16   H     H_    0.398234 0.410546 0.698100 0.140327
H17   H     H_    0.251817 0.279036 0.382999 0.141328
H18   H     H_    0.286649 0.296052 0.328699 0.091829
H19   H     H_    0.330350 0.219760 0.409833 0.191585
H20   H     H_    0.367612 0.240093 0.356283 0.170359
H21   H     H_    0.362416 0.337742 0.382128 0.139658
H22   H     H_    0.395127 0.295557 0.427334 0.146388
H23   H     H_    0.325581 0.317461 0.436282 0.143402
H24   H     H_    0.395833 0.434868 0.273340 0.145465
H25   H     H_    0.861931 0.840045 0.691801 0.144182
H26   H     H_    0.836150 0.816004 0.747786 0.095876
H27   H     H_    0.811873 0.928707 0.700912 0.191605
H28   H     H_    0.786508 0.906547 0.759177 0.157222
H29   H     H_    0.881756 0.897525 0.790239 0.139967
H30   H     H_    0.867550 0.965743 0.768986 0.144256
H31   H     H_    0.907835 0.920268 0.732066 0.143845
H32   H     H_    0.311061 0.703460 0.378102 0.140332
H33   H     H_    0.317608 0.698875 0.314365 0.093363
H34   H     H_    0.263380 0.613184 0.381930 0.193650
H35   H     H_    0.450034 0.419857 0.231099 0.144235
H36   H     H_    0.270516 0.605942 0.317043 0.165437
H37   H     H_    0.371920 0.610578 0.324777 0.138501
H38   H     H_    0.343205 0.555346 0.359798 0.147024
H39   H     H_    0.365272 0.616811 0.390068 0.142297
H40   H     H_    0.842176 0.136082 0.698100 0.142716
H41   H     H_    0.816119 0.164822 0.752197 0.093997
H42   H     H_    0.930702 0.186396 0.708001 0.189066
H43   H     H_    0.906281 0.215020 0.764269 0.156842
H44   H     H_    0.895100 0.121266 0.798846 0.139223
H45   H     H_    0.964353 0.134908 0.780305 0.145750
H46   H     H_    0.430120 0.369419 0.275486 0.139395
H47   H     H_    0.921257 0.092478 0.742904 0.143164
H48   H     H_    0.771570 0.744851 0.350582 0.116987
H49   H     H_    0.721475 0.795138 0.370290 0.128946
H50   H     H_    0.845972 0.801546 0.385656 0.161474
H51   H     H_    0.796396 0.851076 0.405600 0.171708
H52   H     H_    0.751449 0.779549 0.457390 0.143270
H53   H     H_    0.822467 0.788538 0.472888 0.146284
H54   H     H_    0.801643 0.730174 0.437507 0.145770
H55   H     H_    0.159194 0.181841 0.763898 0.111810
H56   H     H_    0.194986 0.116678 0.765916 0.130422
H57   H     H_    0.813505 0.209648 0.825594 0.114260
H58   H     H_    0.105917 0.150075 0.692551 0.159925
H59   H     H_    0.141305 0.085552 0.694113 0.169399
H60   H     H_    0.104612 0.067494 0.777448 0.141969
H61   H     H_    0.050376 0.079464 0.734362 0.143271
H62   H     H_    0.069658 0.132583 0.776386 0.140850
H63   H     H_    0.687048 0.289149 0.323513 0.113844
H64   H     H_    0.726239 0.349129 0.341319 0.133196
H65   H     H_    0.700008 0.249652 0.405876 0.161919
H66   H     H_    0.738300 0.309212 0.423840 0.173925
H67   H     H_    0.656462 0.367988 0.407526 0.144973
H68   H     H_    0.774459 0.148790 0.841223 0.129560
H69   H     H_    0.641693 0.315099 0.451227 0.144229
H70   H     H_    0.618104 0.308127 0.389443 0.142265
H71   H     H_    0.155539 0.816258 0.785519 0.104745
H72   H     H_    0.093522 0.804937 0.750748 0.168629
H73   H     H_    0.178020 0.896462 0.734057 0.159745
H74   H     H_    0.116807 0.885861 0.698892 0.168434
H75   H     H_    0.060083 0.900063 0.773605 0.144113
H76   H     H_    0.103454 0.957942 0.761167 0.144691
H77   H     H_    0.121704 0.910750 0.808816 0.140826
H78   H     H_    0.719527 0.298693 0.619257 0.141176
H79   H     H_    0.799327 0.245757 0.909001 0.162141
H80   H     H_    0.707521 0.310836 0.681604 0.095604
H81   H     H_    0.630589 0.249107 0.610776 0.194399
H82   H     H_    0.615766 0.262131 0.673875 0.158514
H83   H     H_    0.620114 0.362430 0.659104 0.138664
H84   H     H_    0.569765 0.329611 0.621213 0.146547
H85   H     H_    0.634354 0.350023 0.595482 0.143672
H86   H     H_    0.156101 0.822554 0.277228 0.110930
H87   H     H_    0.199289 0.882589 0.272156 0.127943
H88   H     H_    0.135173 0.847416 0.363179 0.163777
H89   H     H_    0.178625 0.906449 0.358048 0.171508
H90   H     H_    0.761325 0.185221 0.924734 0.173583
H91   H     H_    0.119189 0.944115 0.292436 0.141818
H92   H     H_    0.080389 0.930384 0.346755 0.143522
H93   H     H_    0.075869 0.884335 0.295828 0.145110
H94   H     H_    0.695810 0.719419 0.623548 0.142541
H95   H     H_    0.686451 0.703709 0.685664 0.099402
H96   H     H_    0.748303 0.631411 0.611297 0.197864
H97   H     H_    0.733005 0.612974 0.673283 0.161537
H98   H     H_    0.632814 0.619204 0.654954 0.139009
H99   H     H_    0.667251 0.569986 0.617150 0.146318
H100  H     H_    0.648738 0.635625 0.592437 0.143064
H101  H     H_    0.843823 0.127787 0.907428 0.143939
H102  H     H_    0.151280 0.130321 0.271441 0.141788
H103  H     H_    0.175662 0.171611 0.223244 0.089875
H104  H     H_    0.061760 0.181160 0.271967 0.192057
H105  H     H_    0.084714 0.220671 0.220570 0.167374
H106  H     H_    0.095321 0.135178 0.171903 0.140196
H107  H     H_    0.026473 0.144092 0.193759 0.145567
H108  H     H_    0.070981 0.095610 0.223158 0.143269
H109  H     H_    0.275939 0.705198 0.647822 0.113957
H110  H     H_    0.335180 0.749641 0.643928 0.125637
H111  H     H_    0.236110 0.751361 0.574843 0.162167
H112  H     H_    0.858038 0.779565 0.834942 0.131476
H113  H     H_    0.857673 0.178946 0.952897 0.143701
H114  H     H_    0.295171 0.794993 0.571407 0.175715
H115  H     H_    0.354956 0.713152 0.559487 0.144736
H116  H     H_    0.302335 0.717379 0.513766 0.145824
H117  H     H_    0.295517 0.669287 0.563046 0.141377
H118  H     H_    0.842115 0.189052 0.250150 0.117974
H119  H     H_    0.815766 0.119694 0.250837 0.122190
H120  H     H_    0.887695 0.173614 0.329375 0.163121
H121  H     H_    0.863388 0.104206 0.329904 0.166953
H122  H     H_    0.914351 0.086024 0.252297 0.142532
H123  H     H_    0.959090 0.109371 0.300063 0.145292
H124  H     H_    0.881869 0.188666 0.891618 0.141820
H125  H     H_    0.938903 0.155754 0.252447 0.146982
H126  H     H_    0.282949 0.324441 0.659321 0.106027
H127  H     H_    0.225654 0.335400 0.618659 0.175718
H128  H     H_    0.310820 0.243177 0.611707 0.156912
H129  H     H_    0.253645 0.252646 0.571268 0.171142
H130  H     H_    0.290349 0.344113 0.546890 0.143870
H131  H     H_    0.339056 0.290365 0.535899 0.145473
H132  H     H_    0.347722 0.334687 0.587629 0.141173
H133  H     H_    0.839601 0.862542 0.196213 0.142360
H134  H     H_    0.793840 0.809822 0.179963 0.100336
H135  H     H_    0.305991 0.655177 0.238265 0.121558
H136  H     H_    0.920214 0.801766 0.174857 0.199054
H137  H     H_    0.872424 0.751774 0.152191 0.163340
H138  H     H_    0.835456 0.821499 0.093642 0.139844
H139  H     H_    0.907286 0.808502 0.085030 0.149224
H140  H     H_    0.885571 0.869990 0.115335 0.141923
H141  H     H_    0.809967 0.583724 0.844279 0.135412
H142  H     H_    0.785619 0.644371 0.874926 0.182775
H143  H     H_    0.884263 0.573403 0.902917 0.187620
H144  H     H_    0.868922 0.638308 0.930405 0.176146
H145  H     H_    0.779194 0.604152 0.958516 0.149002
H146  H     H_    0.374119 0.684228 0.242543 0.114763
H147  H     H_    0.833108 0.559600 0.978980 0.146616
H148  H     H_    0.790589 0.539616 0.928466 0.140993
H149  H     H_    0.155569 0.381032 0.144555 0.120420
H150  H     H_    0.228141 0.370770 0.134813 0.167703
H151  H     H_    0.169942 0.482225 0.138706 0.194434
H152  H     H_    0.241425 0.470850 0.126924 0.155974
H153  H     H_    0.216995 0.416895 0.052396 0.142562
H154  H     H_    0.189952 0.485221 0.050027 0.143994
H155  H     H_    0.145278 0.429065 0.064297 0.156375
H156  H     H_    0.578120 0.200604 0.833244 0.139966
H157  H     H_    0.327293 0.621244 0.155073 0.163269
H158  H     H_    0.635036 0.226190 0.868709 0.177828
H159  H     H_    0.560825 0.129358 0.895478 0.197647
H160  H     H_    0.618838 0.152340 0.930208 0.169811
H161  H     H_    0.575085 0.243053 0.942185 0.147572
H162  H     H_    0.531021 0.188845 0.962918 0.142641
H163  H     H_    0.517370 0.221959 0.905607 0.148119
H164  H     H_    0.413917 0.852696 0.125676 0.170315
H165  H     H_    0.348072 0.867655 0.149726 0.099576
H166  H     H_    0.379821 0.760941 0.096188 0.182001
H167  H     H_    0.312410 0.779035 0.116802 0.221508
H168  H     H_    0.395414 0.648355 0.160413 0.169244
H169  H     H_    0.312204 0.860245 0.061846 0.141864
H170  H     H_    0.321938 0.797298 0.029106 0.147958
H171  H     H_    0.379485 0.841575 0.040214 0.156375
H172  H     H_    0.180918 0.448792 0.856112 0.165333
H173  H     H_    0.215777 0.432710 0.801145 0.126589
H174  H     H_    0.243765 0.383841 0.902036 0.186402
H175  H     H_    0.282091 0.375190 0.846643 0.220133
H176  H     H_    0.299352 0.475945 0.843248 0.150503
H177  H     H_    0.325570 0.444796 0.897892 0.146092
H178  H     H_    0.263151 0.483640 0.900211 0.148305
H179  H     H_    0.411705 0.587877 0.232994 0.141288
H180  H     H_    0.788790 0.542159 0.189247 0.140542
H181  H     H_    0.734157 0.590911 0.194956 0.156431
H182  H     H_    0.741096 0.478043 0.244029 0.157780
H183  H     H_    0.688950 0.528121 0.256108 0.184843
H184  H     H_    0.662561 0.527271 0.167668 0.156817
H185  H     H_    0.655802 0.461468 0.196120 0.133656
H186  H     H_    0.713188 0.474835 0.156949 0.132749
H187  H     H_    0.455282 0.810412 0.846770 0.172024
H188  H     H_    0.431125 0.776999 0.793472 0.114274
H189  H     H_    0.394482 0.750928 0.898798 0.175345
H190  H     H_    0.393362 0.549236 0.179679 0.144481
H191  H     H_    0.374207 0.714369 0.844889 0.225275
H192  H     H_    0.470574 0.688252 0.828928 0.143932
H193  H     H_    0.447927 0.665483 0.887858 0.148654
H194  H     H_    0.491910 0.724294 0.883135 0.148735
H195  H     H_    0.573441 0.152892 0.127356 0.165905
H196  H     H_    0.640430 0.133682 0.145860 0.100242
H197  H     H_    0.610345 0.245332 0.099941 0.186459
H198  H     H_    0.678079 0.220683 0.113107 0.209968
H199  H     H_    0.665193 0.144136 0.054287 0.142940
H200  H     H_    0.655946 0.209824 0.025788 0.152903
H201  H     H_    0.343380 0.560608 0.226651 0.151281
H202  H     H_    0.597176 0.168769 0.040648 0.146647
H203  H     H_    0.143307 0.591318 0.121542 0.164119
H204  H     H_    0.196105 0.592447 0.166150 0.121834
H205  H     H_    0.187830 0.675267 0.081268 0.184789
H206  H     H_    0.244540 0.665669 0.122208 0.218725
H207  H     H_    0.255855 0.569648 0.090818 0.141120
H208  H     H_    0.265264 0.621656 0.045249 0.146503
H209  H     H_    0.202392 0.583417 0.046827 0.150991
H210  H     H_    0.866015 0.366665 0.853668 0.116240
H211  H     H_    0.797900 0.349837 0.874979 0.159806
H212  H     H_    0.245290 0.219459 0.883702 0.141453
H213  H     H_    0.846867 0.465729 0.874205 0.206192
H214  H     H_    0.782719 0.444651 0.900223 0.153959
H215  H     H_    0.832132 0.385016 0.959425 0.141678
H216  H     H_    0.855733 0.454700 0.963064 0.148550
H217  H     H_    0.896811 0.404513 0.932535 0.154728
H218  H     H_    0.433466 0.213451 0.186627 0.135618
H219  H     H_    0.384616 0.245325 0.146017 0.175470
H220  H     H_    0.464428 0.152874 0.119911 0.200104
H221  H     H_    0.414751 0.182518 0.079391 0.167657
H222  H     H_    0.459427 0.273655 0.087868 0.142476
H223  H     H_    0.767863 0.806881 0.909069 0.163046
H224  H     H_    0.217231 0.200739 0.826886 0.091785
H225  H     H_    0.507218 0.222815 0.067125 0.141673
H226  H     H_    0.508765 0.244902 0.129645 0.176704
H227  H     H_    0.636746 0.874768 0.855045 0.120197
H228  H     H_    0.659683 0.808884 0.877450 0.161987
H229  H     H_    0.541838 0.852305 0.883856 0.196440
H230  H     H_    0.567001 0.788899 0.908366 0.154250
H231  H     H_    0.631090 0.840844 0.962529 0.138389
H232  H     H_    0.560832 0.860037 0.972313 0.156994
H233  H     H_    0.605129 0.904417 0.938010 0.151977
H234  H     H_    0.803450 0.425658 0.168973 0.136253
H235  H     H_    0.161862 0.274144 0.904255 0.192731
H236  H     H_    0.773515 0.371273 0.133200 0.172330
H237  H     H_    0.875864 0.436610 0.104151 0.203628
H238  H     H_    0.841384 0.385646 0.068390 0.161995
H239  H     H_    0.756899 0.444193 0.067503 0.144607
H240  H     H_    0.815222 0.478836 0.041997 0.144996
H241  H     H_    0.792939 0.495572 0.102411 0.139331
H242  H     H_    0.178652 0.554591 0.858671 0.155944
H243  H     H_    0.159965 0.624562 0.852704 0.111642
H244  H     H_    0.277757 0.582605 0.870655 0.181255
H245  H     H_    0.255901 0.652775 0.870520 0.225014
H246  H     H_    0.131113 0.253777 0.847525 0.161166
H247  H     H_    0.195108 0.635281 0.941252 0.147119
H248  H     H_    0.265282 0.618443 0.954234 0.146122
H249  H     H_    0.216813 0.564636 0.942334 0.145262
H250  H     H_    0.514398 0.788152 0.205746 0.201278
H251  H     H_    0.554688 0.783010 0.259494 0.095223
H252  H     H_    0.557979 0.699273 0.175248 0.193653
H253  H     H_    0.588965 0.692365 0.234437 0.205688
H254  H     H_    0.496239 0.694643 0.272955 0.135511
H255  H     H_    0.503119 0.639621 0.229841 0.144539
H256  H     H_    0.465778 0.700244 0.213185 0.178765
H257  H     H_    0.137183 0.155866 0.872047 0.139315
H258  H     H_    0.438064 0.171001 0.861449 0.167253
H259  H     H_    0.367002 0.158631 0.852829 0.103676
H260  H     H_    0.419581 0.270296 0.877914 0.170868
H261  H     H_    0.347441 0.257291 0.871859 0.225183
H262  H     H_    0.350794 0.191034 0.940301 0.143010
H263  H     H_    0.375348 0.257417 0.958290 0.150381
H264  H     H_    0.423336 0.203109 0.947065 0.148023
H265  H     H_    0.285035 0.065740 0.310180 0.132608
H266  H     H_    0.253271 0.112196 0.352939 0.175239
H267  H     H_    0.347710 0.033070 0.375365 0.208248
H268  H     H_    0.098505 0.195632 0.915077 0.147061
H269  H     H_    0.316231 0.079095 0.417992 0.163663
H270  H     H_    0.226615 0.031623 0.406578 0.138948
H271  H     H_    0.279175 0.984793 0.425840 0.142678
H272  H     H_    0.257764 0.985792 0.363153 0.186386
H273  H     H_    0.646432 0.920276 0.628095 0.169206
H274  H     H_    0.635271 0.851250 0.646211 0.095435
H275  H     H_    0.740955 0.894418 0.597584 0.179904
H276  H     H_    0.724869 0.824120 0.610855 0.215468
H277  H     H_    0.644883 0.828541 0.554502 0.142576
H278  H     H_    0.708048 0.845186 0.524230 0.149591
H279  H     H_    0.167613 0.175871 0.929357 0.142071
H280  H     H_    0.661359 0.898967 0.540627 0.150487
H281  H     H_    0.084454 0.674850 0.347164 0.148630
H282  H     H_    0.142970 0.703826 0.378004 0.172645
H283  H     H_    0.090858 0.592786 0.402678 0.192939
H284  H     H_    0.145769 0.626016 0.434637 0.160663
H285  H     H_    0.082727 0.704335 0.454333 0.141952
H286  H     H_    0.058116 0.639901 0.477475 0.150009
H287  H     H_    0.027743 0.668790 0.423656 0.150721
H288  H     H_    0.925710 0.347141 0.627917 0.166134
H289  H     H_    0.858247 0.364728 0.646306 0.102477
H290  H     H_    0.641191 0.658050 0.312555 0.139498
H291  H     H_    0.891242 0.253875 0.600674 0.184876
H292  H     H_    0.822888 0.276575 0.613885 0.212065
H293  H     H_    0.833363 0.353445 0.554900 0.144894
H294  H     H_    0.844398 0.288044 0.526512 0.152298
H295  H     H_    0.902018 0.330768 0.541226 0.146892
H296  H     H_    0.710102 0.983016 0.295553 0.200397
H297  H     H_    0.724216 0.941470 0.244035 0.094569
H298  H     H_    0.794402 0.942700 0.337741 0.181260
H299  H     H_    0.810868 0.910029 0.280894 0.212746
H300  H     H_    0.812471 0.001452 0.239733 0.138272
H301  H     H_    0.690549 0.709619 0.321585 0.097366
H302  H     H_    0.860784 0.997143 0.289127 0.142345
H303  H     H_    0.797579 0.033577 0.297442 0.194569
H304  H     H_    0.325429 0.056212 0.638368 0.155961
H305  H     H_    0.346514 0.125313 0.645682 0.109488
H306  H     H_    0.228121 0.088675 0.622262 0.182305
H307  H     H_    0.253425 0.157688 0.623204 0.220880
H308  H     H_    0.317416 0.136684 0.555408 0.146505
H309  H     H_    0.247301 0.123598 0.539065 0.150343
H310  H     H_    0.291869 0.067299 0.553511 0.146225
H311  H     H_    0.921886 0.299769 0.333015 0.139793
H312  H     H_    0.706625 0.585449 0.338932 0.189059
H313  H     H_    0.865112 0.273168 0.368014 0.177242
H314  H     H_    0.937549 0.371062 0.395572 0.198407
H315  H     H_    0.879809 0.346727 0.429888 0.170743
H316  H     H_    0.925269 0.256669 0.441555 0.147015
H317  H     H_    0.967957 0.311587 0.463040 0.142847
H318  H     H_    0.982834 0.279424 0.405623 0.148769
H319  H     H_    0.056744 0.674514 0.640099 0.164782
H320  H     H_    0.126945 0.657192 0.646965 0.108644
H321  H     H_    0.081455 0.772304 0.623303 0.174471
H322  H     H_    0.152709 0.754660 0.628113 0.225275
H323  H     H_    0.758015 0.636704 0.350069 0.160963
H324  H     H_    0.143355 0.688945 0.559608 0.147711
H325  H     H_    0.123388 0.757032 0.542179 0.146349
H326  H     H_    0.071798 0.706248 0.554061 0.147575
H327  H     H_    0.702722 0.076235 0.672490 0.138046
H328  H     H_    0.728446 0.129458 0.632801 0.174078
H329  H     H_    0.629231 0.056325 0.610837 0.209025
H330  H     H_    0.658878 0.106524 0.571002 0.162455
H331  H     H_    0.746203 0.053604 0.569325 0.144342
H332  H     H_    0.689174 0.012125 0.550263 0.142715
H333  H     H_    0.717103 0.003591 0.610342 0.165173
H334  H     H_    0.829743 0.769440 0.921267 0.173827
H335  H     H_    0.697665 0.681669 0.410993 0.138587
H336  H     H_    0.357615 0.919060 0.377508 0.165451
H337  H     H_    0.377214 0.854421 0.353607 0.098747
H338  H     H_    0.269173 0.876736 0.408862 0.181137
H339  H     H_    0.294825 0.811060 0.390100 0.207555
H340  H     H_    0.376146 0.822850 0.444049 0.143879
H341  H     H_    0.312824 0.826613 0.477294 0.147645
H342  H     H_    0.349895 0.888363 0.463632 0.151500
H343  H     H_    0.918719 0.696761 0.664762 0.140456
H344  H     H_    0.861518 0.721464 0.629194 0.180264
H345  H     H_    0.934103 0.622746 0.604902 0.198723
H346  H     H_    0.711272 0.611368 0.426255 0.150305
H347  H     H_    0.875973 0.645049 0.570024 0.167868
H348  H     H_    0.920728 0.734415 0.554193 0.146569
H349  H     H_    0.964366 0.678966 0.535540 0.146744
H350  H     H_    0.978341 0.714754 0.591453 0.143471
H351  H     H_    0.062343 0.333056 0.362492 0.167652
H352  H     H_    0.133685 0.344302 0.354359 0.101483
H353  H     H_    0.079397 0.234360 0.382361 0.172546
H354  H     H_    0.151745 0.246154 0.376561 0.223851
H355  H     H_    0.148605 0.315027 0.442889 0.143049
H356  H     H_    0.122865 0.249742 0.462741 0.151540
H357  H     H_    0.646040 0.629950 0.400669 0.142137
H358  H     H_    0.075818 0.304263 0.449237 0.148051
H359  H     H_    0.318101 0.952790 0.648123 0.169567
H360  H     H_    0.280678 0.932024 0.700484 0.120870
H361  H     H_    0.258889 0.890383 0.595947 0.175992
H362  H     H_    0.217592 0.877438 0.648944 0.219385
H363  H     H_    0.199351 0.977918 0.656836 0.154620
H364  H     H_    0.176196 0.950090 0.599763 0.143985
H365  H     H_    0.238346 0.989436 0.601849 0.148517
H366  H     H_    0.645181 0.126638 0.355831 0.123723
H367  H     H_    0.716058 0.140013 0.371222 0.171845
H368  H     H_    0.223359 0.818550 0.847546 0.103496
H369  H     H_    0.661029 0.026813 0.369618 0.210590
H370  H     H_    0.730743 0.040945 0.386358 0.159244
H371  H     H_    0.697998 0.099037 0.455482 0.142380
H372  H     H_    0.671622 0.030388 0.459164 0.150700
H373  H     H_    0.627941 0.084813 0.438406 0.153363
H374  H     H_    0.069056 0.284755 0.685056 0.137087
H375  H     H_    0.118685 0.256591 0.643062 0.174446
H376  H     H_    0.035632 0.347490 0.620449 0.202587
H377  H     H_    0.085330 0.320457 0.578649 0.165301
H378  H     H_    0.042871 0.227923 0.585551 0.142097
H379  H     H_    0.287140 0.827727 0.880082 0.182438
H380  H     H_    0.993818 0.278338 0.566190 0.141732
H381  H     H_    0.993358 0.254466 0.628226 0.174564
H382  H     H_    0.934180 0.707840 0.319271 0.135555
H383  H     H_    0.918625 0.776415 0.298898 0.179195
H384  H     H_    0.024028 0.712547 0.277621 0.191383
H385  H     H_    0.008423 0.779823 0.255291 0.162560
H386  H     H_    0.004078 0.815854 0.339242 0.150502
H387  H     H_    0.068152 0.781222 0.329338 0.141488
H388  H     H_    0.014990 0.748217 0.363800 0.137801
H389  H     H_    0.202068 0.737254 0.897311 0.157958
H390  H     H_    0.266777 0.742793 0.928213 0.168454
H391  H     H_    0.239646 0.834012 0.961070 0.146090
H392  H     H_    0.191495 0.781610 0.977833 0.143222
H393  H     H_    0.174710 0.828893 0.929801 0.143472
H394  H     H_    0.885254 0.851189 0.897163 0.145058
H395  H     H_    0.658524 0.362566 0.195853 0.144641
H396  H     H_    0.684602 0.334366 0.250259 0.094223
H397  H     H_    0.570194 0.311792 0.205887 0.190076
H398  H     H_    0.594630 0.284201 0.262652 0.157769
H399  H     H_    0.605354 0.378822 0.295703 0.140180
H400  H     H_    0.536143 0.364015 0.277623 0.145908
H401  H     H_    0.578499 0.406176 0.239363 0.142810
H402  H     H_    0.171996 0.814654 0.193547 0.098317
H403  H     H_    0.132819 0.767785 0.156017 0.168942
H404  H     H_    0.229440 0.839556 0.123282 0.158857
H405  H     H_    0.838637 0.866691 0.945936 0.143440
H406  H     H_    0.193244 0.791724 0.085311 0.165978
H407  H     H_    0.106536 0.843946 0.098432 0.147003
H408  H     H_    0.159515 0.886420 0.073041 0.143604
H409  H     H_    0.142957 0.891853 0.136699 0.140147
H410  H     H_    0.659907 0.314214 0.753360 0.112778
H411  H     H_    0.688680 0.382610 0.757323 0.130033
H412  H     H_    0.615861 0.326829 0.834053 0.161797
H413  H     H_    0.642518 0.395382 0.836793 0.173379
H414  H     H_    0.590914 0.419157 0.760810 0.142875
H415  H     H_    0.546141 0.394582 0.808025 0.144539
H416  H     H_    0.823024 0.888678 0.884927 0.141952
H417  H     H_    0.564196 0.350272 0.758315 0.144123
H418  H     H_    0.200175 0.224741 0.158852 0.112383
H419  H     H_    0.241486 0.165423 0.143303 0.127884
H420  H     H_    0.231668 0.271759 0.083960 0.161769
H421  H     H_    0.272523 0.213194 0.068262 0.174912
H422  H     H_    0.188080 0.155444 0.064465 0.144021
H423  H     H_    0.184039 0.213077 0.023796 0.143955
H424  H     H_    0.147069 0.214244 0.080432 0.141856
H425  H     H_    0.667251 0.642595 0.818850 0.145904
H426  H     H_    0.679025 0.667099 0.759303 0.096922
H427  H     H_    0.340399 0.319504 0.264276 0.110203
H428  H     H_    0.577166 0.693733 0.821909 0.197898
H429  H     H_    0.586773 0.712206 0.759045 0.163137
H430  H     H_    0.591182 0.612835 0.736895 0.141184
H431  H     H_    0.527578 0.631067 0.765544 0.138223
H432  H     H_    0.579063 0.595152 0.799816 0.146857
H433  H     H_    0.783231 0.202366 0.116633 0.140779
H434  H     H_    0.792906 0.188746 0.179033 0.095504
H435  H     H_    0.872566 0.251292 0.111169 0.194578
H436  H     H_    0.885263 0.237652 0.174556 0.157625
H437  H     H_    0.881021 0.137492 0.159141 0.137560
H438  H     H_    0.305372 0.385101 0.264394 0.133487
H439  H     H_    0.932854 0.170522 0.123065 0.146092
H440  H     H_    0.869197 0.150571 0.095198 0.143188
H441  H     H_    0.370752 0.656787 0.761788 0.138598
H442  H     H_    0.323624 0.674794 0.715445 0.089084
H443  H     H_    0.327390 0.563572 0.769314 0.183379
H444  H     H_    0.282447 0.580574 0.719632 0.175920
H445  H     H_    0.363320 0.595310 0.665496 0.140417
H446  H     H_    0.361329 0.527193 0.690379 0.145437
H447  H     H_    0.408225 0.576692 0.715158 0.141422
H448  H     H_    0.709437 0.683730 0.129239 0.142530
O1    O     O_3   1.000000 0.500000 0.750000 -0.442759
O2    O     O_R   0.954530 0.500000 0.143740 -0.551497
O3    O     O_3   0.407891 0.208050 0.800383 -0.545999
O4    O     O_3   0.333846 0.130281 0.334817 -0.545433
O5    O     O_3   0.696745 0.896570 0.683555 -0.535853
O6    O     O_3   0.157357 0.632680 0.337983 -0.559307
O7    O     O_3   0.898780 0.301446 0.685286 -0.537868
O8    O     O_3   0.702056 0.901627 0.310087 -0.532808
O9    O     O_3   0.292236 0.092259 0.698421 -0.537042
O10   O     O_3   0.853311 0.350220 0.337278 -0.544612
O11   O     O_3   0.091303 0.708662 0.700627 -0.540970
O12   O     O_3   0.651323 0.143476 0.662270 -0.548401
O13   O     O_R   0.500000 0.954530 0.856260 -0.545537
O14   O     O_3   0.308376 0.893688 0.321970 -0.539643
O15   O     O_3   0.850188 0.645881 0.662756 -0.556701
O16   O     O_3   0.092885 0.293293 0.303023 -0.537078
O17   O     O_3   0.329995 0.872427 0.665044 -0.541289
O18   O     O_3   0.703392 0.096486 0.307265 -0.553785
O19   O     O_3   0.131964 0.337341 0.663796 -0.553672
O20   O     O_3   0.922188 0.716943 0.244620 -0.555681
O21   O     O_R   0.500000 0.045470 0.143740 -0.558265
O22   O     O_R   0.454530 0.000000 0.356260 -0.559056
O23   O     O_R   0.545470 0.000000 0.643740 -0.562009
O24   O     O_R   0.000000 0.545470 0.356260 -0.546533
O25   O     O_R   0.000000 0.454530 0.643740 -0.554340
O26   O     O_R   0.545470 0.000000 0.356260 -0.545416
O27   O     O_R   0.454530 0.000000 0.643740 -0.545308
O28   O     O_R   1.000000 0.454530 0.356260 -0.556864
O29   O     O_3   1.000000 0.500000 0.250000 -0.441152
O30   O     O_R   0.000000 0.545470 0.643740 -0.558602
O31   O     O_R   0.109480 0.563990 0.777850 -0.525273
O32   O     O_R   0.890520 0.436010 0.222150 -0.529810
O33   O     O_R   0.563990 0.890520 0.777850 -0.513794
O34   O     O_R   0.436010 0.109480 0.222150 -0.518541
O35   O     O_R   0.890520 0.436010 0.777850 -0.511348
O36   O     O_R   0.109480 0.563990 0.222150 -0.538979
O37   O     O_R   0.436010 0.109480 0.777850 -0.518982
O38   O     O_R   0.563990 0.890520 0.222150 -0.514027
O39   O     O_R   0.890520 0.563990 0.222150 -0.533467
O40   O     O_3   0.500000 0.000000 0.750000 -0.443096
O41   O     O_R   0.109480 0.436010 0.777850 -0.531907
O42   O     O_R   0.436010 0.890520 0.222150 -0.525269
O43   O     O_R   0.563990 0.109480 0.777850 -0.524342
O44   O     O_R   0.109480 0.436010 0.222150 -0.512707
O45   O     O_R   0.890520 0.563990 0.777850 -0.530594
O46   O     O_R   0.563990 0.109480 0.222150 -0.520213
O47   O     O_R   0.436010 0.890520 0.777850 -0.524207
O48   O     O_R   0.609480 0.063990 0.277850 -0.520498
O49   O     O_R   0.390520 0.936010 0.722150 -0.527981
O50   O     O_R   0.063990 0.390520 0.277850 -0.524102
O51   O     O_3   0.500000 0.000000 0.250000 -0.444259
O52   O     O_R   0.936010 0.609480 0.722150 -0.526349
O53   O     O_R   0.390520 0.936010 0.277850 -0.516610
O54   O     O_R   0.609480 0.063990 0.722150 -0.526424
O55   O     O_R   0.936010 0.609480 0.277850 -0.532548
O56   O     O_R   0.063990 0.390520 0.722150 -0.514492
O57   O     O_R   0.390520 0.063990 0.722150 -0.525827
O58   O     O_R   0.609480 0.936010 0.277850 -0.518832
O59   O     O_R   0.936010 0.390520 0.722150 -0.521682
O60   O     O_R   0.063990 0.609480 0.277850 -0.545397
O61   O     O_R   0.609480 0.936010 0.722150 -0.519001
O62   O     O_R   0.954530 0.500000 0.856260 -0.559559
O63   O     O_R   0.390520 0.063990 0.277850 -0.519438
O64   O     O_R   0.063990 0.609480 0.722150 -0.520083
O65   O     O_R   0.936010 0.390520 0.277850 -0.524975
O66   O     O_3   0.784139 0.736312 0.838875 -0.524116
O67   O     O_3   0.288492 0.332503 0.206137 -0.516447
O68   O     O_3   0.731226 0.222615 0.838197 -0.521714
O69   O     O_3   0.321078 0.719968 0.191741 -0.532604
O70   O     O_3   0.238918 0.283188 0.836307 -0.535879
O71   O     O_3   0.703680 0.655454 0.263674 -0.527136
O72   O     O_3   0.283070 0.759224 0.835547 -0.546512
O73   O     O_R   0.045470 0.500000 0.143740 -0.553618
O74   O     O_3   0.673768 0.281056 0.191200 -0.522660
O75   O     O_3   0.213559 0.745787 0.169515 -0.544528
O76   O     O_3   0.718533 0.325148 0.806948 -0.509999
O77   O     O_3   0.283588 0.237229 0.161606 -0.520485
O78   O     O_3   0.679790 0.724749 0.816030 -0.513699
O79   O     O_3   0.778657 0.270351 0.159211 -0.527442
O80   O     O_3   0.292396 0.663524 0.786209 -0.537777
O81   O     O_3   0.676850 0.720896 0.188627 -0.525588
O82   O     O_3   0.334745 0.292434 0.786165 -0.542753
O83   O     O_3   0.260248 0.214560 0.336751 -0.530157
O84   O     O_R   0.500000 0.045470 0.856260 -0.557829
O85   O     O_3   0.780081 0.824707 0.690487 -0.522061
O86   O     O_3   0.238525 0.710269 0.342111 -0.530084
O87   O     O_3   0.827206 0.217792 0.692869 -0.522384
O88   O     O_3   0.775685 0.819201 0.315202 -0.521410
O89   O     O_3   0.210871 0.167402 0.706016 -0.526770
O90   O     O_3   0.769144 0.275287 0.336570 -0.524377
O91   O     O_3   0.165578 0.791691 0.713207 -0.535676
O92   O     O_3   0.722752 0.229701 0.660769 -0.528495
O93   O     O_3   0.225853 0.819378 0.318957 -0.526972
O94   O     O_3   0.766524 0.720764 0.662554 -0.532258
O95   O     O_R   0.500000 0.954530 0.143740 -0.540122
O96   O     O_3   0.164093 0.209564 0.291050 -0.523320
O97   O     O_3   0.259563 0.785888 0.662452 -0.536692
O98   O     O_3   0.784333 0.172691 0.303371 -0.518110
O99   O     O_3   0.220570 0.265722 0.661189 -0.539631
O100  O     O_3   0.843233 0.796867 0.241477 -0.532594
O101  O     O_3   0.859626 0.652557 0.837780 -0.549709
O102  O     O_3   0.207232 0.408270 0.200057 -0.528864
O103  O     O_3   0.645922 0.149151 0.837814 -0.546711
O104  O     O_3   0.393482 0.803478 0.182916 -0.540776
O105  O     O_3   0.169187 0.369732 0.834815 -0.544446
O106  O     O_R   0.045470 0.500000 0.856260 -0.545013
O107  O     O_3   0.783681 0.577357 0.257243 -0.551440
O108  O     O_3   0.374786 0.826354 0.832810 -0.554591
O109  O     O_3   0.601537 0.197986 0.184631 -0.539202
O110  O     O_3   0.140562 0.659318 0.164397 -0.561320
O111  O     O_3   0.801176 0.398747 0.813159 -0.523985
O112  O     O_3   0.368402 0.164209 0.164111 -0.538322
O113  O     O_3   0.605449 0.806612 0.819068 -0.539292
O114  O     O_3   0.851054 0.355548 0.161661 -0.549755
O115  O     O_3   0.209741 0.589997 0.797346 -0.545216
O116  O     O_3   0.596073 0.796149 0.192541 -0.535808
Zn1   Zn    Zn3+2 1.000000 0.564980 0.710170 0.936444
Zn2   Zn    Zn3+2 0.500000 0.935020 0.789830 0.934527
Zn3   Zn    Zn3+2 0.064980 0.500000 0.210170 0.937146
Zn4   Zn    Zn3+2 0.935020 0.500000 0.789830 0.935440
Zn5   Zn    Zn3+2 0.500000 0.935020 0.210170 0.932404
Zn6   Zn    Zn3+2 0.500000 0.064980 0.789830 0.935998
Zn7   Zn    Zn3+2 0.935020 0.500000 0.210170 0.945334
Zn8   Zn    Zn3+2 0.064980 0.500000 0.789830 0.933431
Zn9   Zn    Zn3+2 1.000000 0.435020 0.289830 0.940012
Zn10  Zn    Zn3+2 0.564980 0.000000 0.710170 0.932103
Zn11  Zn    Zn3+2 0.435020 0.000000 0.289830 0.928226
Zn12  Zn    Zn3+2 1.000000 0.435020 0.710170 0.934031
Zn13  Zn    Zn3+2 1.000000 0.564980 0.289830 0.941746
Zn14  Zn    Zn3+2 0.435020 0.000000 0.710170 0.931681
Zn15  Zn    Zn3+2 0.564980 0.000000 0.289830 0.924833
Zn16  Zn    Zn3+2 0.500000 0.064980 0.210170 0.929517

loop_
_geom_bond_atom_site_label_1
_geom_bond_atom_site_label_2
_ccdc_geom_bond_type
C147  H134  S    
C262  O24   A    
C193  H243  S    
O36   Zn3   S    
C172  H193  S    
C208  H280  S    
C130  H94   S    
C35   C295  A    
C116  H60   S    
C8    O4    S    
C317  O101  S    
C152  H145  S    
C111  H54   S    
C114  C115  S    
C4    O114  S    
C94   H11   S    
C92   H7    S    
C248  C249  S    
C180  H211  S    
C138  H111  S    
C127  H86   S    
C129  H91   S    
O61   Zn10  S    
C27   C319  A    
C177  H205  S    
C51   H90   S    
C213  H289  S    
C28   C320  A    
O52   Zn1   S    
C91   H5    S    
C282  C317  A    
C227  H320  S    
C13   C112  S    
O37   Zn6   S    
O63   Zn11  S    
C169  H186  S    
C189  O114  S    
C142  H125  S    
C66   O74   S    
C106  C107  S    
C143  C144  S    
C176  H203  S    
C17   C309  A    
C80   H425  S    
C253  H383  S    
C41   C272  S    
C234  H339  S    
C73   C74   S    
C7    C42   A    
C252  H378  S    
C93   H10   S    
C259  O21   A    
C105  H37   S    
C110  C111  S    
C251  H377  S    
C238  C239  S    
C286  O69   S    
C255  H387  S    
C108  H45   S    
C259  O95   A    
O58   Zn15  S    
C149  H139  S    
C139  H117  S    
C69   H399  S    
C47   C48   S    
C78   H424  S    
C297  O80   S    
C113  C201  T    
C157  C246  T    
C65   H393  S    
C253  O20   S    
C119  H67   S    
C40   C265  S    
C196  O116  S    
C29   C276  S    
C125  C126  S    
C175  H202  S    
C250  H375  S    
C309  O92   S    
O29   Zn13  S    
C110  H50   S    
C84   H435  S    
C79   C264  S    
O55   Zn13  S    
C120  O91   S    
C99   H25   S    
C234  C236  S    
O23   Zn10  S    
C31   C323  A    
C265  O64   A    
C128  H89   S    
C21   C32   A    
O44   Zn3   S    
C88   H445  S    
C196  H251  S    
C256  O62   A    
O50   Zn9   S    
C141  H121  S    
O1    Zn4   S    
C82   H430  S    
C51   C52   S    
C289  C296  A    
C81   H429  S    
C251  C252  S    
C140  C141  S    
C103  H32   S    
C100  H28   S    
C119  H70   S    
C130  O94   S    
C206  C207  S    
C93   O82   S    
C320  O103  S    
C170  H188  S    
C188  H233  S    
C77   C78   S    
C117  H64   S    
O34   Zn16  S    
C173  H196  S    
C130  H95   S    
C115  H58   S    
C232  H333  S    
C15   O10   S    
C20   O16   S    
C43   C44   S    
C203  H266  S    
C278  O50   A    
C191  H237  S    
C140  H118  S    
C227  C228  S    
C311  O94   S    
C12   C304  A    
C218  H303  S    
C104  H34   S    
O51   Zn15  S    
C307  C314  A    
C59   H268  S    
C199  H259  S    
O95   Zn5   S    
C136  H107  S    
C15   C39   A    
C154  C155  S    
C170  H187  S    
C283  C319  A    
C16   C40   A    
C165  H177  S    
C24   C301  A    
C284  C320  A    
C211  H286  S    
O32   Zn7   S    
O65   Zn9   S    
C287  C322  A    
C183  O112  S    
C254  H385  S    
C6    C298  A    
C145  H130  S    
C188  H232  S    
C86   O80   S    
C117  O90   S    
C67   H397  S    
C116  H62   S    
C87   H443  S    
C32   C281  S    
C152  H147  S    
C43   H112  S    
C17   O12   S    
C56   O70   S    
C225  H315  S    
C270  O36   A    
C223  C284  A    
C219  H305  S    
C150  H141  S    
C154  H151  S    
O21   Zn16  S    
C9    O5    S    
O51   Zn5   S    
C135  C258  S    
C176  O110  S    
C236  H341  S    
C73   O76   S    
C17   C28   A    
C182  H215  S    
C214  C215  S    
O106  Zn8   S    
C178  H207  S    
C29   C321  A    
C3    C294  A    
C144  C145  S    
C273  O39   A    
C10   C302  A    
C24   C294  A    
C142  H123  S    
C99   O85   S    
C132  H99   S    
C23   O19   S    
C247  O18   S    
C118  H65   S    
C164  H174  S    
C133  H102  S    
C184  H220  S    
C308  O91   S    
C85   H437  S    
C70   H403  S    
C47   H427  S    
C45   H405  S    
C252  H380  S    
C156  C158  S    
C130  C131  S    
C105  H39   S    
C97   H20   S    
O24   Zn13  S    
C239  H350  S    
C247  H367  S    
C288  O71   S    
C159  H161  S    
O25   Zn12  S    
O54   Zn10  S    
C109  O88   S    
C229  H325  S    
C153  O102  S    
C292  O76   S    
C139  H115  S    
C125  H81   S    
O49   Zn14  S    
C267  O33   A    
C76   H419  S    
C55   H179  S    
C63   O72   S    
C197  H252  S    
C103  O86   S    
O1    Zn1   S    
C123  C125  S    
C230  H327  S    
C305  O89   S    
C3    O113  S    
C231  H329  S    
C189  H236  S    
C200  C202  S    
C193  C194  S    
O31   Zn8   S    
C233  H336  S    
C270  O60   A    
C34   C270  S    
C151  H143  S    
C186  C187  S    
C148  C149  S    
C216  O8    S    
O53   Zn11  S    
C243  O17   S    
C88   H447  S    
O29   Zn3   S    
C248  H370  S    
C25   C31   A    
C53   O69   S    
C238  H347  S    
C180  O111  S    
C107  H42   S    
C153  H149  S    
C241  H354  S    
C50   O68   S    
C96   O83   S    
C226  H318  S    
C310  O93   S    
C104  C105  S    
C147  C148  S    
C108  H47   S    
C219  O9    S    
C128  C129  S    
O38   Zn5   S    
C70   O75   S    
C97   C98   S    
C163  H172  S    
C321  O104  S    
C65   H392  S    
C53   C54   S    
C244  C245  S    
C249  H372  S    
C233  O14   S    
C228  H322  S    
C294  O78   S    
O51   Zn16  S    
C204  H267  S    
C293  O77   S    
C131  H96   S    
C151  H144  S    
C206  H273  S    
C253  C254  S    
C266  O65   A    
C92   H6    S    
C228  H321  S    
C19   C311  A    
C115  C116  S    
C72   H408  S    
C127  H87   S    
C104  H36   S    
O29   Zn9   S    
C184  C185  S    
C128  H88   S    
C241  C242  S    
C220  H307  S    
C2    C292  A    
C53   H146  S    
C189  C191  S    
C143  H126  S    
C174  C175  S    
C86   H442  S    
C323  O107  S    
C58   H235  S    
C89   H3    S    
C226  H316  S    
C131  H97   S    
C8    C300  A    
C183  H218  S    
C52   H124  S    
C184  H221  S    
C145  H132  S    
C268  O34   A    
C107  C108  S    
C240  O16   S    
C73   H410  S    
C161  H167  S    
C113  C260  S    
C244  H362  S    
C89   C91   S    
C57   C304  A    
C233  C234  S    
C5    O115  S    
C192  H241  S    
C316  O100  S    
C129  H93   S    
C137  C138  S    
C56   H212  S    
C98   H23   S    
C108  H44   S    
C117  H63   S    
C66   C67   S    
C251  H376  S    
C47   O67   S    
C78   H422  S    
C71   H406  S    
C237  C238  S    
O73   Zn3   S    
C77   H421  S    
C114  H55   S    
C237  H344  S    
C94   C95   S    
C159  H163  S    
C283  O67   S    
C220  C221  S    
C53   H135  S    
O43   Zn6   S    
C185  H225  S    
C202  H263  S    
C182  H217  S    
C279  O52   A    
O41   Zn8   S    
C245  H365  S    
C85   H439  S    
C62   H335  S    
C18   C310  A    
C96   H17   S    
C240  H352  S    
C16   C308  A    
C167  H183  S    
C174  H198  S    
C209  H282  S    
C37   C328  A    
C143  O99   S    
C91   C92   S    
C291  C326  A    
O48   Zn15  S    
C57   C285  S    
C196  H250  S    
C222  C225  S    
C217  C218  S    
C195  H249  S    
C64   H390  S    
C52   H101  S    
C77   H420  S    
C44   H334  S    
C37   C268  S    
C126  H84   S    
C75   H414  S    
C83   O79   S    
C38   C267  S    
C155  H154  S    
O42   Zn5   S    
C256  O106  A    
C83   C84   S    
C120  H72   S    
C245  H364  S    
C275  O56   A    
C187  H230  S    
C328  O112  S    
C209  C210  S    
C133  O96   S    
C60   H301  S    
C49   H35   S    
C18   C29   A    
C115  H59   S    
C200  H261  S    
C300  O83   S    
C324  O108  S    
O57   Zn14  S    
C238  H345  S    
C72   H409  S    
C50   H68   S    
C14   C305  A    
C178  H209  S    
C216  H296  S    
C136  H106  S    
C120  C121  S    
C278  O44   A    
C212  C224  S    
C15   C306  A    
C191  C192  S    
C102  H30   S    
C232  H332  S    
C54   C55   S    
C80   O78   S    
C138  H114  S    
C208  H277  S    
C204  H269  S    
C229  H324  S    
C12   C41   A    
C12   O8    S    
C87   H444  S    
C111  H53   S    
C217  H299  S    
C94   H12   S    
C92   H8    S    
C25   C316  A    
C103  H33   S    
C13   C293  A    
C106  O87   S    
C236  H340  S    
C221  H308  S    
O40   Zn14  S    
C162  H170  S    
C32   C324  A    
C61   H312  S    
C156  H156  S    
C227  H319  S    
C71   C72   S    
C215  H294  S    
C117  C118  S    
C169  H185  S    
C62   H346  S    
C211  H287  S    
C176  H204  S    
C9    C38   A    
C80   H426  S    
C253  H382  S    
C194  C195  S    
C174  H197  S    
C221  H309  S    
C93   H9    S    
C197  C198  S    
C90   C262  S    
C54   H168  S    
C33   C325  A    
C237  H343  S    
C98   H21   S    
C216  C217  S    
C189  H234  S    
C137  H109  S    
C149  H138  S    
C205  H272  S    
C1    C24   S    
C206  O5    S    
C173  O109  S    
C150  C151  S    
C186  O113  S    
C76   H418  S    
C137  H110  S    
C66   H395  S    
C205  H271  S    
C166  H180  S    
C261  O23   A    
C33   C280  S    
C284  O68   S    
C172  H192  S    
C325  O109  S    
C87   C88   S    
O56   Zn12  S    
C21   C313  A    
C194  H244  S    
C110  H51   S    
C84   H436  S    
C250  O19   S    
C313  O97   S    
C49   H46   S    
C4    C295  A    
C295  O79   S    
C203  C204  S    
C195  H247  S    
C301  O85   S    
C161  C162  S    
O60   Zn13  S    
C88   H446  S    
C28   C277  S    
C213  C214  S    
C140  O98   S    
C95   H16   S    
C107  H43   S    
C181  H214  S    
C30   C322  A    
C59   H279  S    
C82   H431  S    
C81   H428  S    
O40   Zn10  S    
C164  C165  S    
C237  O15   S    
C218  H300  S    
C203  O4    S    
C193  O115  S    
C43   O66   S    
C35   C307  S    
C119  H69   S    
C121  H73   S    
C196  C197  S    
C163  H173  S    
C89   O81   S    
C243  C244  S    
C271  O57   A    
C194  H245  S    
C173  H195  S    
C147  H133  S    
C164  H175  S    
C19   C26   A    
C5    C297  A    
O2    Zn7   S    
C203  H265  S    
C74   H412  S    
C111  H52   S    
C18   O14   S    
C192  H239  S    
O46   Zn16  S    
C170  C171  S    
C91   H4    S    
C3    C38   A    
C169  H184  S    
C158  H159  S    
C205  H270  S    
C172  H194  S    
C151  C152  S    
C198  H255  S    
C145  H131  S    
C70   C71   S    
C63   H368  S    
C220  H306  S    
C2    C303  A    
C143  H127  S    
C136  H108  S    
C235  C246  S    
C292  C327  A    
C46   C308  A    
C186  H227  S    
C183  H219  S    
C240  H351  S    
C109  H49   S    
C207  H276  S    
C69   H400  S    
C281  O49   A    
C35   C306  A    
C74   H413  S    
C152  H148  S    
C26   C279  S    
C225  H314  S    
C27   C278  S    
C150  H142  S    
C49   H24   S    
C154  H152  S    
C306  O90   S    
C236  H342  S    
C182  H216  S    
C207  C208  S    
C281  O47   A    
C84   C85   S    
C312  O96   S    
C47   H438  S    
C167  C169  S    
C101  C190  T    
C22   O18   S    
C157  C256  S    
C219  C220  S    
C148  H136  S    
C48   H13   S    
C61   H323  S    
C199  O3    S    
C185  H222  S    
C132  H100  S    
C250  C251  S    
C122  H75   S    
C137  O97   S    
C175  H200  S    
C315  O99   S    
C144  H129  S    
C109  H48   S    
C60   C61   S    
C234  H338  S    
C43   H1    S    
C102  H29   S    
O84   Zn6   S    
C105  H38   S    
C97   H19   S    
C60   O71   S    
C254  C255  S    
C239  H349  S    
O45   Zn4   S    
C156  H158  S    
C55   H190  S    
C255  H388  S    
C146  C235  T    
C285  C316  A    
C6    O116  S    
C147  O100  S    
C161  H166  S    
C50   C51   S    
C289  O72   S    
C89   H448  S    
C25   O20   S    
C75   H415  S    
C290  C325  A    
C155  H155  S    
C121  C122  S    
C166  O107  S    
C134  H104  S    
C288  C323  A    
C48   C49   S    
C268  O63   A    
C302  C318  A    
C250  H374  S    
C156  O103  S    
C242  H355  S    
C133  C134  S    
C69   H401  S    
C58   C59   S    
C99   H26   S    
C8    C37   A    
C127  C128  S    
C31   C273  S    
C269  O35   A    
O30   Zn1   S    
C60   H290  S    
C44   C45   S    
C287  O70   S    
C64   H389  S    
O1    Zn8   S    
C95   H14   S    
C219  H304  S    
C198  H256  S    
C304  O88   S    
C230  O12   S    
C121  H74   S    
O33   Zn2   S    
C214  H291  S    
C30   C275  S    
C44   H223  S    
O35   Zn4   S    
C100  H27   S    
C243  H359  S    
C36   C327  A    
C243  H360  S    
C65   H391  S    
C20   C27   A    
C122  H76   S    
C249  H371  S    
C168  C179  S    
C124  C212  T    
C193  H242  S    
C54   H157  S    
C45   H394  S    
C200  H260  S    
C298  O81   S    
C64   C65   S    
C186  H228  S    
C162  H171  S    
C187  C188  S    
O27   Zn14  S    
C191  H238  S    
C118  H66   S    
C109  C110  S    
C206  H274  S    
C62   H357  S    
C14   O9    S    
C106  H40   S    
C141  H120  S    
C210  H284  S    
C326  O110  S    
C218  H302  S    
O51   Zn11  S    
C282  O66   S    
C75   H417  S    
C264  O25   A    
C230  C231  S    
C286  C321  A    
C215  H295  S    
C138  C139  S    
O40   Zn2   S    
C165  H178  S    
C122  H77   S    
C48   H2    S    
C68   C274  S    
C177  C178  S    
C52   H113  S    
C5    C40   A    
C254  H384  S    
C103  C104  S    
C167  H182  S    
C188  H231  S    
C195  H248  S    
C67   H398  S    
C274  C287  A    
C290  O74   S    
C314  O98   S    
C222  H311  S    
C257  O73   A    
C209  H281  S    
C239  H348  S    
C129  H92   S    
C207  H275  S    
C58   H246  S    
C19   O15   S    
C171  C172  S    
C78   H423  S    
C322  O105  S    
C101  C261  S    
C114  H56   S    
C163  C164  S    
C144  H128  S    
C46   C297  A    
C265  O31   A    
C183  C184  S    
C202  H262  S    
C81   C82   S    
C142  H122  S    
C39   C266  S    
C242  H356  S    
C202  H264  S    
C173  C174  S    
C162  H169  S    
C171  H191  S    
C135  C224  T    
C133  H103  S    
C290  C307  A    
C70   H402  S    
C132  H98   S    
C96   H18   S    
C11   C36   A    
C163  O105  S    
C285  C288  A    
C227  O11   S    
C165  H176  S    
C1    C282  A    
C159  H162  S    
C263  C318  S    
C280  O46   A    
C139  H116  S    
C181  C182  S    
O26   Zn15  S    
C276  O53   A    
C125  H82   S    
C178  H208  S    
C266  O32   A    
C126  H85   S    
C114  O89   S    
C42   C271  S    
C21   O17   S    
C118  C119  S    
C240  C241  S    
C276  O42   A    
C123  O92   S    
C302  O86   S    
C123  H80   S    
C155  H153  S    
C245  H363  S    
C175  H199  S    
C262  O28   A    
C187  H229  S    
C6    C41   A    
C22   C314  A    
C233  H337  S    
C36   C269  S    
C149  H140  S    
C11   O7    S    
C79   C168  T    
C291  C318  A    
C59   H257  S    
C14   C42   A    
C248  H369  S    
C116  H61   S    
C1    C311  A    
C153  H150  S    
C112  C312  A    
C263  C286  A    
C148  H137  S    
C197  H253  S    
C226  H317  S    
O40   Zn6   S    
C61   C62   S    
C213  H288  S    
C264  O30   A    
C16   O11   S    
C46   C296  S    
C177  H206  S    
C279  O45   A    
C56   C58   S    
C134  H105  S    
C249  H373  S    
C102  H31   S    
C68   C299  A    
C260  O26   A    
C299  O82   S    
C74   C75   S    
C208  H278  S    
C23   C30   A    
C68   C305  A    
C76   C77   S    
C124  C259  S    
C57   C298  A    
C160  H164  S    
C272  O38   A    
C73   H411  S    
C140  H119  S    
C217  H298  S    
C134  C136  S    
C72   H407  S    
C76   O77   S    
C13   C300  A    
C214  H292  S    
C71   H404  S    
C63   C64   S    
O39   Zn7   S    
C67   C69   S    
C112  C283  A    
C192  H240  S    
C222  O10   S    
C199  H258  S    
C258  O84   A    
C231  H330  S    
C86   H441  S    
C9    C301  A    
C215  H293  S    
O28   Zn9   S    
C275  O41   A    
C11   C303  A    
C99   C100  S    
C232  H331  S    
C4    C39   A    
C127  O93   S    
C20   C312  A    
C96   C97   S    
C213  O7    S    
C258  O13   A    
C100  C102  S    
C225  C226  S    
C277  O54   A    
C10   C34   A    
C93   C94   S    
C244  H361  S    
C204  C205  S    
C23   C315  A    
C230  H328  S    
C242  H358  S    
C98   H22   S    
C241  H353  S    
C176  C177  S    
C45   H416  S    
C26   C317  A    
C210  C211  S    
C255  H386  S    
C83   H434  S    
C166  C167  S    
C63   H379  S    
C293  C328  A    
C272  O58   A    
C271  O37   A    
C66   H396  S    
C277  O43   A    
C166  H181  S    
C86   C87   S    
C327  O111  S    
C185  H226  S    
C269  O59   A    
O62   Zn4   S    
C171  H189  S    
C22   C33   A    
C90   C179  T    
C209  O6    S    
C85   H440  S    
C296  C313  A    
C180  C181  S    
C210  H283  S    
C211  H285  S    
C252  H381  S    
C257  O2    A    
C80   C81   S    
C216  H297  S    
C247  H366  S    
C247  C248  S    
C267  O61   A    
C190  C201  S    
C180  H210  S    
C7    C299  A    
C280  O48   A    
C95   H15   S    
C229  H326  S    
C34   C326  A    
C181  H213  S    
C82   H432  S    
O64   Zn1   S    
C150  O101  S    
C126  H83   S    
C56   H224  S    
C319  O102  S    
O13   Zn2   S    
C123  H78   S    
C51   H79   S    
C141  C142  S    
C273  O55   A    
O29   Zn7   S    
C158  C159  S    
C120  H71   S    
C261  O27   A    
C170  O108  S    
C2    C223  S    
C199  C200  S    
C160  C161  S    
C260  O22   A    
C55   H201  S    
C160  H165  S    
C106  H41   S    
C228  C229  S    
C222  H313  S    
O1    Zn12  S    
C274  C315  A    
C7    O3    S    
O47   Zn2   S    
C198  H254  S    
O22   Zn11  S    
C10   O6    S    
C50   H57   S    
C158  H160  S    
C231  C232  S    
C303  O87   S    
C221  H310  S    
C223  C309  A    
C146  C257  S    
C160  O104  S    
C263  C310  A    
C291  O75   S    
C153  C154  S    
O59   Zn12  S    
C83   H433  S    
C131  C132  S    
C289  C324  A    
