data_mof_unit_37292.cif
_audit_creation_date              2012-12-10T18:04:42-0500
_audit_creation_method            fapswitch 2.2
_symmetry_space_group_name_H-M    P1
_symmetry_Int_Tables_number       1
_space_group_crystal_system       triclinic
_cell_length_a                    19.561484
_cell_length_b                    17.552737
_cell_length_c                    12.613238
_cell_angle_alpha                 90.082338
_cell_angle_beta                  99.166517
_cell_angle_gamma                 90.025254
_cell_volume                      4275.5385222

loop_
_atom_site_label
_atom_site_type_symbol
_atom_type_description
_atom_site_fract_x
_atom_site_fract_y
_atom_site_fract_z
_atom_type_partial_charge
C1    C     C_R   0.411287 0.103102 0.443777 0.927803
C2    C     C_R   0.781656 0.789221 0.645125 0.168563
C3    C     C_R   0.282022 0.710458 0.645639 0.159081
C4    C     C_R   0.281854 0.289764 0.644707 0.159576
C5    C     C_R   0.348912 0.739694 0.668959 -0.241223
C6    C     C_R   0.348841 0.260931 0.667745 -0.243470
C7    C     C_R   0.848841 0.240017 0.669408 -0.247012
C8    C     C_R   0.848667 0.760443 0.668364 -0.250462
C9    C     C_R   0.377339 0.777837 0.589946 -0.128646
C10   C     C_R   0.377100 0.222483 0.588777 -0.130441
C11   C     C_R   0.877571 0.277705 0.590313 -0.136436
C12   C     C_R   0.411404 0.896661 0.443816 0.928049
C13   C     C_R   0.877274 0.722531 0.589284 -0.138117
C14   C     C_R   0.677549 0.189292 0.519017 -0.252948
C15   C     C_R   0.677038 0.810263 0.518679 -0.252347
C16   C     C_R   0.177496 0.689151 0.518965 -0.261021
C17   C     C_R   0.176959 0.310300 0.518660 -0.259914
C18   C     C_R   0.685323 0.143877 0.701321 -0.200005
C19   C     C_R   0.685377 0.856532 0.700867 -0.198446
C20   C     C_R   0.185566 0.643312 0.701125 -0.199873
C21   C     C_R   0.185737 0.357256 0.700582 -0.198334
C22   C     C_R   0.362059 0.835550 0.408910 -0.353005
C23   C     C_R   0.911319 0.603192 0.443783 0.937200
C24   C     C_R   0.361481 0.163442 0.408506 -0.345814
C25   C     C_R   0.862545 0.334832 0.408982 -0.364165
C26   C     C_R   0.862002 0.664141 0.408613 -0.355676
C27   C     C_R   0.642227 0.005371 0.132870 -0.342489
C28   C     C_R   0.142186 0.505558 0.132850 -0.276075
C29   C     C_R   0.378775 0.003858 0.760534 0.027833
C30   C     C_R   0.878773 0.503858 0.760513 0.024880
C31   C     C_R   0.352596 0.012503 0.855394 -0.281077
C32   C     C_R   0.852578 0.512484 0.855366 -0.270853
C33   C     C_R   0.590840 0.899580 0.557591 0.833047
C34   C     C_R   0.911411 0.396576 0.443805 0.937155
C35   C     C_R   0.590881 0.100441 0.557690 0.833504
C36   C     C_R   0.090844 0.399619 0.557580 0.832060
C37   C     C_R   0.090884 0.600391 0.557683 0.832524
C38   C     C_R   0.398216 0.015194 0.951678 -0.067693
C39   C     C_R   0.898186 0.515157 0.951666 -0.069105
C40   C     C_R   0.470506 0.006551 0.953493 0.016089
C41   C     C_R   0.970473 0.506527 0.953491 0.012318
C42   C     C_R   0.494409 0.001975 0.853930 0.232895
C43   C     C_R   0.994386 0.501964 0.853932 0.230389
C44   C     C_R   0.520105 0.004315 0.048391 -0.155437
C45   C     C_R   0.745524 0.215183 0.539395 0.138923
C46   C     C_R   0.020068 0.504315 0.048389 -0.163069
C47   C     C_R   0.592160 0.005001 0.040724 0.146948
C48   C     C_R   0.092114 0.505074 0.040708 0.128678
C49   C     C_R   0.613752 0.004112 0.941218 -0.266860
C50   C     C_R   0.113703 0.504152 0.941195 -0.244849
C51   C     C_R   0.565318 0.001168 0.849156 -0.208510
C52   C     C_R   0.065280 0.501166 0.849147 -0.216924
C53   C     C_R   0.502242 0.999236 0.151362 0.755189
C54   C     C_R   0.002224 0.499205 0.151370 0.745365
C55   C     C_R   0.620788 0.003639 0.231814 -0.124398
C56   C     C_R   0.744916 0.784179 0.538816 0.138553
C57   C     C_R   0.120770 0.503757 0.231807 -0.124302
C58   C     C_R   0.750997 0.176298 0.726739 -0.197957
C59   C     C_R   0.751027 0.824203 0.726019 -0.202404
C60   C     C_R   0.251315 0.675559 0.726405 -0.191131
C61   C     C_R   0.251484 0.325148 0.725541 -0.193158
C62   C     C_R   0.649620 0.148940 0.596091 -0.046222
C63   C     C_R   0.649452 0.851062 0.595806 -0.046117
C64   C     C_R   0.149671 0.648722 0.596052 -0.047693
C65   C     C_R   0.149529 0.351284 0.595763 -0.047718
C66   C     C_R   0.331350 0.830677 0.300111 0.571926
C67   C     C_R   0.245395 0.715125 0.539325 0.141477
C68   C     C_R   0.330292 0.166909 0.299867 0.559326
C69   C     C_R   0.832500 0.328966 0.299938 0.588337
C70   C     C_R   0.831404 0.668557 0.299723 0.570109
C71   C     C_R   0.275438 0.782261 0.268910 0.482029
C72   C     C_R   0.273876 0.214500 0.268569 0.485700
C73   C     C_R   0.778963 0.277650 0.267425 0.493795
C74   C     C_R   0.777144 0.718861 0.267597 0.491804
C75   C     C_R   0.248072 0.741004 0.346838 -0.422351
C76   C     C_R   0.246569 0.256258 0.346213 -0.417738
C77   C     C_R   0.749325 0.239348 0.346512 -0.433968
C78   C     C_R   0.244829 0.284274 0.538655 0.141052
C79   C     C_R   0.747644 0.757628 0.346015 -0.417612
C80   C     C_R   0.276784 0.747440 0.456820 0.024435
C81   C     C_R   0.275890 0.251270 0.456123 0.023313
C82   C     C_R   0.777435 0.246653 0.456718 0.032125
C83   C     C_R   0.776462 0.751972 0.456143 0.026022
C84   C     C_R   0.339406 0.787200 0.485485 0.006931
C85   C     C_R   0.338827 0.212192 0.484702 0.006427
C86   C     C_R   0.840002 0.286450 0.485527 0.003344
C87   C     C_R   0.839387 0.712875 0.484852 0.002812
C88   C     C_3   0.184990 0.812542 0.139460 -0.258631
C89   C     C_R   0.781920 0.210861 0.645919 0.166502
C90   C     C_3   0.184409 0.179214 0.140550 -0.263942
C91   C     C_3   0.738796 0.197901 0.124529 -0.284344
C92   C     C_3   0.755997 0.795620 0.120199 -0.282930
F1    F     F_    0.436757 0.989787 0.170191 -0.587296
F2    F     F_    0.936745 0.489701 0.170207 -0.582914
F3    F     F_    0.353692 0.874525 0.223952 -0.576403
F4    F     F_    0.352636 0.122365 0.224158 -0.604091
F5    F     F_    0.854160 0.373771 0.224167 -0.566115
F6    F     F_    0.852955 0.623172 0.224212 -0.595182
H1    H     H_    0.664069 0.112244 0.762089 0.150520
H2    H     H_    0.844003 0.503015 0.684710 0.159976
H3    H     H_    0.374958 0.027237 0.021379 0.257190
H4    H     H_    0.874932 0.527179 0.021376 0.263065
H5    H     H_    0.297414 0.018694 0.854231 0.166577
H6    H     H_    0.797395 0.518673 0.854182 0.180400
H7    H     H_    0.584751 0.999127 0.774933 0.204893
H8    H     H_    0.084706 0.499122 0.774922 0.205889
H9    H     H_    0.378730 0.734464 0.748747 0.159131
H10   H     H_    0.378916 0.266797 0.747285 0.156990
H11   H     H_    0.878429 0.235135 0.749409 0.151520
H12   H     H_    0.664361 0.888503 0.761659 0.150013
H13   H     H_    0.878480 0.765909 0.748154 0.148165
H14   H     H_    0.778555 0.171841 0.808129 0.138901
H15   H     H_    0.778822 0.829105 0.807235 0.134760
H16   H     H_    0.279053 0.670806 0.807639 0.156240
H17   H     H_    0.279515 0.330446 0.806546 0.154814
H18   H     H_    0.645526 0.197597 0.441947 0.158089
H19   H     H_    0.644852 0.801888 0.441743 0.159239
H20   H     H_    0.145561 0.697456 0.441759 0.149687
H21   H     H_    0.144734 0.301704 0.441745 0.150267
H22   H     H_    0.705441 0.203160 0.320195 0.175597
H23   H     H_    0.164411 0.611503 0.761823 0.154396
H24   H     H_    0.703225 0.792773 0.318405 0.180978
H25   H     H_    0.205963 0.702516 0.318906 0.183977
H26   H     H_    0.203901 0.293827 0.317940 0.185326
H27   H     H_    0.429763 0.798734 0.611174 0.168479
H28   H     H_    0.429638 0.201970 0.609761 0.167637
H29   H     H_    0.929922 0.298782 0.611730 0.165563
H30   H     H_    0.929750 0.701868 0.610472 0.164570
H31   H     H_    0.658357 0.004547 0.304715 0.167118
H32   H     H_    0.158336 0.504706 0.304713 0.173807
H33   H     H_    0.190306 0.873625 0.163499 0.165136
H34   H     H_    0.164868 0.389478 0.761279 0.153711
H35   H     H_    0.145053 0.784212 0.179398 0.141652
H36   H     H_    0.166551 0.810658 0.051646 0.191750
H37   H     H_    0.143886 0.204507 0.182444 0.144694
H38   H     H_    0.192930 0.118268 0.163410 0.168691
H39   H     H_    0.164779 0.181049 0.053089 0.191172
H40   H     H_    0.687325 0.178780 0.140713 0.173870
H41   H     H_    0.780229 0.158049 0.161259 0.135105
H42   H     H_    0.737317 0.195510 0.036286 0.192552
H43   H     H_    0.810793 0.815290 0.138332 0.141954
H44   H     H_    0.721112 0.837060 0.151423 0.158208
H45   H     H_    0.668340 0.004205 0.934475 0.137721
H46   H     H_    0.741402 0.794247 0.031530 0.194120
H47   H     H_    0.168286 0.504264 0.934427 0.150375
H48   H     H_    0.697089 0.006805 0.128312 0.150145
H49   H     H_    0.197040 0.507065 0.128276 0.173199
H50   H     H_    0.343996 0.003005 0.684739 0.153468
N1    N     N_R   0.552340 1.000000 0.237260 -0.147911
N2    N     N_R   0.052340 0.500000 0.237260 -0.154151
N3    N     N_R   0.448170 1.000000 0.762060 -0.137231
N4    N     N_R   0.948170 0.500000 0.762060 -0.138287
O1    O     O_R   0.448200 0.076800 0.373930 -0.507549
O2    O     O_R   0.585240 0.076800 0.457600 -0.624711
O3    O     O_R   0.085240 0.423200 0.457600 -0.619844
O4    O     O_R   0.085240 0.576800 0.457600 -0.623428
O5    O     O_R   0.551780 0.923190 0.626070 -0.643537
O6    O     O_R   0.551780 0.076810 0.626070 -0.642073
O7    O     O_R   0.051780 0.423190 0.626070 -0.645585
O8    O     O_R   0.051780 0.576810 0.626070 -0.644257
O9    O     O_3   0.249003 0.774156 0.161121 -0.563705
O10   O     O_3   0.246598 0.221204 0.160976 -0.567592
O11   O     O_3   0.751634 0.273978 0.158813 -0.545254
O12   O     O_R   0.448200 0.923200 0.373930 -0.493213
O13   O     O_3   0.747790 0.721715 0.160307 -0.548721
O14   O     O_R   0.948200 0.576800 0.373930 -0.512430
O15   O     O_R   0.948200 0.423200 0.373930 -0.497852
O16   O     O_R   0.414750 0.076790 0.542400 -0.634045
O17   O     O_R   0.414750 0.923210 0.542400 -0.633564
O18   O     O_R   0.914750 0.576790 0.542400 -0.629859
O19   O     O_R   0.914750 0.423210 0.542400 -0.629073
O20   O     O_R   0.585240 0.923200 0.457600 -0.621005
Zn1   Zn    Zn3+2 0.522330 1.000000 0.387520 1.041097
Zn2   Zn    Zn3+2 0.022330 0.500000 0.387520 1.036650
Zn3   Zn    Zn3+2 0.477660 1.000000 0.612480 0.917848
Zn4   Zn    Zn3+2 0.977660 0.500000 0.612480 0.918814

loop_
_geom_bond_atom_site_label_1
_geom_bond_atom_site_label_2
_ccdc_geom_bond_type
O16   Zn3   S    
C30   C32   A    
C13   C87   A    
C10   C85   A    
C8    C13   A    
C30   H2    S    
O8    Zn4   S    
C60   H16   S    
C45   C82   A    
C35   O2    A    
C6    H10   S    
C72   C76   A    
C77   H22   S    
C37   C64   S    
C29   H50   S    
C54   N2    A    
O18   Zn4   S    
C28   C57   A    
C7    C11   A    
O4    Zn2   S    
C68   F4    S    
C90   O10   S    
C75   H25   S    
C37   O8    A    
C38   C40   A    
C91   H40   S    
C88   H35   S    
C38   H3    S    
C27   C55   A    
C43   C52   A    
C23   C26   S    
C12   O12   A    
C11   C86   A    
C88   O9    S    
C14   C62   A    
O1    Zn1   S    
C4    C78   A    
C32   C39   A    
C22   C66   A    
C36   O7    A    
C13   H30   S    
C92   O13   S    
C18   C58   A    
C19   C63   A    
C26   C87   A    
C49   C51   A    
C70   C74   A    
C50   C52   A    
C41   C46   A    
C32   H6    S    
C69   C73   A    
C20   C60   A    
C92   H44   S    
C24   C85   A    
C21   C61   A    
C44   C47   A    
C80   C84   A    
C42   C51   A    
C3    C60   A    
C40   C42   A    
C52   H8    S    
C53   N1    A    
C41   C43   A    
C37   O4    A    
C91   O11   S    
C44   C53   A    
C33   O5    A    
C55   N1    A    
C14   C45   A    
C79   H24   S    
C46   C48   A    
O14   Zn2   S    
N3    Zn3   S    
C53   F1    S    
C76   H26   S    
C57   H32   S    
C47   C49   A    
C8    H13   S    
C43   N4    A    
C24   C68   A    
C2    C59   A    
C18   C62   A    
C1    O16   A    
C55   H31   S    
C82   C86   A    
C4    C61   A    
C9    H27   S    
C7    H11   S    
N4    Zn4   S    
C68   C72   A    
C22   C84   A    
C20   C64   A    
C11   H29   S    
C21   H34   S    
C5    C9    A    
C42   N3    A    
C16   H20   S    
C29   N3    A    
C23   O14   A    
C90   H38   S    
C30   N4    A    
C66   C71   A    
C33   C63   S    
C57   N2    A    
C46   C54   A    
O17   Zn3   S    
O12   Zn1   S    
C16   C67   A    
C1    O1    A    
C92   H43   S    
C20   H23   S    
O5    Zn3   S    
O15   Zn2   S    
C91   H41   S    
O3    Zn2   S    
C4    C6    A    
N2    Zn2   S    
C74   C79   A    
C26   C70   A    
C12   C22   S    
C58   H14   S    
C25   C69   A    
C18   H1    S    
C34   O15   A    
C69   F5    S    
C90   H39   S    
C45   C89   A    
O20   Zn1   S    
C50   H47   S    
C56   C83   A    
C5    H9    S    
C19   H12   S    
C27   C47   A    
C28   C48   A    
C28   H49   S    
C72   O10   S    
C71   O9    S    
O2    Zn1   S    
C21   C65   A    
C36   C65   S    
C2    C8    A    
C67   C80   A    
C59   H15   S    
C3    C5    A    
C83   C87   A    
C6    C10   A    
C12   O17   A    
O19   Zn4   S    
C25   C34   S    
C17   C65   A    
C76   C81   A    
C31   C38   A    
C15   C63   A    
O7    Zn4   S    
C19   C59   A    
C15   C56   A    
C35   O6    A    
C88   H36   S    
C39   H4    S    
C29   C31   A    
C61   H17   S    
C71   C75   A    
C90   H37   S    
C78   C81   A    
C25   C86   A    
C23   O18   A    
C3    C67   A    
C77   C82   A    
C27   H48   S    
C14   H18   S    
C49   H45   S    
C48   C50   A    
C17   C78   A    
C35   C62   S    
N1    Zn1   S    
C92   H46   S    
C58   C89   A    
C51   H7    S    
C54   F2    S    
C17   H21   S    
C9    C84   A    
C91   H42   S    
C79   C83   A    
C15   H19   S    
O6    Zn3   S    
C40   C44   A    
C75   C80   A    
C39   C41   A    
C1    C24   S    
C73   O11   S    
C73   C77   A    
C2    C56   A    
C16   C64   A    
C88   H33   S    
C10   H28   S    
C33   O20   A    
C74   O13   S    
C81   C85   A    
C34   O19   A    
C70   F6    S    
C36   O3    A    
C31   H5    S    
C66   F3    S    
C7    C89   A    
