data_mof_unit_38144.cif
_audit_creation_date              2012-12-11T16:08:44-0500
_audit_creation_method            fapswitch 2.2
_symmetry_space_group_name_H-M    P1
_symmetry_Int_Tables_number       1
_space_group_crystal_system       triclinic
_cell_length_a                    12.967523
_cell_length_b                    13.272264
_cell_length_c                    27.739764
_cell_angle_alpha                 94.57721
_cell_angle_beta                  90.131254
_cell_angle_gamma                 119.290822
_cell_volume                      4145.87396898

loop_
_atom_site_label
_atom_site_type_symbol
_atom_type_description
_atom_site_fract_x
_atom_site_fract_y
_atom_site_fract_z
_atom_type_partial_charge
C1    C     C_R   0.627648 0.896782 0.426984 0.545599
C2    C     C_R   0.691868 0.259240 0.222093 -0.111505
C3    C     C_R   0.683467 0.242780 0.271423 -0.108840
C4    C     C_R   0.676109 0.323934 0.304826 0.030657
C5    C     C_R   0.692372 0.356760 0.205962 0.025017
C6    C     C_1   0.698523 0.374309 0.155280 -0.069897
C7    C     C_1   0.656974 0.300479 0.354757 -0.053762
C8    C     C_1   0.705115 0.397936 0.113925 -0.023375
C9    C     C_R   0.125529 0.742336 0.358814 0.045567
C10   C     C_R   0.094407 0.728201 0.308966 -0.006558
C11   C     C_R   0.058914 0.703582 0.208048 0.004907
C12   C     C_R   0.601299 0.222336 0.440615 0.548752
C13   C     C_R   0.009956 0.605537 0.233879 -0.138180
C14   C     C_R   0.025769 0.617601 0.283943 -0.107898
C15   C     C_R   0.047608 0.691306 0.158051 -0.124069
C16   C     C_R   0.091724 0.789195 0.131795 0.006098
C17   C     C_R   0.228048 0.952929 0.355876 -0.157147
C18   C     C_R   0.199068 0.940092 0.306903 0.004089
C19   C     C_R   0.136365 0.827838 0.282894 0.041852
C20   C     C_R   0.238939 0.038236 0.281054 -0.123339
C21   C     C_R   0.220570 0.025533 0.230948 -0.126062
C22   C     C_R   0.162507 0.914605 0.206236 0.018218
C23   C     C_R   0.267188 0.876031 0.426438 0.570438
C24   C     C_R   0.118632 0.815385 0.232435 0.066927
C25   C     C_R   0.147226 0.900747 0.155796 -0.135810
C26   C     C_R   0.199871 0.855590 0.380931 -0.018767
C27   C     C_R   0.739675 0.954933 0.353808 -0.127590
C28   C     C_R   0.741836 0.944249 0.303881 0.005365
C29   C     C_R   0.741229 0.925184 0.203140 0.010539
C30   C     C_R   0.820640 0.029708 0.229548 -0.137731
C31   C     C_R   0.821993 0.038716 0.279781 -0.139507
C32   C     C_R   0.747123 0.912658 0.153337 -0.129793
C33   C     C_R   0.679633 0.803680 0.127599 -0.005124
C34   C     C_R   0.627492 0.898049 0.564627 0.547037
C35   C     C_R   0.570849 0.760178 0.352235 -0.130708
C36   C     C_R   0.575954 0.745741 0.301956 0.011538
C37   C     C_R   0.659320 0.839660 0.277664 0.061481
C38   C     C_R   0.496618 0.641160 0.275299 -0.129409
C39   C     C_R   0.500664 0.629476 0.224925 -0.135939
C40   C     C_R   0.582230 0.723142 0.200616 0.008251
C41   C     C_R   0.660169 0.829514 0.227104 0.062862
C42   C     C_R   0.592457 0.710734 0.150674 -0.136149
C43   C     C_R   0.650276 0.866256 0.377946 -0.002341
C44   C     C_R   0.740993 0.299185 0.651478 -0.137150
C45   C     C_R   0.603063 0.227164 0.578397 0.548224
C46   C     C_R   0.755166 0.323232 0.701846 0.005999
C47   C     C_R   0.771289 0.353437 0.803636 0.005648
C48   C     C_R   0.861179 0.346784 0.777940 -0.140061
C49   C     C_R   0.852424 0.330286 0.727347 -0.139733
C50   C     C_R   0.779871 0.372660 0.854212 -0.138695
C51   C     C_R   0.689649 0.381118 0.879015 -0.005858
C52   C     C_R   0.560142 0.311874 0.652337 -0.134528
C53   C     C_R   0.569838 0.330098 0.702398 0.000971
C54   C     C_R   0.666543 0.333843 0.727444 0.056515
C55   C     C_R   0.480093 0.337106 0.727809 -0.143041
C56   C     C_R   0.271679 0.879218 0.563404 0.558104
C57   C     C_R   0.484414 0.344806 0.778066 -0.142614
C58   C     C_R   0.580188 0.348849 0.803302 0.000746
C59   C     C_R   0.672760 0.345299 0.778145 0.055912
C60   C     C_R   0.587079 0.361724 0.853416 -0.133321
C61   C     C_R   0.640120 0.287521 0.627045 -0.005022
C62   C     C_1   0.221783 0.862154 0.610087 -0.006186
C63   C     C_R   0.075414 0.747223 0.718346 -0.102371
C64   C     C_R   0.060364 0.737602 0.767984 -0.103666
C65   C     C_R   0.233701 0.927194 0.785529 -0.104504
C66   C     C_R   0.248688 0.936867 0.735866 -0.104986
C67   C     C_1   0.635144 0.271536 0.395250 -0.007492
C68   C     C_R   0.169956 0.846672 0.702179 0.035881
C69   C     C_R   0.140078 0.827053 0.801679 0.036507
C70   C     C_1   0.123448 0.814993 0.852594 -0.057939
C71   C     C_1   0.192865 0.853258 0.651470 -0.055344
C72   C     C_1   0.100267 0.797829 0.894225 -0.014352
C73   C     C_1   0.647131 0.860123 0.608966 -0.011614
C74   C     C_R   0.691043 0.903700 0.734666 -0.104455
C75   C     C_R   0.702010 0.887334 0.783058 -0.101972
C76   C     C_R   0.682209 0.698796 0.758590 -0.106479
C77   C     C_R   0.671009 0.715166 0.709959 -0.104210
C78   C     C_R   0.678611 0.422417 0.288770 -0.109279
C79   C     C_R   0.675517 0.817891 0.697996 0.036898
C80   C     C_R   0.697401 0.784939 0.795187 0.036495
C81   C     C_1   0.711355 0.770805 0.845205 -0.058602
C82   C     C_1   0.661042 0.836455 0.648636 -0.055779
C83   C     C_1   0.726165 0.762499 0.887275 -0.011409
C84   C     C_R   0.059145 0.768940 0.080478 0.546785
C85   C     C_R   0.717107 0.441577 0.067429 0.545713
C86   C     C_R   0.719758 0.782347 0.080775 0.557269
C87   C     C_R   0.056606 0.766468 0.941229 0.540137
C88   C     C_R   0.710559 0.434843 0.928822 0.537705
C89   C     C_R   0.686880 0.438828 0.239457 -0.111132
C90   C     C_R   0.748992 0.754670 0.937006 0.563203
Cr1   Cr    Cr6+3 0.416430 0.829200 0.492370 1.057743
Cr2   Cr    Cr6+3 0.674630 0.087020 0.504170 1.028926
Cr3   Cr    Cr6+3 0.408920 0.083740 0.503490 1.027449
Cr4   Cr    Cr6+3 0.914010 0.832750 0.013970 1.021675
Cr5   Cr    Cr6+3 0.922310 0.578600 0.003000 1.016485
Cr6   Cr    Cr6+3 0.656280 0.574630 0.003870 1.021189
H1    H     H_    0.672107 0.485258 0.314153 0.120790
H2    H     H_    0.253736 0.102275 0.211476 0.111629
H3    H     H_    0.287120 0.124859 0.299463 0.114684
H4    H     H_    0.282995 0.039825 0.373316 0.142790
H5    H     H_    0.812864 0.985170 0.135371 0.131265
H6    H     H_    0.801808 0.037159 0.373314 0.139998
H7    H     H_    0.883487 0.103437 0.211418 0.110141
H8    H     H_    0.884672 0.119925 0.299759 0.115529
H9    H     H_    0.539283 0.626650 0.130656 0.131060
H10   H     H_    0.440520 0.547198 0.205021 0.113161
H11   H     H_    0.432158 0.568344 0.293410 0.121516
H12   H     H_    0.687779 0.514917 0.227370 0.123512
H13   H     H_    0.502089 0.691565 0.370912 0.132404
H14   H     H_    0.859030 0.387180 0.873869 0.129194
H15   H     H_    0.803852 0.281995 0.631911 0.130164
H16   H     H_    0.937576 0.353295 0.796962 0.114169
H17   H     H_    0.921291 0.322514 0.708196 0.114407
H18   H     H_    0.516275 0.366844 0.872183 0.138703
H19   H     H_    0.413606 0.348920 0.797206 0.114326
H20   H     H_    0.405141 0.333640 0.708808 0.114343
H21   H     H_    0.483283 0.305373 0.633632 0.137150
H22   H     H_    0.014684 0.676557 0.692702 0.116726
H23   H     H_    0.696548 0.195510 0.196605 0.115537
H24   H     H_    0.987226 0.659943 0.780109 0.117286
H25   H     H_    0.295457 0.997056 0.811210 0.114823
H26   H     H_    0.322779 0.013786 0.723741 0.119326
H27   H     H_    0.694232 0.983252 0.725831 0.116842
H28   H     H_    0.714246 0.954619 0.811017 0.116626
H29   H     H_    0.679113 0.619434 0.767621 0.121482
H30   H     H_    0.658562 0.648034 0.681901 0.115613
H31   H     H_    0.680496 0.165733 0.283434 0.122811
H32   H     H_    0.999407 0.604555 0.139631 0.138116
H33   H     H_    0.960427 0.519229 0.215288 0.121277
H34   H     H_    0.985792 0.539346 0.302360 0.166101
H35   H     H_    0.177637 0.975738 0.135318 0.112718
O1    O     O_R   0.296680 0.802170 0.437540 -0.477241
O2    O     O_R   0.662610 0.183990 0.557860 -0.500618
O3    O     O_R   0.500730 0.201280 0.562180 -0.519232
O4    O     O_R   0.312500 0.978850 0.548170 -0.495694
O5    O     O_3   0.499990 0.999990 0.500010 -0.253767
O6    O     O_R   0.820790 0.857990 0.068830 -0.514484
O7    O     O_R   0.016700 0.827330 0.062850 -0.496827
O8    O     O_R   0.041970 0.673520 0.060040 -0.517419
O9    O     O_R   0.817980 0.483660 0.048840 -0.498609
O10   O     O_R   0.637200 0.461990 0.052510 -0.507741
O11   O     O_R   0.664790 0.681920 0.057970 -0.497763
O12   O     O_R   0.525380 0.838530 0.443500 -0.499710
O13   O     O_R   0.815840 0.852920 0.961840 -0.504265
O14   O     O_R   0.012100 0.822630 0.963670 -0.510812
O15   O     O_R   0.037010 0.668460 0.953040 -0.505529
O16   O     O_R   0.813390 0.478970 0.949660 -0.502880
O17   O     O_R   0.632250 0.456930 0.945520 -0.527266
O18   O     O_R   0.660200 0.677230 0.958780 -0.491185
O19   O     O_3   0.830870 0.661990 0.006950 -0.268159
O20   O     O_R   0.702130 0.995190 0.446810 -0.521036
O21   O     O_R   0.661770 0.181390 0.458760 -0.492632
O22   O     O_R   0.499820 0.198480 0.455280 -0.513617
O23   O     O_R   0.311660 0.976250 0.449080 -0.511569
O24   O     O_R   0.297580 0.804960 0.544440 -0.496534
O25   O     O_R   0.526220 0.841130 0.542590 -0.496106
O26   O     O_R   0.703030 0.997990 0.553710 -0.508381
C91   C     C_2   0.085412 0.640816 0.387571 0.578687
O27   O     O_2   0.035972 0.638240 0.425309 -0.514261
O28   O     O_R   0.107866 0.550622 0.372445 -0.713699
H36   H     H_    0.077077 0.487210 0.395315 0.336051

loop_
_geom_bond_atom_site_label_1
_geom_bond_atom_site_label_2
_ccdc_geom_bond_type
C39   H10   S    
C49   H17   S    
C87   O15   A    
C12   O21   A    
C60   H18   S    
C35   C36   A    
C42   H9    S    
C50   H14   S    
C12   O22   A    
Cr3   O5    S    
C72   C87   S    
C62   C71   T    
C57   H19   S    
C53   C54   A    
Cr1   O24   S    
C46   C49   A    
Cr5   O9    S    
C33   C42   A    
C9    C91   S    
C22   C24   A    
Cr3   O23   S    
C8    C85   S    
C29   C32   A    
C52   C61   A    
C90   O18   A    
C14   H34   S    
C38   C39   A    
C3    H31   S    
C66   C68   A    
C58   C60   A    
C15   C16   A    
C11   C24   A    
C16   C84   S    
C18   C19   A    
C23   C26   S    
C45   C61   S    
C38   H11   S    
C86   O6    A    
Cr6   O10   S    
C11   C15   A    
C1    C43   S    
Cr1   O5    S    
Cr2   O2    S    
C84   O8    A    
C22   C25   A    
C30   H7    S    
Cr2   O21   S    
C66   H26   S    
C1    O20   A    
C65   H25   S    
C35   C43   A    
C9    C10   A    
C35   H13   S    
C52   H21   S    
Cr4   O14   S    
C40   C42   A    
C74   H27   S    
C84   O7    A    
C21   C22   A    
C91   O28   S    
C76   H29   S    
Cr2   O5    S    
Cr5   O15   S    
C78   H1    S    
C56   O24   A    
C81   C83   T    
Cr6   O11   S    
C44   C46   A    
C9    C26   A    
C50   C51   A    
C47   C50   A    
Cr1   O12   S    
C54   C59   A    
C53   C55   A    
C78   C89   A    
Cr6   O17   S    
C12   C67   S    
C74   C75   A    
C75   H28   S    
Cr5   O16   S    
C76   C77   A    
Cr3   O3    S    
C10   C14   A    
C85   O10   A    
C39   C40   A    
C63   H22   S    
C6    C8    T    
Cr1   O1    S    
C4    C7    S    
C58   C59   A    
C47   C59   A    
C32   C33   A    
Cr2   O26   S    
C33   C86   S    
C44   H15   S    
C4    C78   A    
C29   C30   A    
C1    O12   A    
C47   C48   A    
C10   C19   A    
Cr6   O19   S    
C46   C54   A    
Cr2   O20   S    
C17   C18   A    
C88   O17   A    
C77   C79   A    
Cr5   O19   S    
C45   O3    A    
C64   C69   A    
C85   O9    A    
C40   C41   A    
C48   H16   S    
C74   C79   A    
C55   C57   A    
C91   O27   D    
Cr4   O7    S    
C56   C62   S    
C2    C5    A    
C17   C26   A    
C3    C4    A    
C25   H35   S    
C73   C82   T    
C56   O4    A    
C52   C53   A    
C86   O11   A    
C75   C80   A    
C16   C25   A    
C83   C90   S    
C63   C68   A    
C48   C49   A    
C87   O14   A    
C29   C41   A    
C45   O2    A    
C28   C31   A    
C76   C80   A    
C80   C81   S    
Cr3   O4    S    
C51   C88   S    
C79   C82   S    
C2    H23   S    
C34   O25   A    
C44   C61   A    
Cr4   O19   S    
C27   H6    S    
Cr5   O8    S    
C64   H24   S    
C15   H32   S    
Cr4   O13   S    
C31   H8    S    
Cr3   O22   S    
C19   C24   A    
Cr1   O25   S    
O28   H36   S    
C21   H2    S    
C11   C13   A    
C30   C31   A    
C57   C58   A    
C5    C6    S    
C20   H3    S    
C28   C37   A    
C68   C71   S    
C65   C69   A    
Cr6   O18   S    
C89   H12   S    
C36   C38   A    
C88   O16   A    
C23   O1    A    
C2    C3    A    
C18   C20   A    
C37   C41   A    
C69   C70   S    
C17   H4    S    
C90   O13   A    
C34   C73   S    
C7    C67   T    
C63   C64   A    
C34   O26   A    
C27   C43   A    
C20   C21   A    
C36   C37   A    
C65   C66   A    
C55   H20   S    
C23   O23   A    
C27   C28   A    
Cr4   O6    S    
C13   H33   S    
C32   H5    S    
C70   C72   T    
C51   C60   A    
C13   C14   A    
C5    C89   A    
C77   H30   S    
