data_mof_unit_57140.cif
_audit_creation_date              2012-12-10T18:29:42-0500
_audit_creation_method            fapswitch 2.2
_symmetry_space_group_name_H-M    P1
_symmetry_Int_Tables_number       1
_space_group_crystal_system       triclinic
_cell_length_a                    11.549667
_cell_length_b                    15.060447
_cell_length_c                    15.411471
_cell_angle_alpha                 81.843202
_cell_angle_beta                  90.253982
_cell_angle_gamma                 105.151058
_cell_volume                      2559.86548865

loop_
_atom_site_label
_atom_site_type_symbol
_atom_type_description
_atom_site_fract_x
_atom_site_fract_y
_atom_site_fract_z
_atom_type_partial_charge
C1    C     C_R   0.476499 0.441353 0.662223 0.890574
C2    C     C_R   0.550976 0.682462 0.971984 -0.230569
C3    C     C_R   0.698992 0.852854 0.615868 -0.357534
C4    C     C_R   0.307155 0.155162 0.371635 -0.326575
C5    C     C_R   0.668025 0.762471 0.596448 0.363789
C6    C     C_R   0.341602 0.244665 0.392694 0.351640
C7    C     C_R   0.495516 0.788178 0.524465 -0.084319
C8    C     C_R   0.489508 0.205111 0.486142 -0.046208
C9    C     C_R   0.529333 0.883369 0.533848 -0.009152
C10   C     C_R   0.448692 0.110168 0.474856 -0.029690
C11   C     C_R   0.626458 0.912394 0.589089 0.026800
C12   C     C_R   0.518337 0.558799 0.337695 0.900665
C13   C     C_R   0.361385 0.087450 0.411362 0.038088
C14   C     C_R   0.470015 0.949723 0.492152 -0.055751
C15   C     C_R   0.496509 0.039395 0.520532 -0.044279
C16   C     C_R   0.718180 0.501505 0.500307 0.899999
C17   C     C_R   0.281925 0.498761 0.499112 0.879063
C18   C     C_R   0.571306 0.055931 0.593425 0.162844
C19   C     C_R   0.390931 0.932145 0.420636 0.146522
C20   C     C_R   0.645816 0.998151 0.620141 0.172693
C21   C     C_R   0.332832 0.999532 0.384527 0.175991
C22   C     C_1   0.839685 0.503916 0.500663 -0.196669
C23   C     C_R   0.336605 0.367536 0.926195 0.077052
C24   C     C_1   0.160516 0.496538 0.498453 -0.205722
C25   C     C_1   0.941381 0.502181 0.500038 -0.007362
C26   C     C_1   0.058864 0.498344 0.498927 -0.006554
C27   C     C_R   0.435141 0.406417 0.753956 -0.145217
C28   C     C_R   0.525295 0.596868 0.244371 -0.146641
C29   C     C_R   0.301486 0.300639 0.868294 0.139630
C30   C     C_R   0.602105 0.717225 0.120297 0.151963
C31   C     C_R   0.346402 0.322149 0.780442 0.166914
C32   C     C_R   0.599938 0.685243 0.210811 0.168481
C33   C     C_R   0.473366 0.468083 0.813526 -0.317985
C34   C     C_R   0.539287 0.656641 0.063036 0.074516
C35   C     C_R   0.457308 0.540833 0.188312 -0.321945
C36   C     C_R   0.417750 0.454542 0.896035 0.057475
C37   C     C_R   0.466180 0.566902 0.097524 0.061574
C38   C     C_3   0.466371 0.091461 0.713116 -0.770828
C39   C     C_3   0.276503 0.784995 0.373896 -0.832791
C40   C     C_3   0.650222 0.806820 0.303821 -0.712190
C41   C     C_3   0.203783 0.280252 0.668041 -0.704227
C42   C     C_3   0.092956 0.210562 0.893928 -0.797845
C43   C     C_3   0.607977 0.877924 0.070268 -0.805454
C44   C     C_3   0.846494 0.080278 0.653814 -0.836129
C45   C     C_R   0.446053 0.525103 0.950241 0.102702
C46   C     C_3   0.302437 0.005484 0.226488 -0.817966
C47   C     C_3   0.158588 0.293780 0.376481 -0.773711
C48   C     C_3   0.767271 0.687258 0.713043 -0.811422
C49   C     C_R   0.412540 0.502710 0.040134 0.102785
C50   C     C_R   0.329927 0.415968 0.069219 -0.237372
C51   C     C_R   0.505545 0.617843 0.916662 -0.237969
C52   C     C_R   0.291248 0.350504 0.012847 -0.216296
H1    H     H_    0.227167 0.285895 0.038666 0.156244
H2    H     H_    0.238172 0.139647 0.324107 0.183682
H3    H     H_    0.641603 0.158717 0.671157 0.249791
H4    H     H_    0.466677 0.147721 0.752509 0.235254
H5    H     H_    0.479815 0.030542 0.757887 0.237538
H6    H     H_    0.378187 0.071930 0.681888 0.247408
H7    H     H_    0.429687 0.878083 0.311602 0.236074
H8    H     H_    0.295925 0.715989 0.380932 0.253212
H9    H     H_    0.231189 0.793272 0.310751 0.240023
H10   H     H_    0.215283 0.785550 0.429201 0.244981
H11   H     H_    0.771374 0.757950 0.238265 0.226994
H12   H     H_    0.599953 0.751321 0.942082 0.154274
H13   H     H_    0.659660 0.869830 0.254696 0.230329
H14   H     H_    0.709154 0.825990 0.359032 0.228923
H15   H     H_    0.556473 0.781403 0.329818 0.263315
H16   H     H_    0.283129 0.190532 0.744996 0.237083
H17   H     H_    0.118585 0.256709 0.707753 0.221806
H18   H     H_    0.193365 0.242969 0.610146 0.233002
H19   H     H_    0.221384 0.355855 0.644888 0.230779
H20   H     H_    0.242372 0.175182 0.952007 0.216814
H21   H     H_    0.053972 0.199112 0.961637 0.228049
H22   H     H_    0.044733 0.152333 0.859681 0.242586
H23   H     H_    0.403521 0.473763 0.217254 0.169413
H24   H     H_    0.078442 0.276400 0.858827 0.249122
H25   H     H_    0.735450 0.810795 0.038744 0.216833
H26   H     H_    0.551664 0.866192 0.012297 0.235405
H27   H     H_    0.672033 0.947874 0.056797 0.239498
H28   H     H_    0.548949 0.876313 0.127500 0.246710
H29   H     H_    0.733042 0.969762 0.736030 0.225910
H30   H     H_    0.891947 0.041272 0.615383 0.243008
H31   H     H_    0.902855 0.101335 0.709784 0.240953
H32   H     H_    0.837520 0.144197 0.611579 0.247401
H33   H     H_    0.178342 0.925118 0.326859 0.236308
H34   H     H_    0.547237 0.528254 0.793673 0.177078
H35   H     H_    0.245878 0.042225 0.184728 0.240242
H36   H     H_    0.304155 0.941269 0.199532 0.236748
H37   H     H_    0.395223 0.051728 0.223914 0.246768
H38   H     H_    0.299836 0.325998 0.286252 0.189654
H39   H     H_    0.105299 0.233663 0.346655 0.211578
H40   H     H_    0.126393 0.355674 0.351603 0.239886
H41   H     H_    0.143693 0.279009 0.448852 0.252173
H42   H     H_    0.821066 0.720672 0.581880 0.217115
H43   H     H_    0.835272 0.747918 0.731867 0.220024
H44   H     H_    0.802474 0.624985 0.726842 0.246181
H45   H     H_    0.290320 0.397575 0.134583 0.136786
H46   H     H_    0.683862 0.675012 0.753230 0.236296
H47   H     H_    0.516426 0.642287 0.847154 0.148975
H48   H     H_    0.566786 0.231386 0.523301 0.164665
H49   H     H_    0.411936 0.756276 0.498275 0.195608
H50   H     H_    0.779809 0.875598 0.651281 0.165819
N1    N     N_R   0.566020 0.731700 0.552730 -0.123709
N2    N     N_2   0.251626 0.981869 0.315149 -0.308024
N3    N     N_2   0.284951 0.312503 0.353242 -0.254329
N4    N     N_2   0.743604 0.703047 0.620667 -0.250642
N5    N     N_R   0.433980 0.268300 0.447270 -0.120651
N6    N     N_2   0.561936 0.123871 0.646838 -0.313109
N7    N     N_2   0.388479 0.857021 0.373003 -0.319040
N8    N     N_2   0.685430 0.735214 0.265512 -0.294434
N9    N     N_2   0.301546 0.259901 0.719157 -0.280023
N10   N     N_2   0.219100 0.212714 0.896513 -0.320530
N11   N     N_2   0.674077 0.808178 0.088030 -0.311842
N12   N     N_2   0.729811 0.022776 0.686557 -0.312686
O1    O     O_R   0.466720 0.383110 0.605620 -0.580536
O2    O     O_R   0.533280 0.616890 0.394380 -0.595022
O3    O     O_R   0.509090 0.531900 0.639510 -0.596832
O4    O     O_R   0.490910 0.468100 0.360490 -0.607881
O5    O     O_R   0.644370 0.425610 0.483050 -0.619607
O6    O     O_R   0.355630 0.574390 0.516950 -0.625015
O7    O     O_R   0.686740 0.574390 0.516930 -0.594582
O8    O     O_R   0.313260 0.425610 0.483070 -0.585472
Zn1   Zn    Zn3+2 0.471710 0.400660 0.477370 0.961472
Zn2   Zn    Zn3+2 0.528290 0.599340 0.522630 0.952788

loop_
_geom_bond_atom_site_label_1
_geom_bond_atom_site_label_2
_ccdc_geom_bond_type
C15   C18   A    
C20   N12   S    
H20   N10   S    
C48   H43   S    
C34   C37   A    
C47   H40   S    
C29   N10   S    
N5    Zn1   S    
C16   O7    A    
C44   H31   S    
C5    N1    A    
C46   H37   S    
C27   C33   A    
C43   H26   S    
C35   H23   S    
C32   N8    S    
C12   C28   S    
C23   C29   A    
C19   C21   A    
O3    Zn2   S    
C24   C26   T    
C44   H30   S    
C10   C15   A    
C45   C51   A    
C43   H27   S    
C33   C36   A    
C4    C13   A    
C50   H45   S    
C42   N10   S    
O7    Zn2   S    
C17   O6    A    
C38   H6    S    
C21   N2    S    
C48   N4    S    
C28   C35   A    
C47   N3    S    
C40   H15   S    
H29   N12   S    
C50   C52   A    
C6    N5    A    
O2    Zn2   S    
C41   H19   S    
C2    C34   A    
C44   N12   S    
C40   H14   S    
C38   N6    S    
H25   N11   S    
N1    Zn2   S    
C2    H12   S    
C46   H36   S    
C5    N4    S    
C19   N7    S    
C51   H47   S    
C39   H9    S    
C11   C20   A    
C42   H22   S    
C17   C24   S    
O1    Zn1   S    
C30   C34   A    
C27   C31   A    
C28   C32   A    
C4    C6    A    
C16   O5    A    
C40   N8    S    
C3    C5    A    
C25   C26   S    
C46   N2    S    
C22   C25   T    
H16   N9    S    
C9    C14   A    
C38   H5    S    
C37   C49   A    
C45   C49   A    
C47   H41   S    
C13   C21   A    
C36   C45   A    
C1    O3    A    
C9    C11   A    
H33   N2    S    
C12   O4    A    
C3    H50   S    
C23   C36   A    
C40   H13   S    
C41   N9    S    
C8    N5    A    
C52   H1    S    
C35   C37   A    
C41   H17   S    
C46   H35   S    
C7    C9    A    
C39   H10   S    
H42   N4    S    
C42   H21   S    
C16   C22   S    
C48   H44   S    
C4    H2    S    
C47   H39   S    
C14   C19   A    
H38   N3    S    
C44   H32   S    
C10   C13   A    
O5    Zn1   S    
C48   H46   S    
C42   H24   S    
H3    N6    S    
H11   N8    S    
C43   H28   S    
C29   C31   A    
C43   N11   S    
C30   C32   A    
C23   C52   A    
C39   H8    S    
H7    N7    S    
C6    N3    S    
C18   C20   A    
O4    Zn1   S    
C8    H48   S    
C18   N6    S    
C3    C11   A    
C2    C51   A    
C17   O8    A    
C39   N7    S    
C38   H4    S    
C8    C10   A    
C49   C50   A    
C7    H49   S    
C1    C27   S    
C31   N9    S    
C14   C15   A    
C7    N1    A    
C1    O1    A    
O8    Zn1   S    
C33   H34   S    
O6    Zn2   S    
C41   H18   S    
C12   O2    A    
C30   N11   S    
