data_mof_unit_12179.cif
_audit_creation_date              2012-12-10T17:02:01-0500
_audit_creation_method            fapswitch 2.2
_symmetry_space_group_name_H-M    P1
_symmetry_Int_Tables_number       1
_space_group_crystal_system       triclinic
_cell_length_a                    10.779645
_cell_length_b                    11.060673
_cell_length_c                    9.820735
_cell_angle_alpha                 110.64064
_cell_angle_beta                  97.207746
_cell_angle_gamma                 91.71012
_cell_volume                      1083.64101397

loop_
_atom_site_label
_atom_site_type_symbol
_atom_type_description
_atom_site_fract_x
_atom_site_fract_y
_atom_site_fract_z
_atom_type_partial_charge
C1    C     C_R   0.495347 0.254454 0.441487 0.768423
C2    C     C_R   0.081186 0.622903 0.593036 -0.000502
C3    C     C_R   0.129572 0.509325 0.504663 -0.111280
C4    C     C_R   0.049881 0.404235 0.408697 -0.211001
C5    C     C_R   0.921641 0.407197 0.404629 0.609970
C6    C     C_R   0.871247 0.515530 0.497714 -0.198641
C7    C     C_2   0.491301 0.115456 0.411030 0.432773
C8    C     C_2   0.552267 0.066200 0.505498 0.032871
C9    C     C_2   0.528511 0.884396 0.588817 -0.255441
C10   C     C_2   0.529059 0.928186 0.478106 -0.123821
C11   C     C_2   0.511894 0.516818 0.087261 0.090926
C12   C     C_R   0.262763 0.500640 0.501729 0.797232
C13   C     C_2   0.473504 0.542373 0.946413 0.289524
C14   C     C_R   0.510742 0.745744 0.558440 0.874953
C15   C     C_R   0.737384 0.505961 0.499325 0.938791
C16   C     C_R   0.160962 0.733347 0.680354 -0.215851
C17   C     C_R   0.115212 0.840085 0.779140 0.111244
C18   C     C_R   0.986006 0.844811 0.781629 0.129152
C19   C     C_R   0.903772 0.741148 0.684852 0.555785
C20   C     C_R   0.950165 0.626385 0.592495 -0.124910
Cu1   Cu    Cu3+1 0.521920 0.521810 0.644910 1.133295
Cu2   Cu    Cu3+1 0.478080 0.478190 0.355090 1.074360
H1    H     H_    0.087604 0.318508 0.338006 0.195115
H2    H     H_    0.595854 0.571656 0.157262 0.153950
H3    H     H_    0.260889 0.736289 0.677917 0.173680
H4    H     H_    0.508220 0.861843 0.364578 0.218623
H5    H     H_    0.544883 0.950370 0.702547 0.204167
N1    N     N_2   0.445130 0.445430 0.137370 -0.111964
N2    N     N_2   0.554930 0.554500 0.862630 0.090796
O1    O     O_R   0.511700 0.332330 0.577400 -0.588643
O2    O     O_R   0.474680 0.295500 0.332650 -0.509291
O3    O     O_R   0.338160 0.518420 0.622400 -0.593836
O4    O     O_R   0.301140 0.481590 0.377650 -0.556246
O5    O     O_R   0.525320 0.704500 0.667350 -0.525107
O6    O     O_R   0.488300 0.667670 0.422600 -0.617174
O7    O     O_R   0.698860 0.518410 0.622350 -0.474050
O8    O     O_R   0.661840 0.481580 0.377600 -0.575997
F1    F     F_    0.416343 0.036165 0.287471 -0.627287
I1    I     I_    0.304771 0.634934 0.945130 -0.217704
F2    F     F_    0.669516 0.522659 0.900558 -0.522724
I2    I     I_    0.280670 0.337694 0.016182 -0.104576
I3    I     I_    0.249959 0.983981 0.927395 -0.134154
I4    I     I_    0.910449 0.005938 0.929994 -0.048694
F3    F     F_    0.779465 0.755837 0.681407 -0.660158
F4    F     F_    0.846405 0.301384 0.314002 -0.626670
I5    I     I_    0.693022 0.175022 0.686287 -0.139907

loop_
_geom_bond_atom_site_label_1
_geom_bond_atom_site_label_2
_ccdc_geom_bond_type
C14   O5    A    
C9    C14   S    
Cu1   O5    S    
C6    C20   A    
Cu1   O1    S    
C11   H2    S    
C19   C20   A    
C10   H4    S    
C17   C18   A    
C12   O4    A    
C7    C8    D    
Cu1   O7    S    
Cu2   N1    S    
Cu1   Cu2   S    
C12   O3    A    
Cu2   O6    S    
C11   C13   S    
C16   C17   A    
C5    F4    S    
C11   N1    D    
N2    F2    S    
C13   N2    D    
C1    O1    A    
C7    F1    S    
C2    C3    A    
C5    C6    A    
Cu1   O3    S    
C8    I5    S    
C13   I1    S    
Cu2   O2    S    
C2    C20   A    
C3    C4    A    
C15   O7    A    
C1    O2    A    
C2    C16   A    
C19   F3    S    
C9    H5    S    
C8    C10   S    
C18   C19   A    
C9    C10   D    
C16   H3    S    
Cu2   O4    S    
C4    H1    S    
C17   I3    S    
C15   O8    A    
C3    C12   S    
C1    C7    S    
C6    C15   S    
C18   I4    S    
Cu2   O8    S    
Cu1   N2    S    
C14   O6    A    
N1    I2    S    
C4    C5    A    
