data_mof_unit_68456.cif
_audit_creation_date              2012-12-11T14:31:13-0500
_audit_creation_method            fapswitch 2.2
_symmetry_space_group_name_H-M    P1
_symmetry_Int_Tables_number       1
_space_group_crystal_system       triclinic
_cell_length_a                    8.2343
_cell_length_b                    14.910484
_cell_length_c                    15.064457
_cell_angle_alpha                 96.771665
_cell_angle_beta                  99.4818
_cell_angle_gamma                 97.93414
_cell_volume                      1788.01674116

loop_
_atom_site_label
_atom_site_type_symbol
_atom_type_description
_atom_site_fract_x
_atom_site_fract_y
_atom_site_fract_z
_atom_type_partial_charge
Ba1   Ba    Ba6+2 0.154730 0.543770 0.458180 1.733827
Ba2   Ba    Ba6+2 0.655430 0.456220 0.541750 1.742079
C1    C     C_3   0.421447 0.798090 0.138354 0.293152
C2    C     C_R   0.105968 0.078021 0.546751 -0.037366
C3    C     C_R   0.962267 0.891068 0.535766 -0.038094
C4    C     C_3   0.863060 0.768794 0.153070 0.802637
C5    C     C_R   0.129300 0.923818 0.575895 -0.080860
C6    C     C_R   0.199675 0.014613 0.581625 -0.096739
C7    C     C_R   0.890134 0.797452 0.530207 -0.032119
C8    C     C_R   0.726245 0.768837 0.483998 -0.272520
C9    C     C_R   0.914705 0.203763 0.472490 -0.011093
C10   C     C_R   0.842816 0.110099 0.463785 -0.046306
C11   C     C_R   0.937604 0.047627 0.503563 0.005327
C12   C     C_3   0.401349 0.751284 0.221505 0.470160
C13   C     C_R   0.680224 0.076493 0.415964 -0.035111
C14   C     C_R   0.607242 0.986181 0.414083 -0.107777
C15   C     C_R   0.697531 0.923647 0.454694 -0.050600
C16   C     C_3   0.869420 0.750621 0.051257 0.306521
C17   C     C_R   0.865404 0.954055 0.498341 0.016293
C18   C     C_R   0.627946 0.830571 0.448951 -0.013097
C19   C     C_R   0.078769 0.232214 0.517812 -0.258802
C20   C     C_R   0.237970 0.467754 0.766232 0.183761
C21   C     C_R   0.135199 0.436333 0.825256 -0.039738
C22   C     C_R   0.195212 0.452229 0.919365 -0.198126
C23   C     C_3   0.601351 0.736758 0.672167 0.369542
C24   C     C_R   0.356005 0.503314 0.956190 0.014101
C25   C     C_R   0.445469 0.544481 0.894697 -0.184899
C26   C     C_R   0.387564 0.526230 0.801053 0.040749
C27   C     C_R   0.597548 0.557057 0.089757 -0.103223
C28   C     C_3   0.719073 0.345475 0.264084 0.421876
C29   C     C_R   0.666310 0.571424 0.182468 -0.028122
C30   C     C_R   0.410970 0.489828 0.213267 0.050876
C31   C     C_R   0.339081 0.480203 0.120832 -0.133009
C32   C     C_R   0.429586 0.515410 0.056803 0.035350
C33   C     C_R   0.570853 0.539652 0.244268 -0.248155
C34   C     C_3   0.620557 0.841319 0.686198 -0.382972
C35   C     C_3   0.694766 0.325970 0.160280 0.853158
C36   C     C_3   0.137261 0.774700 0.760762 1.044838
C37   C     C_3   0.033370 0.850583 0.779643 -0.400024
C38   C     C_3   0.184739 0.260160 0.316245 0.684863
C39   C     C_3   0.074887 0.172119 0.262919 0.253658
C40   C     C_3   0.848040 0.325683 0.044355 0.236879
C41   C     C_3   0.077080 0.679641 0.870886 0.176198
C42   C     C_3   0.310071 0.895182 0.045762 0.174504
C43   C     C_3   0.126971 0.121049 0.119911 0.248817
C44   C     C_3   0.718806 0.847847 0.974043 0.143409
C45   C     C_3   0.888743 0.208786 0.729588 0.361520
C46   C     C_3   0.890671 0.885791 0.273245 0.272506
C47   C     C_3   0.863101 0.112514 0.754468 -0.372514
C48   C     C_3   0.415152 0.255386 0.778817 0.357130
C49   C     C_3   0.407378 0.216965 0.867382 -0.370040
C50   C     C_R   0.176396 0.170744 0.552982 0.033051
H1    H     H_    0.304243 0.689338 0.201099 0.042041
H2    H     H_    0.438811 0.746201 0.082693 0.017126
H3    H     H_    0.724240 0.716542 0.667705 -0.032414
H4    H     H_    0.513137 0.710823 0.607148 0.041671
H5    H     H_    0.724707 0.871460 0.655789 0.043612
H6    H     H_    0.507148 0.864096 0.651652 0.131420
H7    H     H_    0.645587 0.869376 0.759604 0.120718
H8    H     H_    0.534897 0.851490 0.157593 0.018919
H9    H     H_    0.796436 0.210784 0.667520 0.089186
H10   H     H_    0.016537 0.223553 0.714828 -0.082440
H11   H     H_    0.735031 0.094918 0.768332 0.138682
H12   H     H_    0.648962 0.385707 0.132494 -0.324670
H13   H     H_    0.880131 0.062466 0.697397 0.075063
H14   H     H_    0.955164 0.107913 0.815883 0.099692
H15   H     H_    0.292886 0.276418 0.755975 -0.095518
H16   H     H_    0.514252 0.316394 0.791702 0.080977
H17   H     H_    0.392575 0.271691 0.920858 0.077758
H18   H     H_    0.523455 0.189410 0.889828 0.134296
H19   H     H_    0.299431 0.160835 0.857378 0.100444
H20   H     H_    0.211071 0.880170 0.602113 0.147451
H21   H     H_    0.329536 0.033613 0.613141 0.104394
H22   H     H_    0.479912 0.966091 0.378683 0.125019
H23   H     H_    0.006229 0.885855 0.719952 0.047998
H24   H     H_    0.606054 0.119134 0.379416 0.111842
H25   H     H_    0.672463 0.697456 0.477730 0.055717
H26   H     H_    0.134736 0.302689 0.520827 0.108457
H27   H     H_    0.680670 0.574230 0.044480 0.060032
H28   H     H_    0.113347 0.424985 0.961696 0.068046
H29   H     H_    0.214837 0.442114 0.100665 0.080781
H30   H     H_    0.733948 0.745108 0.162112 -0.201583
H31   H     H_    0.560107 0.591730 0.917177 0.121192
H32   H     H_    0.626177 0.546746 0.315537 0.058233
H33   H     H_    0.977982 0.794692 0.035418 0.071769
H34   H     H_    0.102705 0.902418 0.837277 0.066130
H35   H     H_    0.893211 0.679847 0.034146 -0.036116
H36   H     H_    0.602511 0.361765 0.284087 -0.099493
H37   H     H_    0.819701 0.405297 0.287957 -0.007465
H38   H     H_    0.465450 0.263928 0.128325 0.274132
H39   H     H_    0.847626 0.398758 0.035902 0.047735
H40   H     H_    0.740267 0.281706 0.998005 0.067529
H41   H     H_    0.962935 0.305373 0.024373 0.023847
H42   H     H_    0.344247 0.859104 0.775856 0.269393
H43   H     H_    0.056000 0.613148 0.825812 0.065199
H44   H     H_    0.956815 0.704765 0.872307 0.030551
H45   H     H_    0.913926 0.822003 0.797478 0.072842
H46   H     H_    0.126624 0.667162 0.940623 0.054906
H47   H     H_    0.368094 0.196959 0.355813 0.327409
H48   H     H_    0.193280 0.920346 0.019713 0.050839
H49   H     H_    0.349846 0.858083 0.986795 0.062996
H50   H     H_    0.405348 0.955805 0.077156 0.047170
H51   H     H_    0.138196 0.192429 0.104077 0.035049
H52   H     H_    0.998537 0.083641 0.092852 0.029195
H53   H     H_    0.214470 0.086429 0.084855 0.053914
H54   H     H_    0.823621 0.867522 0.938566 0.020124
H55   H     H_    0.724562 0.898581 0.035160 0.063043
H56   H     H_    0.102423 0.301912 0.347689 -0.054733
H57   H     H_    0.601790 0.849407 0.926262 0.086535
H58   H     H_    0.765754 0.857431 0.285476 -0.059050
H59   H     H_    0.906929 0.961234 0.290560 0.059929
H60   H     H_    0.989946 0.861311 0.319178 0.097990
H61   H     H_    0.159113 0.375747 0.664020 0.258276
H62   H     H_    0.963962 0.189629 0.219566 0.060310
H63   H     H_    0.025301 0.130921 0.312090 -0.007806
H64   H     H_    0.522447 0.730032 0.247671 -0.171081
O1    O     O_2   0.174080 0.723060 0.553930 -0.439409
O2    O     O_2   0.794172 0.436810 0.819229 -0.503957
O3    O     O_3   0.865792 0.271467 0.802060 -0.616701
O4    O     O_3   0.901570 0.609580 0.550840 -0.444233
O5    O     O_3   0.408220 0.452130 0.390170 -0.462546
O6    O     O_2   0.675490 0.547140 0.721820 -0.468217
O7    O     O_3   0.543362 0.701989 0.745867 -0.599847
O8    O     O_2   0.517192 0.174793 0.550914 -0.479121
O9    O     O_3   0.452654 0.188341 0.714968 -0.618201
O10   O     O_3   0.370350 0.665080 0.388270 -0.486842
O11   O     O_2   0.286001 0.823111 0.448519 -0.487075
O12   O     O_3   0.267361 0.306691 0.256725 -0.654930
O13   O     O_3   0.041592 0.700159 0.698083 -0.625341
O14   O     O_3   0.351589 0.812491 0.286117 -0.563683
O15   O     O_2   0.134790 0.452800 0.278150 -0.458971
O16   O     O_3   0.937650 0.618620 0.340860 -0.467378
O17   O     O_2   0.994197 0.550444 0.181127 -0.492523
O18   O     O_3   0.577288 0.246302 0.127893 -0.725231
O19   O     O_3   0.849618 0.313468 0.135863 -0.663230
O20   O     O_3   0.277660 0.810248 0.727931 -0.746092
O21   O     O_3   0.196692 0.743665 0.844349 -0.669826
O22   O     O_3   0.302191 0.238513 0.385311 -0.737831
O23   O     O_3   0.981549 0.724214 0.201926 -0.608931
O24   O     O_3   0.278294 0.837221 0.110522 -0.609866
O25   O     O_3   0.170145 0.118830 0.214140 -0.628346
O26   O     O_3   0.715869 0.758689 0.997036 -0.680875
O27   O     O_3   0.904759 0.864350 0.181394 -0.656519
O28   O     O_3   0.192859 0.442920 0.673960 -0.684033
O29   O     O_2   0.636200 0.276890 0.446040 -0.430997
O30   O     O_3   0.908720 0.390410 0.449080 -0.482126
O31   O     O_3   0.439930 0.334910 0.611650 -0.445163
O32   O     O_3   0.759177 0.267592 0.300662 -0.660543
O33   O     O_3   0.402060 0.547860 0.609750 -0.412642
O34   O     O_3   0.872630 0.381370 0.659060 -0.450392
P1    P     P_3+3 0.004200 0.709230 0.580350 1.032774
P2    P     P_3+3 0.305000 0.425570 0.290900 1.020911
P3    P     P_3+3 0.890347 0.616969 0.223257 0.936813
P4    P     P_3+3 0.806080 0.290760 0.419570 0.979057
P5    P     P_3+3 0.917231 0.382662 0.777323 0.959256
P6    P     P_3+3 0.409987 0.783586 0.394667 0.973775
P7    P     P_3+3 0.503253 0.582124 0.722704 1.058820
P8    P     P_3+3 0.396058 0.216511 0.605733 0.989525

loop_
_geom_bond_atom_site_label_1
_geom_bond_atom_site_label_2
_ccdc_geom_bond_type
Ba2   O34   S    
C46   H58   S    
C4    H30   S    
C21   P5    S    
C40   H41   S    
C23   H4    S    
C39   H62   S    
C2    C6    A    
Ba1   O16   S    
O3    P5    S    
C45   H10   S    
O15   P2    D    
C5    C6    A    
C44   O26   S    
Ba2   O29   S    
C3    C7    A    
C24   C25   A    
C49   H19   S    
C2    C50   A    
C47   H11   S    
C22   C24   A    
O13   P1    S    
C34   H6    S    
C36   C37   S    
H38   O18   S    
C1    H2    S    
C37   H45   S    
O23   P3    S    
C13   C14   A    
C38   O12   S    
C2    C11   A    
C15   C18   A    
Ba1   P2    S    
Ba1   Ba2   S    
C4    O23   S    
C26   P7    S    
C43   H51   S    
C9    P4    S    
C22   H28   S    
O12   P2    S    
C7    P1    S    
C8    C18   A    
C14   C15   A    
C38   O22   S    
C19   H26   S    
H42   O20   S    
C21   C22   A    
C35   O19   S    
H47   O22   S    
Ba1   O33   S    
C49   H18   S    
C37   H23   S    
C7    C8    A    
Ba1   P1    S    
C40   H40   S    
C38   H56   S    
C1    H8    S    
C34   H7    S    
Ba2   O33   S    
C45   O3    S    
C13   H24   S    
C42   O24   S    
C20   C26   A    
C43   O25   S    
Ba1   O30   S    
O32   P4    S    
C39   H63   S    
C28   H37   S    
O2    P5    D    
C29   P3    S    
C8    H25   S    
C43   H53   S    
C41   H44   S    
Ba2   O6    S    
C50   P8    S    
C4    C16   S    
C16   H33   S    
C47   H14   S    
C11   C17   A    
C30   C33   A    
C16   O26   S    
Ba1   O10   S    
C45   C47   S    
C34   H5    S    
C5    H20   S    
C3    C5    A    
C42   H50   S    
O9    P8    S    
O7    P7    S    
C48   C49   S    
Ba2   O31   S    
C27   C32   A    
C9    C19   A    
C28   C35   S    
O8    P8    D    
C40   O19   S    
Ba1   O4    S    
O30   P4    S    
C36   O13   S    
C39   O25   S    
C43   H52   S    
C41   H43   S    
C30   P2    S    
C10   C13   A    
C9    C10   A    
C44   H55   S    
C46   H59   S    
O16   P3    S    
C27   H27   S    
O1    P1    D    
C48   O9    S    
Ba1   O1    S    
C23   O7    S    
C1    C12   S    
C47   H13   S    
O29   P4    D    
C38   C39   S    
C46   H60   S    
C36   O20   S    
O34   P5    S    
C41   H46   S    
C14   H22   S    
C28   H36   S    
C35   H12   S    
C12   O14   S    
Ba2   O5    S    
O17   P3    D    
O4    P1    S    
Ba2   O4    S    
C18   P6    S    
C24   C32   S    
C35   O18   S    
C23   H3    S    
C42   H49   S    
Ba1   O15   S    
O11   P6    D    
C45   H9    S    
C33   H32   S    
O5    P2    S    
C28   O32   S    
C3    C17   A    
Ba2   O30   S    
C48   H15   S    
C16   H35   S    
H61   O28   S    
C30   C31   A    
C25   H31   S    
C27   C29   A    
C42   H48   S    
C48   H16   S    
C12   H64   S    
C44   H54   S    
C6    H21   S    
C15   C17   A    
C36   O21   S    
C31   C32   A    
C41   O21   S    
C29   C33   A    
Ba1   O5    S    
C23   C34   S    
C12   H1    S    
C10   C11   A    
C46   O27   S    
Ba2   P4    S    
C44   H57   S    
C20   O28   S    
C25   C26   A    
C20   C21   A    
O14   P6    S    
C1    O24   S    
C49   H17   S    
C37   H34   S    
O33   P7    S    
C4    O27   S    
O31   P8    S    
C31   H29   S    
C19   C50   A    
O6    P7    D    
C40   H39   S    
O10   P6    S    
