data_mof_unit_8775.cif
_audit_creation_date              2012-12-10T18:01:44-0500
_audit_creation_method            fapswitch 2.2
_symmetry_space_group_name_H-M    P1
_symmetry_Int_Tables_number       1
_space_group_crystal_system       triclinic
_cell_length_a                    10.91465
_cell_length_b                    9.618204
_cell_length_c                    19.522413
_cell_angle_alpha                 90.704888
_cell_angle_beta                  93.515801
_cell_angle_gamma                 89.365317
_cell_volume                      2045.32841137

loop_
_atom_site_label
_atom_site_type_symbol
_atom_type_description
_atom_site_fract_x
_atom_site_fract_y
_atom_site_fract_z
_atom_type_partial_charge
C1    C     C_R   0.262887 0.501662 0.505066 0.829890
C2    C     C_R   0.737113 0.498338 0.494933 0.829911
C3    C     C_R   0.497609 0.497591 0.930736 0.408745
C4    C     C_R   0.502393 0.502406 0.069263 0.408746
C5    C     C_R   0.504277 0.499274 0.367333 0.788771
C6    C     C_R   0.495721 0.500726 0.632667 0.788775
C7    C     C_R   0.066384 0.381451 0.523573 -0.080193
C8    C     C_R   0.933614 0.618549 0.476420 -0.080181
C9    C     C_R   0.940409 0.371639 0.506211 -0.101796
C10   C     C_R   0.059589 0.628360 0.493782 -0.101788
C11   C     C_R   0.871722 0.494034 0.489077 -0.046806
C12   C     C_R   0.128276 0.505965 0.510918 -0.046812
C13   C     C_R   0.415884 0.074379 0.458969 0.092112
C14   C     C_R   0.584113 0.925621 0.541031 0.092114
C15   C     C_R   0.579433 0.074360 0.544116 0.115214
C16   C     C_R   0.420565 0.925639 0.455884 0.115218
C17   C     C_R   0.535727 0.622932 0.254912 -0.085254
C18   C     C_R   0.464269 0.377068 0.745087 -0.085260
C19   C     C_R   0.504335 0.626620 0.748792 -0.080950
C20   C     C_R   0.495659 0.373380 0.251207 -0.080945
C21   C     C_R   0.532418 0.623859 0.182666 -0.071502
C22   C     C_R   0.467581 0.376139 0.817334 -0.071503
C23   C     C_R   0.511231 0.623716 0.820982 -0.064994
C24   C     C_R   0.488767 0.376282 0.179017 -0.064995
C25   C     C_R   0.506265 0.501430 0.144798 -0.036817
C26   C     C_R   0.493737 0.498568 0.855201 -0.036816
C27   C     C_R   0.511751 0.498382 0.290506 -0.129853
C28   C     C_R   0.488245 0.501618 0.709494 -0.129859
Cu1   Cu    Cu3+1 0.500000 0.640660 0.500000 0.984695
Cu2   Cu    Cu3+1 0.500000 0.359340 0.500000 0.984696
N1    N     N_R   0.500000 0.852070 0.500000 -0.260126
N2    N     N_R   0.500000 0.147930 0.500000 -0.260126
N3    N     N_R   0.401714 0.456569 0.031863 -0.200815
N4    N     N_R   0.598288 0.543428 0.968136 -0.200814
N5    N     N_R   0.399257 0.454483 0.963682 -0.199496
N6    N     N_R   0.600745 0.545514 0.036317 -0.199494
O1    O     O_R   0.319640 0.618740 0.500000 -0.590035
O2    O     O_R   0.680360 0.381260 0.500000 -0.590028
O3    O     O_R   0.680360 0.618740 0.500000 -0.591706
O4    O     O_R   0.319640 0.381260 0.500000 -0.591726
O5    O     O_R   0.499980 0.618820 0.400140 -0.593891
O6    O     O_R   0.500020 0.381180 0.599860 -0.593879
O7    O     O_R   0.500020 0.618820 0.599860 -0.597101
O8    O     O_R   0.499980 0.381180 0.400140 -0.597101
C29   C     C_2   0.130412 0.264309 0.560221 0.425590
H1    H     H_    0.112442 0.157153 0.545258 0.117347
O9    O     O_2   0.200711 0.287671 0.609869 -0.528596
C30   C     C_2   0.869587 0.735692 0.439767 0.425603
H2    H     H_    0.887567 0.842855 0.454725 0.117341
O10   O     O_2   0.799277 0.712320 0.390123 -0.528591
C31   C     C_2   0.884813 0.231120 0.503532 0.374080
H3    H     H_    0.897876 0.161919 0.546881 0.081517
O11   O     O_2   0.828845 0.189511 0.451309 -0.485521
C32   C     C_2   0.115184 0.768881 0.496459 0.374073
H4    H     H_    0.102131 0.838076 0.453102 0.081518
O12   O     O_2   0.171142 0.810500 0.548685 -0.485512
C33   C     C_1   0.571536 0.749950 0.291109 0.404342
N7    N     N_1   0.601003 0.851721 0.319374 -0.170858
C34   C     C_1   0.428452 0.250053 0.708889 0.404371
N8    N     N_1   0.398978 0.148285 0.680624 -0.170831
C35   C     C_1   0.505420 0.761388 0.716876 0.303418
N9    N     N_1   0.504667 0.870142 0.692403 -0.214236
C36   C     C_1   0.494561 0.238611 0.283123 0.303422
N10   N     N_1   0.495303 0.129857 0.307595 -0.214257
C37   C     C_1   0.554344 0.752129 0.147009 0.294726
N11   N     N_1   0.572141 0.854076 0.118550 -0.198747
C38   C     C_1   0.445656 0.247869 0.852989 0.294728
N12   N     N_1   0.427860 0.145922 0.881449 -0.198748
C39   C     C_1   0.532463 0.751404 0.860382 0.298606
N13   N     N_1   0.549698 0.852770 0.891867 -0.195599
C40   C     C_1   0.467535 0.248595 0.139617 0.298608
N14   N     N_1   0.450300 0.147229 0.108133 -0.195600
C41   C     C_2   0.312472 0.148353 0.421686 0.485843
H5    H     H_    0.326104 0.242544 0.394112 0.103485
O13   O     O_2   0.208077 0.104078 0.422034 -0.574917
C42   C     C_2   0.687526 0.851652 0.578316 0.485814
H6    H     H_    0.673887 0.757470 0.605901 0.103472
O14   O     O_2   0.791931 0.895918 0.577954 -0.574927
C43   C     C_2   0.652685 0.147691 0.600322 0.433239
H7    H     H_    0.689122 0.249344 0.594463 0.098846
O15   O     O_2   0.671377 0.094863 0.656606 -0.540699
C44   C     C_2   0.347306 0.852305 0.399681 0.433242
H8    H     H_    0.310897 0.750645 0.405534 0.098870
O16   O     O_2   0.328564 0.905141 0.343409 -0.540688

loop_
_geom_bond_atom_site_label_1
_geom_bond_atom_site_label_2
_ccdc_geom_bond_type
C4    N6    A    
C6    C28   S    
C41   H5    S    
C23   C39   S    
C13   N2    A    
C9    C31   S    
C14   N1    A    
C4    C25   S    
C15   N2    A    
C29   H1    S    
C16   N1    A    
C7    C29   S    
C42   O14   D    
Cu2   O2    S    
C23   C26   A    
C5    O5    A    
C1    O4    A    
C32   H4    S    
C2    O3    A    
C15   C43   S    
C20   C24   A    
C1    O1    A    
C21   C37   S    
C30   O10   D    
C34   N8    T    
C5    C27   S    
Cu1   O7    S    
C41   O13   D    
Cu2   O8    S    
C39   N13   T    
C1    C12   S    
C2    C11   S    
C29   O9    D    
C7    C12   A    
C32   O12   D    
C38   N12   T    
C17   C27   A    
C18   C28   A    
C42   H6    S    
C43   O15   D    
C3    N4    A    
C17   C21   A    
C36   N10   T    
C31   O11   D    
C14   C42   S    
C19   C23   A    
C8    C30   S    
Cu1   Cu2   S    
C2    O2    A    
C3    N5    A    
Cu1   O3    S    
C16   C44   S    
Cu2   O4    S    
C24   C25   A    
C19   C28   A    
C9    C11   A    
C10   C12   A    
C30   H2    S    
C5    O8    A    
C13   C41   S    
C44   H8    S    
C44   O16   D    
C6    O7    A    
C22   C26   A    
C7    C9    A    
C21   C25   A    
C4    N3    A    
Cu1   O5    S    
C18   C22   A    
C3    C26   S    
C20   C27   A    
C20   C36   S    
C31   H3    S    
Cu1   N1    S    
Cu2   N2    S    
C33   N7    T    
C19   C35   S    
C8    C11   A    
N3    N5    A    
N4    N6    A    
C35   N9    T    
C10   C32   S    
C22   C38   S    
C43   H7    S    
C18   C34   S    
C40   N14   T    
C8    C10   A    
C37   N11   T    
C6    O6    A    
C13   C16   A    
Cu1   O1    S    
C14   C15   A    
Cu2   O6    S    
C24   C40   S    
C17   C33   S    
