data_mof_unit_30792.cif
_audit_creation_date              2012-12-11T14:58:31-0500
_audit_creation_method            fapswitch 2.2
_symmetry_space_group_name_H-M    P1
_symmetry_Int_Tables_number       1
_space_group_crystal_system       triclinic
_cell_length_a                    11.032864
_cell_length_b                    10.905524
_cell_length_c                    18.787776
_cell_angle_alpha                 90.480674
_cell_angle_beta                  90.883231
_cell_angle_gamma                 59.466893
_cell_volume                      1946.84310772

loop_
_atom_site_label
_atom_site_type_symbol
_atom_type_description
_atom_site_fract_x
_atom_site_fract_y
_atom_site_fract_z
_atom_type_partial_charge
C1    C     C_R   0.356396 0.772921 0.397615 0.527211
C2    C     C_R   0.591401 0.078138 0.179635 0.057318
C3    C     C_R   0.327609 0.281274 0.175415 -0.008910
C4    C     C_R   0.457835 0.202589 0.284858 -0.157769
C5    C     C_R   0.455139 0.187708 0.212401 -0.040514
C6    C     C_R   0.047610 0.526951 0.383160 -0.040629
C7    C     C_R   0.967399 0.647129 0.425415 -0.094367
C8    C     C_R   0.615724 0.943059 0.159968 -0.062469
C9    C     C_R   0.744318 0.839263 0.132226 -0.124101
C10   C     C_R   0.212063 0.390299 0.211936 -0.173853
C11   C     C_R   0.220736 0.412025 0.284211 -0.035991
C12   C     C_R   0.382205 0.349596 0.390454 0.533747
C13   C     C_R   0.934342 0.781912 0.401457 -0.108849
C14   C     C_R   0.980196 0.796734 0.334869 -0.094032
C15   C     C_R   0.064611 0.676322 0.293667 -0.095634
C16   C     C_R   0.104026 0.539805 0.318862 0.041783
C17   C     C_R   0.346827 0.317964 0.320586 -0.000638
C18   C     C_R   0.926839 0.210673 0.307510 -0.162029
C19   C     C_R   0.977778 0.187157 0.238045 -0.159337
C20   C     C_R   0.947219 0.303228 0.194083 -0.002696
C21   C     C_R   0.874485 0.440381 0.221603 -0.121054
C22   C     C_R   0.806720 0.466110 0.285290 0.006682
C23   C     C_R   0.775311 0.380355 0.401766 0.531971
C24   C     C_R   0.838158 0.350314 0.331122 0.028223
C25   C     C_R   0.327943 0.936761 0.300377 -0.162175
C26   C     C_R   0.321507 0.961546 0.227897 -0.168811
C27   C     C_R   0.341967 0.855525 0.178310 0.022588
C28   C     C_R   0.354716 0.727257 0.201361 -0.014568
C29   C     C_R   0.352925 0.706588 0.274273 -0.125509
C30   C     C_R   0.345142 0.808480 0.323297 0.016262
C31   C     C_R   0.381801 0.198291 0.693391 -0.138888
C32   C     C_R   0.369019 0.185043 0.765269 -0.122308
C33   C     C_R   0.296917 0.306923 0.808429 0.028696
C34   C     C_R   0.345457 0.768040 0.604920 0.546168
C35   C     C_R   0.226919 0.442153 0.778187 -0.158324
C36   C     C_R   0.238506 0.455556 0.705640 -0.134453
C37   C     C_R   0.321881 0.333554 0.663906 0.030176
C38   C     C_R   0.907388 0.393190 0.707706 -0.129986
C39   C     C_R   0.944672 0.374677 0.779035 -0.131883
C40   C     C_R   0.921427 0.283093 0.820784 0.023622
C41   C     C_R   0.870413 0.201005 0.788990 -0.134267
C42   C     C_R   0.830908 0.220968 0.717234 -0.137114
C43   C     C_R   0.843277 0.322336 0.677248 0.026553
C44   C     C_R   0.196611 0.849951 0.710781 -0.136910
C45   C     C_R   0.369262 0.350377 0.595410 0.545051
C46   C     C_R   0.185939 0.860514 0.783908 -0.137606
C47   C     C_R   0.300299 0.842488 0.825465 0.033649
C48   C     C_R   0.427305 0.808658 0.793225 -0.139316
C49   C     C_R   0.438677 0.796325 0.719941 -0.141514
C50   C     C_R   0.323565 0.815952 0.678307 0.029577
C51   C     C_R   0.977383 0.287773 0.117981 0.535354
C52   C     C_R   0.305511 0.258303 0.101572 0.544095
C53   C     C_R   0.306828 0.899920 0.105200 0.518250
C54   C     C_R   0.948650 0.279805 0.897173 0.573511
C55   C     C_R   0.292194 0.285398 0.883831 0.551167
C56   C     C_R   0.768564 0.373318 0.609309 0.549246
C57   C     C_R   0.275246 0.893633 0.898135 0.539020
C58   C     C_R   0.853783 0.866650 0.126277 -0.119121
C59   C     C_R   0.834134 0.997659 0.148357 -0.107876
C60   C     C_R   0.704555 0.102648 0.175458 -0.094372
Cr1   Cr    Cr6+3 0.601770 0.606860 0.505860 0.988166
Cr2   Cr    Cr6+3 0.291380 0.601660 0.495070 1.013361
Cr3   Cr    Cr6+3 0.606880 0.291510 0.499120 1.002228
Cr4   Cr    Cr6+3 0.062440 0.063090 0.008210 0.996878
Cr5   Cr    Cr6+3 0.062880 0.375170 0.998920 0.991749
Cr6   Cr    Cr6+3 0.374700 0.061720 0.992470 1.009325
H1    H     H_    0.554858 0.128354 0.312345 0.146519
H2    H     H_    0.870888 0.875015 0.433823 0.098844
H3    H     H_    0.952257 0.901132 0.315575 0.109319
H4    H     H_    0.103797 0.689494 0.243670 0.101740
H5    H     H_    0.952181 0.121055 0.341621 0.119624
H6    H     H_    0.039318 0.079398 0.218724 0.132082
H7    H     H_    0.851408 0.531596 0.189292 0.132660
H8    H     H_    0.316004 0.017897 0.337989 0.117753
H9    H     H_    0.295192 0.065804 0.209967 0.111111
H10   H     H_    0.759276 0.737097 0.116093 0.117356
H11   H     H_    0.364312 0.607549 0.293271 0.133827
H12   H     H_    0.444828 0.103623 0.661791 0.122210
H13   H     H_    0.418962 0.078765 0.787422 0.140365
H14   H     H_    0.167984 0.536334 0.810692 0.119207
H15   H     H_    0.191078 0.561705 0.683462 0.139794
H16   H     H_    0.920192 0.470205 0.677695 0.128979
H17   H     H_    0.985351 0.437571 0.802560 0.134567
H18   H     H_    0.853857 0.127808 0.820135 0.130695
H19   H     H_    0.782175 0.164572 0.694570 0.131344
H20   H     H_    0.106681 0.863909 0.679924 0.127504
H21   H     H_    0.929859 0.635929 0.476452 0.101321
H22   H     H_    0.086003 0.889054 0.807463 0.127959
H23   H     H_    0.516224 0.796219 0.824487 0.130728
H24   H     H_    0.538788 0.767018 0.696297 0.136047
H25   H     H_    0.954329 0.785853 0.105599 0.113720
H26   H     H_    0.920489 0.016200 0.144793 0.156850
H27   H     H_    0.694156 0.201099 0.194446 0.114922
H28   H     H_    0.075186 0.422889 0.403089 0.102024
H29   H     H_    0.537620 0.915486 0.167096 0.129683
H30   H     H_    0.115043 0.461627 0.183813 0.133126
O1    O     O_R   0.748800 0.497470 0.428000 -0.531819
O2    O     O_R   0.300070 0.471040 0.567100 -0.511106
O3    O     O_R   0.491670 0.258900 0.574910 -0.522123
O4    O     O_R   0.718780 0.304180 0.577850 -0.502757
O5    O     O_3   0.500010 0.500010 0.500020 -0.242355
O6    O     O_R   0.186690 0.923650 0.086970 -0.539923
O7    O     O_R   0.957250 0.194250 0.084630 -0.497305
O8    O     O_R   0.934970 0.407490 0.085330 -0.534077
O9    O     O_R   0.203780 0.365190 0.067090 -0.520287
O10   O     O_R   0.417600 0.174890 0.067840 -0.492565
O11   O     O_R   0.375320 0.946260 0.070860 -0.523380
O12   O     O_R   0.476420 0.724060 0.429470 -0.517632
O13   O     O_R   0.160600 0.919630 0.926660 -0.530453
O14   O     O_R   0.933060 0.190520 0.936020 -0.489607
O15   O     O_R   0.908880 0.403460 0.925020 -0.508599
O16   O     O_R   0.179600 0.361450 0.918490 -0.522586
O17   O     O_R   0.391510 0.170860 0.907530 -0.512417
O18   O     O_R   0.351130 0.942530 0.922260 -0.508376
O19   O     O_3   0.166667 0.166667 0.999870 -0.305982
O20   O     O_R   0.264580 0.744340 0.416750 -0.503797
O21   O     O_R   0.309380 0.472470 0.418200 -0.491045
O22   O     O_R   0.501710 0.260430 0.414300 -0.536069
O23   O     O_R   0.728090 0.305600 0.428960 -0.505504
O24   O     O_R   0.738760 0.495930 0.588610 -0.527671
O25   O     O_R   0.467110 0.722640 0.578360 -0.505280
O26   O     O_R   0.254530 0.742800 0.577360 -0.528167
C61   C     C_3   0.675986 0.610707 0.290812 -0.257752
C62   C     C_3   0.702783 0.728155 0.314982 -0.403678
H31   H     H_    0.609241 0.833630 0.303482 0.135373
H32   H     H_    0.721056 0.722134 0.373096 0.192158
H33   H     H_    0.792206 0.721321 0.285672 0.161350
H34   H     H_    0.623439 0.641849 0.237821 0.135809
H35   H     H_    0.601936 0.602753 0.325552 0.187637
C63   C     C_3   0.370295 0.611875 0.150317 -0.277627
C64   C     C_3   0.519212 0.484097 0.153208 -0.433717
H36   H     H_    0.595518 0.514749 0.135040 0.166174
H37   H     H_    0.546961 0.442168 0.208352 0.144376
H38   H     H_    0.525950 0.399311 0.117474 0.174203
H39   H     H_    0.294625 0.577784 0.164233 0.150835
H40   H     H_    0.346751 0.649099 0.094366 0.170109

loop_
_geom_bond_atom_site_label_1
_geom_bond_atom_site_label_2
_ccdc_geom_bond_type
C33   C55   S    
Cr4   O7    S    
Cr6   O17   S    
C55   O16   A    
C56   O24   A    
C41   C42   A    
C35   C36   A    
Cr6   O11   S    
Cr3   O5    S    
C64   H38   S    
C61   H34   S    
C61   C62   S    
Cr4   O6    S    
C26   C27   A    
Cr3   O4    S    
C18   C24   A    
C36   C37   A    
C9    C58   A    
C20   C51   S    
C45   O2    A    
C23   O23   A    
C38   C39   A    
C2    C60   A    
C51   O7    A    
C15   C16   A    
C21   H7    S    
C35   H14   S    
C18   H5    S    
C54   O14   A    
Cr1   O25   S    
C25   H8    S    
Cr1   O12   S    
Cr5   O15   S    
Cr2   O21   S    
Cr3   O3    S    
Cr2   O2    S    
C57   O13   A    
C47   C48   A    
C8    C9    A    
C6    H28   S    
C12   C17   S    
C23   C24   S    
C9    H10   S    
C58   H25   S    
C36   H15   S    
Cr2   O5    S    
C60   H27   S    
C52   O10   A    
C59   C60   A    
C34   O26   A    
Cr4   O19   S    
C21   C22   A    
C61   H35   S    
Cr1   O24   S    
Cr5   O19   S    
C19   H6    S    
C8    H29   S    
Cr6   O10   S    
C44   H20   S    
Cr5   O9    S    
C44   C46   A    
C46   H22   S    
Cr1   O1    S    
C34   C50   S    
Cr6   O19   S    
C22   C61   S    
C45   O3    A    
C39   C40   A    
Cr3   O22   S    
C18   C19   A    
C55   O17   A    
C3    C5    A    
C51   O8    A    
C41   H18   S    
C31   C37   A    
Cr1   O5    S    
Cr5   O16   S    
Cr2   O20   S    
C29   C30   A    
C47   C57   S    
Cr3   O23   S    
C11   C16   S    
C53   O11   A    
Cr4   O14   S    
C31   C32   A    
C10   H30   S    
C53   O6    A    
C26   H9    S    
C29   H11   S    
C42   H19   S    
C57   O18   A    
C62   H33   S    
C12   O22   A    
C4    C17   A    
C40   C41   A    
C1    O20   A    
C63   H39   S    
C52   O9    A    
C34   O25   A    
C40   C54   S    
C48   H23   S    
C14   H3    S    
C22   C24   A    
C58   C59   A    
C2    C5    S    
C42   C43   A    
C56   O4    A    
C37   C45   S    
C64   H36   S    
Cr2   O26   S    
C31   H12   S    
C62   H32   S    
C44   C50   A    
C25   C30   A    
C15   H4    S    
C46   C47   A    
C28   C29   A    
Cr6   O18   S    
C23   O1    A    
C63   H40   S    
C4    C5    A    
C64   H37   S    
C11   C17   A    
C4    H1    S    
C3    C52   S    
C27   C53   S    
C6    C7    A    
C32   C33   A    
C19   C20   A    
C63   C64   S    
C25   C26   A    
C39   H17   S    
C38   C43   A    
C3    C10   A    
C32   H13   S    
Cr4   O13   S    
C48   C49   A    
C1    C30   S    
C33   C35   A    
C54   O15   A    
C28   C63   S    
C59   H26   S    
C10   C11   A    
C1    O12   A    
C6    C16   A    
C12   O21   A    
C43   C56   S    
C7    C13   A    
C7    H21   S    
C20   C21   A    
C49   C50   A    
C2    C8    A    
C27   C28   A    
C14   C15   A    
Cr5   O8    S    
C13   C14   A    
C49   H24   S    
C38   H16   S    
C62   H31   S    
C13   H2    S    
