data_mof_unit_38198.cif
_audit_creation_date              2012-10-26T18:47:33-0400
_audit_creation_method            fapswitch 2.2
_symmetry_space_group_name_H-M    P1
_symmetry_Int_Tables_number       1
_space_group_crystal_system       triclinic
_cell_length_a                    10.883208
_cell_length_b                    12.929157
_cell_length_c                    11.845511
_cell_angle_alpha                 98.634876
_cell_angle_beta                  95.062934
_cell_angle_gamma                 95.453851
_cell_volume                      1631.51333626

loop_
_atom_site_label
_atom_site_type_symbol
_atom_type_description
_atom_site_fract_x
_atom_site_fract_y
_atom_site_fract_z
_atom_type_partial_charge
C1    C     C_R   0.497830 0.299624 0.479168 0.553725
C2    C     C_R   0.590414 0.985716 0.636374 -0.102174
C3    C     C_R   0.422777 0.123082 0.371278 -0.120472
C4    C     C_R   0.577223 0.876918 0.628721 -0.120472
C5    C     C_R   0.548717 0.140429 0.554441 -0.080242
C6    C     C_R   0.451283 0.859571 0.445559 -0.080242
C7    C     C_R   0.535235 0.031784 0.548029 0.052090
C8    C     C_R   0.464765 0.968216 0.451970 0.052090
C9    C     C_R   0.431841 0.370547 0.027108 -0.122710
C10   C     C_R   0.568159 0.629453 0.972891 -0.122710
C11   C     C_R   0.426652 0.388389 0.145571 -0.001512
C12   C     C_R   0.502170 0.700376 0.520832 0.553726
C13   C     C_R   0.573348 0.611611 0.854429 -0.001511
C14   C     C_R   0.536962 0.558581 0.156081 0.375367
C15   C     C_R   0.463037 0.441419 0.843919 0.375365
C16   C     C_R   0.262420 0.500727 0.498424 0.561125
C17   C     C_R   0.737580 0.499273 0.501576 0.561125
C18   C     C_R   0.526164 0.547821 0.032826 -0.046432
C19   C     C_R   0.473836 0.452179 0.967174 -0.046433
C20   C     C_R   0.173341 0.550146 0.118882 -0.126740
C21   C     C_R   0.826659 0.449854 0.881118 -0.126743
C22   C     C_R   0.148622 0.561140 0.233643 -0.025684
C23   C     C_R   0.871738 0.498574 0.504178 0.000480
C24   C     C_R   0.851378 0.438860 0.766357 -0.025686
C25   C     C_R   0.089315 0.475924 0.275975 0.001625
C26   C     C_R   0.910685 0.524076 0.724025 0.001626
C27   C     C_R   0.054841 0.380104 0.202234 -0.102602
C28   C     C_R   0.945158 0.619896 0.797766 -0.102602
C29   C     C_R   0.077250 0.369540 0.086775 0.261700
C30   C     C_R   0.922749 0.630460 0.913225 0.261701
C31   C     C_R   0.136197 0.455215 0.045190 -0.092038
C32   C     C_R   0.863803 0.544785 0.954810 -0.092037
C33   C     C_R   0.921642 0.488066 0.398662 -0.116309
C34   C     C_R   0.128262 0.501426 0.495822 0.000480
C35   C     C_R   0.078358 0.511934 0.601338 -0.116309
C36   C     C_R   0.951598 0.510411 0.607350 -0.031975
C37   C     C_R   0.048402 0.489589 0.392649 -0.031976
C38   C     C_R   0.509141 0.813919 0.532579 0.008747
C39   C     C_R   0.490859 0.186081 0.467420 0.008746
C40   C     C_R   0.409586 0.014284 0.363626 -0.102174
Cu1   Cu    Cu3+1 0.509250 0.507730 0.615930 1.033415
Cu2   Cu    Cu3+1 0.490750 0.492270 0.384070 1.033415
H1    H     H_    0.152284 0.449425 0.955884 0.192562
H2    H     H_    0.826131 0.363815 0.710997 0.137285
H3    H     H_    0.007771 0.314593 0.234406 0.155065
H4    H     H_    0.992228 0.685408 0.765593 0.155065
H5    H     H_    0.861672 0.479092 0.318839 0.172075
H6    H     H_    0.138328 0.520908 0.681161 0.172075
H7    H     H_    0.396223 0.810448 0.372825 0.144416
H8    H     H_    0.603777 0.189552 0.627175 0.144415
H9    H     H_    0.622502 0.841926 0.696501 0.141564
H10   H     H_    0.377498 0.158074 0.303499 0.141564
H11   H     H_    0.355758 0.966412 0.289467 0.145658
H12   H     H_    0.847716 0.550576 0.044116 0.192562
H13   H     H_    0.644242 0.033588 0.710533 0.145656
H14   H     H_    0.251876 0.254379 0.611736 0.357620
H15   H     H_    0.748125 0.745621 0.388263 0.357619
H16   H     H_    0.973819 0.198106 0.814694 0.374967
H17   H     H_    0.026160 0.801898 0.185308 0.374974
H18   H     H_    0.612234 0.674518 0.813321 0.151772
H19   H     H_    0.387766 0.325482 0.186679 0.151772
H20   H     H_    0.403584 0.290977 0.984989 0.220791
H21   H     H_    0.596416 0.709023 0.015011 0.220793
H22   H     H_    0.218832 0.616034 0.086327 0.162847
H23   H     H_    0.781169 0.383966 0.913673 0.162845
H24   H     H_    0.173870 0.636185 0.289003 0.137288
N1    N     N_R   0.523180 0.519350 0.790130 -0.257289
N2    N     N_R   0.476820 0.480650 0.209870 -0.257289
O1    O     O_R   0.506570 0.354460 0.582000 -0.432820
O2    O     O_2   0.253878 0.309770 0.837785 -0.270485
O3    O     O_3   0.294175 0.326585 0.636498 -0.489916
O4    O     O_2   0.746122 0.690230 0.162215 -0.270493
O5    O     O_2   0.566241 0.766049 0.232453 -0.322835
O6    O     O_3   0.705825 0.673415 0.363503 -0.489917
O7    O     O_2   0.132711 0.179375 0.002559 -0.226571
O8    O     O_2   0.915353 0.196326 0.033409 -0.276450
O9    O     O_3   0.000953 0.268964 0.859251 -0.514730
O10   O     O_2   0.084643 0.803678 0.966589 -0.276440
O11   O     O_2   0.867284 0.820624 0.997441 -0.226580
O12   O     O_R   0.493430 0.645540 0.418000 -0.432820
O13   O     O_3   0.999048 0.731037 0.140748 -0.514735
O14   O     O_R   0.490940 0.341410 0.386200 -0.533157
O15   O     O_R   0.509060 0.658590 0.613800 -0.533157
O16   O     O_R   0.327460 0.506540 0.597900 -0.449198
O17   O     O_R   0.672540 0.493460 0.402100 -0.449198
O18   O     O_R   0.311830 0.493480 0.402100 -0.518179
O19   O     O_R   0.688170 0.506520 0.597900 -0.518178
O20   O     O_2   0.433759 0.233951 0.767547 -0.322836
S1    S     S_3+6 0.361357 0.327384 0.769396 0.027255
S2    S     S_3+6 0.638643 0.672616 0.230604 0.027253
S3    S     S_3+6 0.030306 0.249081 0.995556 0.028375
S4    S     S_3+6 0.969691 0.750920 0.004443 0.028375

loop_
_geom_bond_atom_site_label_1
_geom_bond_atom_site_label_2
_ccdc_geom_bond_type
C16   O18   A    
Cu2   O12   S    
C27   C29   A    
C34   C37   A    
Cu1   Cu2   S    
C14   C18   A    
C35   C36   A    
Cu2   O14   S    
C10   H21   S    
C7    C8    A    
Cu1   N1    S    
C13   H18   S    
C15   C19   A    
C28   H4    S    
C17   C23   S    
C31   H1    S    
C17   O17   A    
C24   C26   A    
O5    S2    D    
C18   C19   A    
C2    H13   S    
Cu1   O15   S    
C16   O16   A    
C34   C35   A    
C14   S2    S    
H16   O9    S    
C16   C34   S    
O13   S4    S    
C9    C19   A    
C22   H24   S    
C2    C7    A    
C23   C33   A    
C22   C25   A    
C6    C38   A    
Cu2   O18   S    
O7    S3    D    
C25   C37   S    
C27   H3    S    
C3    C39   A    
Cu2   N2    S    
C35   H6    S    
C32   H12   S    
Cu1   O19   S    
C21   C32   A    
C4    H9    S    
C9    H20   S    
C30   S4    S    
C5    C7    A    
C6    C8    A    
O10   S4    D    
C1    O14   A    
Cu1   O16   S    
C1    O1    A    
C12   O15   A    
H15   O6    S    
C20   H22   S    
C2    C4    A    
C15   S1    S    
O4    S2    D    
O3    S1    S    
H14   O3    S    
C15   N1    A    
Cu2   O17   S    
C9    C11   A    
O11   S4    D    
C26   C36   S    
C4    C38   A    
C3    C40   A    
C23   C36   A    
C5    C39   A    
C24   H2    S    
C5    H8    S    
O2    S1    D    
C29   S3    S    
C11   N2    A    
Cu1   O1    S    
C13   N1    A    
O9    S3    S    
C21   H23   S    
C17   O19   A    
H17   O13   S    
C20   C22   A    
C11   H19   S    
C10   C13   A    
C3    H10   S    
C25   C27   A    
C26   C28   A    
O6    S2    S    
C28   C30   A    
C29   C31   A    
C30   C32   A    
C10   C18   A    
C33   H5    S    
C12   O12   A    
C6    H7    S    
C12   C38   S    
C33   C37   A    
C1    C39   S    
O8    S3    D    
O20   S1    D    
C40   H11   S    
C21   C24   A    
C14   N2    A    
C8    C40   A    
C20   C31   A    
