data_mof_unit_16080.cif
_audit_creation_date              2012-12-10T16:50:57-0500
_audit_creation_method            fapswitch 2.2
_symmetry_space_group_name_H-M    P1
_symmetry_Int_Tables_number       1
_space_group_crystal_system       triclinic
_cell_length_a                    8.094764
_cell_length_b                    8.539874
_cell_length_c                    10.575485
_cell_angle_alpha                 92.717487
_cell_angle_beta                  87.701707
_cell_angle_gamma                 92.420745
_cell_volume                      729.059278636

loop_
_atom_site_label
_atom_site_type_symbol
_atom_type_description
_atom_site_fract_x
_atom_site_fract_y
_atom_site_fract_z
_atom_type_partial_charge
C1    C     C_R   0.543644 0.792815 0.497358 0.926475
C2    C     C_R   0.934790 0.507007 0.075350 -0.073924
C3    C     C_R   0.069684 0.597763 0.031995 -0.144295
C4    C     C_R   0.930316 0.402237 0.968005 -0.144295
C5    C     C_R   0.208422 0.607494 0.107034 -0.222737
C6    C     C_R   0.791578 0.392506 0.892966 -0.222737
C7    C     C_R   0.351638 0.534876 0.062887 0.095214
C8    C     C_R   0.648362 0.465124 0.937113 0.095214
C9    C     C_R   0.353432 0.458206 0.943247 0.093655
C10   C     C_R   0.646568 0.541794 0.056753 0.093655
C11   C     C_R   0.497972 0.552118 0.126894 -0.234615
C12   C     C_R   0.456356 0.207185 0.502641 0.926476
C13   C     C_R   0.502028 0.447882 0.873106 -0.234615
C14   C     C_2   0.012919 0.333696 0.387576 0.528092
C15   C     C_2   0.987081 0.666304 0.612424 0.528092
C16   C     C_2   0.566271 0.956544 0.495889 -0.359724
C17   C     C_2   0.433729 0.043456 0.504111 -0.359724
C18   C     C_R   0.501048 0.480266 0.738073 0.865641
C19   C     C_R   0.498952 0.519734 0.261927 0.865641
C20   C     C_R   0.204395 0.410040 0.890841 -0.186527
C21   C     C_R   0.795605 0.589960 0.109159 -0.186527
C22   C     C_R   0.065210 0.492993 0.924650 -0.073925
H1    H     H_    0.959048 0.282074 0.987000 0.170111
H2    H     H_    0.307486 0.994978 0.511971 0.217517
H3    H     H_    0.139838 0.331007 0.355602 0.106798
H4    H     H_    0.860162 0.668993 0.644398 0.106798
H5    H     H_    0.040951 0.717926 0.013000 0.170111
H6    H     H_    0.199778 0.326210 0.810385 0.162157
H7    H     H_    0.800222 0.673790 0.189615 0.162157
H8    H     H_    0.038798 0.553443 0.839815 0.180978
H9    H     H_    0.961201 0.446557 0.160185 0.180978
H10   H     H_    0.209307 0.687426 0.189813 0.168141
H11   H     H_    0.790693 0.312574 0.810187 0.168141
H12   H     H_    0.692514 0.005022 0.488029 0.217516
N1    N     N_2   0.950330 0.457950 0.466250 -0.171483
N2    N     N_2   0.049670 0.542050 0.533750 -0.171483
O1    O     O_R   0.389250 0.738570 0.508280 -0.561349
O2    O     O_2   0.081566 0.771269 0.650879 -0.596351
O3    O     O_R   0.610750 0.261430 0.491720 -0.561349
O4    O     O_R   0.678390 0.711630 0.486650 -0.666756
O5    O     O_R   0.321610 0.288370 0.513350 -0.666756
O6    O     O_R   0.355430 0.513480 0.694040 -0.591467
O7    O     O_R   0.644570 0.486520 0.305960 -0.591467
O8    O     O_R   0.644570 0.486540 0.672410 -0.660932
O9    O     O_R   0.355430 0.513460 0.327590 -0.660932
O10   O     O_2   0.918433 0.228731 0.349121 -0.596351
Zn1   Zn    Zn3+2 0.306940 0.517990 0.514440 0.955382
Zn2   Zn    Zn3+2 0.693060 0.482010 0.485560 0.955382

loop_
_geom_bond_atom_site_label_1
_geom_bond_atom_site_label_2
_ccdc_geom_bond_type
C12   C17   S    
C2    C4    A    
C19   O9    A    
C15   O2    D    
C10   C21   A    
C8    C13   A    
C18   O8    A    
O1    Zn1   S    
C4    C22   A    
O7    Zn2   S    
C2    H9    S    
C9    C20   A    
N1    N2    D    
C6    H11   S    
C1    O1    A    
C3    C5    A    
C5    H10   S    
C2    C21   A    
C3    H5    S    
C2    C3    A    
O5    Zn1   S    
C14   O10   D    
C1    C16   S    
C22   H8    S    
C7    C11   A    
C11   C19   S    
C12   O5    A    
C13   C18   S    
C12   O3    A    
N1    Zn2   S    
C8    C10   A    
C20   C22   A    
O6    Zn1   S    
C18   O6    A    
C14   H3    S    
C17   H2    S    
C10   C11   A    
C7    C9    A    
C15   N2    S    
N2    Zn1   S    
C4    C6    A    
O9    Zn1   S    
C14   N1    S    
C5    C7    A    
C4    H1    S    
C9    C13   A    
O4    Zn2   S    
O3    Zn2   S    
C3    C22   A    
C6    C8    A    
C20   H6    S    
C1    O4    A    
C16   H12   S    
C21   H7    S    
O8    Zn2   S    
C19   O7    A    
C16   C17   D    
C15   H4    S    
