data_mof_unit_26325.cif
_audit_creation_date              2012-12-10T16:41:50-0500
_audit_creation_method            fapswitch 2.2
_symmetry_space_group_name_H-M    P1
_symmetry_Int_Tables_number       1
_space_group_crystal_system       triclinic
_cell_length_a                    10.888209
_cell_length_b                    8.67894
_cell_length_c                    7.482684
_cell_angle_alpha                 101.840003
_cell_angle_beta                  94.319891
_cell_angle_gamma                 91.709471
_cell_volume                      689.346071451

loop_
_atom_site_label
_atom_site_type_symbol
_atom_type_description
_atom_site_fract_x
_atom_site_fract_y
_atom_site_fract_z
_atom_type_partial_charge
C1    C     C_R   0.490473 0.201078 0.455914 0.714123
C2    C     C_2   0.518453 0.965917 0.563075 -0.461307
C3    C     C_R   0.265013 0.501019 0.502611 0.698315
C4    C     C_R   0.504905 0.799472 0.544569 0.920672
C5    C     C_R   0.733471 0.489381 0.496519 0.798357
C6    C     C_2   0.924526 0.460045 0.345356 -0.136274
C7    C     C_2   0.862202 0.455724 0.490765 -0.235272
C8    C     C_2   0.058331 0.444239 0.356815 -0.278436
C9    C     C_2   0.131398 0.510255 0.508511 0.305826
C10   C     C_2   0.462678 0.036049 0.439001 0.311167
Cu1   Cu    Cu3+1 0.513740 0.517380 0.684380 0.963859
Cu2   Cu    Cu3+1 0.486260 0.482620 0.315620 1.008871
H1    H     H_    0.877898 0.475651 0.217604 0.154615
H2    H     H_    0.907175 0.423084 0.610297 0.175542
H3    H     H_    0.097429 0.381491 0.234694 0.131929
H4    H     H_    0.579143 0.031473 0.677341 0.130655
H5    H     H_    0.424168 0.358656 0.950633 0.178556
N1    N     N_2   0.465540 0.456420 0.038510 -0.150586
N2    N     N_2   0.534460 0.543580 0.961490 0.066199
O1    O     O_R   0.508930 0.286130 0.619780 -0.627126
O2    O     O_R   0.485720 0.256780 0.308360 -0.582209
O3    O     O_R   0.333540 0.514670 0.655670 -0.606356
O4    O     O_R   0.310330 0.485320 0.344250 -0.600203
O5    O     O_R   0.514280 0.743220 0.691640 -0.586467
O6    O     O_R   0.491070 0.713870 0.380220 -0.460113
O7    O     O_R   0.689670 0.514680 0.655750 -0.624496
O8    O     O_R   0.666460 0.485330 0.344330 -0.569126
O9    O     O_3   0.082097 0.611021 0.652327 -0.576175
C11   C     C_3   0.114264 0.569089 0.822107 0.105057
H6    H     H_    0.199236 0.637785 0.888164 0.200357
H7    H     H_    0.129076 0.440629 0.809300 0.118257
C12   C     C_3   0.011252 0.611659 0.947008 -0.876274
H8    H     H_    0.933917 0.522292 0.910205 0.221950
H9    H     H_    0.046077 0.614489 0.090147 0.226922
H10   H     H_    0.977147 0.729114 0.936965 0.265676
O10   O     O_3   0.373675 0.955858 0.306569 -0.530214
C13   C     C_3   0.262500 0.036923 0.319687 0.072381
H11   H     H_    0.266420 0.137213 0.248386 0.154803
H12   H     H_    0.242369 0.081489 0.464980 0.110066
C14   C     C_3   0.155981 0.926039 0.227977 -0.788787
H13   H     H_    0.150991 0.823323 0.294880 0.262811
H14   H     H_    0.068281 0.987928 0.240860 0.195091
H15   H     H_    0.169773 0.886395 0.080673 0.258734
O11   O     O_3   0.570996 0.683264 0.070005 -0.413331
C15   C     C_3   0.693677 0.716807 0.038979 0.244010
H16   H     H_    0.697594 0.761982 0.911241 0.157538
H17   H     H_    0.749606 0.610900 0.031203 0.116120
C16   C     C_3   0.750374 0.843889 0.197444 -0.865965
H18   H     H_    0.750886 0.801276 0.327652 0.248205
H19   H     H_    0.846674 0.873911 0.173490 0.200610
H20   H     H_    0.696476 0.951701 0.209623 0.251443

loop_
_geom_bond_atom_site_label_1
_geom_bond_atom_site_label_2
_ccdc_geom_bond_type
O10   C13   S    
C2    C4    S    
Cu1   Cu2   S    
C1    O2    A    
C6    C7    D    
C3    C9    S    
C11   C12   S    
C2    H4    S    
Cu1   O3    S    
C3    O4    A    
Cu2   O6    S    
C12   H8    S    
O9    C11   S    
C16   H19   S    
C4    O6    A    
C11   H7    S    
C15   H16   S    
N2    O11   S    
C6    H1    S    
Cu2   O4    S    
Cu1   N2    S    
C11   H6    S    
C14   H14   S    
C16   H18   S    
C13   H11   S    
C10   O10   S    
H5    N1    S    
C13   C14   S    
C7    H2    S    
C4    O5    A    
Cu1   O1    S    
C16   H20   S    
Cu2   O8    S    
C5    O7    A    
C2    C10   D    
C12   H10   S    
Cu1   O5    S    
C15   H17   S    
O11   C15   S    
C13   H12   S    
N1    N2    D    
C15   C16   S    
Cu2   N1    S    
C5    C7    S    
C14   H13   S    
C3    O3    A    
C6    C8    S    
C8    H3    S    
Cu1   O7    S    
C5    O8    A    
Cu2   O2    S    
C14   H15   S    
C1    C10   S    
C9    O9    S    
C8    C9    D    
C1    O1    A    
C12   H9    S    
