data_mof_unit_48114.cif
_audit_creation_date              2013-03-05T15:40:42-0500
_audit_creation_method            fapswitch 2.2
_symmetry_space_group_name_H-M    P1
_symmetry_Int_Tables_number       1
_space_group_crystal_system       triclinic
_cell_length_a                    7.826566
_cell_length_b                    8.54186
_cell_length_c                    12.119601
_cell_angle_alpha                 91.643633
_cell_angle_beta                  101.321432
_cell_angle_gamma                 94.184664
_cell_volume                      791.586095284

loop_
_atom_site_label
_atom_site_type_symbol
_atom_site_description
_atom_site_fract_x
_atom_site_fract_y
_atom_site_fract_z
_atom_type_partial_charge
O1    O     O_R   0.893060 0.738880 0.507150 -0.618077
O2    O     O_R   0.172250 0.711130 0.488470 -0.617290
C1    C     C_R   0.047917 0.794756 0.505579 0.949087
O3    O     O_R   0.944700 0.520730 0.667600 -0.629363
O4    O     O_R   0.223890 0.492980 0.648920 -0.623216
C2    C     C_R   0.106679 0.507285 0.710339 0.832860
Zn1   Zn    Zn3+2 0.813580 0.518530 0.512470 0.936449
Zn2   Zn    Zn3+2 0.186420 0.481470 0.487530 0.983720
O5    O     O_R   0.827750 0.288870 0.511530 -0.620344
O6    O     O_R   0.106940 0.261120 0.492850 -0.621478
O7    O     O_R   0.776110 0.507020 0.351080 -0.611698
O8    O     O_R   0.055300 0.479270 0.332400 -0.556860
C3    C     C_R   0.959964 0.206176 0.511922 0.955679
C4    C     C_R   0.891986 0.485015 0.289819 0.912919
C5    C     C_R   0.780316 0.252105 0.016504 -0.259827
H1    H     H_    0.552168 0.143460 0.832406 0.148950
H2    H     H_    0.821305 0.151583 0.975284 0.167822
C6    C     C_R   0.829290 0.445942 0.170989 -0.182484
C7    C     C_R   0.085547 0.622646 0.894969 -0.200934
C8    C     C_R   0.162591 0.661067 0.006565 -0.121578
C9    C     C_R   0.320875 0.602383 0.053217 -0.114599
C10   C     C_R   0.398711 0.495460 0.990120 0.114058
C11   C     C_R   0.306254 0.439709 0.883136 0.079825
C12   C     C_R   0.564947 0.441390 0.029476 0.100333
C13   C     C_R   0.620573 0.312491 0.973153 0.115702
C14   C     C_R   0.515001 0.244671 0.875064 -0.208678
C15   C     C_R   0.361788 0.309869 0.828854 -0.195340
C16   C     C_R   0.677942 0.513221 0.122909 -0.291672
C17   C     C_R   0.885373 0.316455 0.116271 0.325209
C18   C     C_R   0.161327 0.516963 0.831952 -0.109441
H3    H     H_    0.646392 0.617875 0.164307 0.162978
H4    H     H_    0.971121 0.680264 0.856641 0.157650
H5    H     H_    0.376177 0.638029 0.139750 0.151833
H6    H     H_    0.103701 0.741935 0.055550 0.177290
H7    H     H_    0.285767 0.255900 0.751066 0.159328
C19   C     C_2   0.071718 0.959493 0.509437 -0.414145
H8    H     H_    0.168359 0.006413 0.463067 0.182589
C20   C     C_2   0.956376 0.048190 0.546345 -0.018902
N1    N     N_2   0.434800 0.456690 0.470850 -0.154030
H9    H     H_    0.469996 0.375459 0.416776 0.220242
N2    N     N_2   0.565200 0.543310 0.529150 -0.178572
H10   H     H_    0.530043 0.624555 0.583234 0.185233
N3    N     N_R   0.040309 0.242432 0.163823 0.206674
O9    O     O_R   0.191263 0.323365 0.184122 -0.396007
O10   O     O_R   0.035867 0.089924 0.165351 -0.432355
C21   C     C_3   0.841126 0.997602 0.629656 -0.371168
C22   C     C_3   0.873521 0.107204 0.734578 -0.914085
H11   H     H_    0.015367 0.125964 0.771047 0.259411
H12   H     H_    0.818587 0.221852 0.715758 0.287248
H13   H     H_    0.808551 0.050795 0.798220 0.238204
H14   H     H_    0.701197 0.993868 0.587524 0.216879
H15   H     H_    0.868056 0.880546 0.662956 0.233970

loop_
_geom_bond_atom_site_label_1
_geom_bond_atom_site_label_2
_geom_bond_distance
_ccdc_geom_bond_type
O4    Zn2   1.918613 S    
N3    O9    1.300463 A    
C16   H3    1.080251 S    
C5    H2    1.080864 S    
Zn2   N1    2.019047 S    
C11   C15   1.411561 A    
C12   C16   1.388745 A    
N2    H10   1.029354 S    
C4    C6    1.448223 S    
C7    C8    1.387802 A    
Zn2   O8    1.955999 S    
C8    H6    1.082781 S    
C8    C9    1.391936 A    
C19   C20   1.352017 D    
O2    C1    1.293196 A    
C14   C15   1.383261 A    
C6    C16   1.385815 A    
C22   H12   1.109811 S    
C6    C17   1.413818 A    
C9    C10   1.419189 A    
C17   N3    1.435541 S    
Zn1   O7    1.918614 S    
N3    O10   1.301393 A    
C3    C20   1.423846 S    
C1    C19   1.404111 S    
O3    Zn1   1.955998 S    
C7    H4    1.083583 S    
O3    C2    1.286659 A    
C19   H8    1.088175 S    
C2    C18   1.449992 S    
O8    C4    1.286126 A    
C5    C17   1.394916 A    
C22   H13   1.106889 S    
Zn1   N2    2.019046 S    
H1    C14   1.081395 S    
O4    C2    1.299937 A    
O7    C4    1.300114 A    
C10   C12   1.410762 A    
C20   C21   1.531523 S    
C5    C13   1.398910 A    
C11   C18   1.401188 A    
C21   H15   1.107959 S    
C9    H5    1.078954 S    
C12   C13   1.418201 A    
N1    N2    1.290333 D    
Zn2   O6    1.945667 S    
N1    H9    1.029327 S    
Zn1   O5    1.972753 S    
O5    C3    1.294094 A    
C21   C22   1.525860 S    
C15   H7    1.081728 S    
C13   C14   1.391595 A    
O1    Zn1   1.945666 S    
C7    C18   1.402295 A    
C21   H14   1.111551 S    
C10   C11   1.406232 A    
O2    Zn2   1.972752 S    
C22   H11   1.109423 S    
O1    C1    1.273682 A    
O6    C3    1.276223 A    
