data_mof_unit_27766.cif
_audit_creation_date              2012-12-10T20:34:51-0500
_audit_creation_method            fapswitch 2.2
_symmetry_space_group_name_H-M    P1
_symmetry_Int_Tables_number       1
_space_group_crystal_system       triclinic
_cell_length_a                    10.632715
_cell_length_b                    10.671194
_cell_length_c                    9.860718
_cell_angle_alpha                 90.002782
_cell_angle_beta                  90.192852
_cell_angle_gamma                 90.046028
_cell_volume                      1118.82748478

loop_
_atom_site_label
_atom_site_type_symbol
_atom_type_description
_atom_site_fract_x
_atom_site_fract_y
_atom_site_fract_z
_atom_type_partial_charge
C1    C     C_R   0.503677 0.259966 0.500086 0.876292
C2    C     C_R   0.517661 0.936119 0.623547 0.125746
C3    C     C_3   0.422602 0.928753 0.734704 -0.478977
C4    C     C_R   0.257617 0.499506 0.499650 0.832475
C5    C     C_3   0.422306 0.070813 0.734604 -0.494446
C6    C     C_R   0.436666 0.409258 0.070934 0.221760
C7    C     C_R   0.571551 0.582612 0.072276 -0.140440
C8    C     C_R   0.571492 0.582683 0.928240 -0.142330
C9    C     C_R   0.436834 0.409147 0.928308 0.222811
C10   C     C_3   0.299118 0.384037 0.921632 -0.525906
C11   C     C_3   0.298726 0.384901 0.075427 -0.523367
C12   C     C_3   0.878739 0.499606 0.499207 0.188736
C13   C     C_R   0.503855 0.740023 0.500046 0.876606
C14   C     C_R   0.742368 0.499871 0.499914 0.822876
C15   C     C_3   0.072245 0.381729 0.574502 -0.410074
C16   C     C_3   0.927818 0.381455 0.573792 -0.399556
C17   C     C_3   0.072610 0.619063 0.570474 -0.404053
C18   C     C_3   0.070762 0.496727 0.351003 -0.404231
C19   C     C_3   0.121200 0.499298 0.498915 0.191256
C20   C     C_3   0.928227 0.618775 0.571549 -0.405373
C21   C     C_3   0.928072 0.498419 0.351030 -0.387138
C22   C     C_R   0.517472 0.063879 0.623537 0.138630
C23   C     C_R   0.523152 0.128580 0.501181 -0.108247
C24   C     C_R   0.552489 0.064850 0.380992 -0.236528
C25   C     C_R   0.552674 0.935228 0.381002 -0.236460
C26   C     C_R   0.523452 0.871422 0.501186 -0.107310
H1    H     H_    0.106585 0.381046 0.681205 0.175230
H2    H     H_    0.462056 0.112073 0.829015 0.202522
H3    H     H_    0.627386 0.650881 0.126887 0.138618
H4    H     H_    0.107708 0.295077 0.524744 0.152433
H5    H     H_    0.627210 0.651063 0.874059 0.142371
H6    H     H_    0.245300 0.463128 0.876592 0.215487
H7    H     H_    0.277815 0.290507 0.877655 0.193678
H8    H     H_    0.245557 0.465229 0.117988 0.213718
H9    H     H_    0.276462 0.292104 0.120599 0.197125
H10   H     H_    0.892705 0.295289 0.522419 0.155160
H11   H     H_    0.893141 0.379462 0.680174 0.179479
H12   H     H_    0.894582 0.582955 0.295333 0.171945
H13   H     H_    0.108161 0.623472 0.676708 0.173021
H14   H     H_    0.894588 0.621747 0.678301 0.175181
H15   H     H_    0.105910 0.579262 0.293210 0.173384
H16   H     H_    0.103434 0.410288 0.298667 0.173174
H17   H     H_    0.892536 0.414283 0.295990 0.176654
H18   H     H_    0.107257 0.704075 0.516792 0.153943
H19   H     H_    0.892380 0.704256 0.519536 0.153634
H20   H     H_    0.566774 0.114043 0.286167 0.168734
H21   H     H_    0.567094 0.886061 0.286192 0.165050
H22   H     H_    0.331868 0.887064 0.700769 0.198180
H23   H     H_    0.462659 0.887827 0.829102 0.202399
H24   H     H_    0.331437 0.111897 0.700446 0.193626
N1    N     N_R   0.499150 0.499140 0.142800 -0.105961
N2    N     N_R   0.499150 0.499180 0.857150 -0.105356
O1    O     O_R   0.500020 0.316790 0.614690 -0.613856
O2    O     O_R   0.500000 0.316760 0.385350 -0.621959
O3    O     O_R   0.314800 0.500000 0.614670 -0.627310
O4    O     O_R   0.314790 0.499960 0.385330 -0.624946
O5    O     O_R   0.500000 0.683240 0.614650 -0.617657
O6    O     O_R   0.499980 0.683210 0.385310 -0.623073
O7    O     O_R   0.685210 0.500040 0.614670 -0.627763
O8    O     O_R   0.685200 0.500000 0.385330 -0.631533
Zn1   Zn    Zn3+2 0.500010 0.500020 0.653130 0.931972
Zn2   Zn    Zn3+2 0.499990 0.499980 0.346870 0.929948

loop_
_geom_bond_atom_site_label_1
_geom_bond_atom_site_label_2
_ccdc_geom_bond_type
C2    C22   A    
C23   C24   A    
O6    Zn2   S    
C7    H3    S    
C6    N1    A    
C5    H2    S    
C14   O8    A    
C9    C10   S    
C25   H21   S    
C15   H1    S    
C20   H19   S    
C4    C19   S    
C16   H11   S    
C1    O2    A    
C24   H20   S    
C12   C20   S    
C6    C9    A    
C11   H9    S    
C2    C3    S    
C3    H23   S    
C17   H18   S    
C7    N1    A    
C7    C8    A    
C2    C26   A    
C4    O4    A    
C15   C19   S    
C14   O7    A    
N1    Zn2   S    
C9    N2    A    
O3    Zn1   S    
C17   C19   S    
C12   C14   S    
C1    C23   S    
C10   H7    S    
N2    Zn1   S    
C18   H16   S    
C4    O3    A    
C20   H14   S    
O4    Zn2   S    
C13   C26   S    
O7    Zn1   S    
C13   O5    A    
C10   C11   S    
C21   H12   S    
C15   C16   S    
C18   C21   S    
C10   H6    S    
C5    H24   S    
O5    Zn1   S    
C17   C20   S    
C24   C25   A    
C15   H4    S    
O8    Zn2   S    
C18   C19   S    
C17   H13   S    
C18   H15   S    
C6    C11   S    
C8    N2    A    
C22   C23   A    
C1    O1    A    
C13   O6    A    
O2    Zn2   S    
C25   C26   A    
C21   H17   S    
C8    H5    S    
O1    Zn1   S    
C12   C21   S    
C11   H8    S    
C16   H10   S    
C5    C22   S    
C12   C16   S    
C3    H22   S    
C3    C5    S    
