data_mof_unit_17104.cif
_audit_creation_date              2012-12-11T14:42:19-0500
_audit_creation_method            fapswitch 2.2
_symmetry_space_group_name_H-M    P1
_symmetry_Int_Tables_number       1
_space_group_crystal_system       triclinic
_cell_length_a                    18.939139
_cell_length_b                    10.939771
_cell_length_c                    18.838591
_cell_angle_alpha                 90.244514
_cell_angle_beta                  90.322776
_cell_angle_gamma                 90.06002
_cell_volume                      3903.06500388

loop_
_atom_site_label
_atom_site_type_symbol
_atom_type_description
_atom_site_fract_x
_atom_site_fract_y
_atom_site_fract_z
_atom_type_partial_charge
C1    C     C_R   0.725688 0.959320 0.855213 0.556123
C2    C     C_R   0.247602 0.417533 0.924228 0.028752
C3    C     C_2   0.633712 0.769358 0.438682 0.616258
C4    C     C_R   0.260978 0.930922 0.070675 0.035109
C5    C     C_R   0.738904 0.931976 0.929459 0.033888
C6    C     C_R   0.821811 0.411502 0.027324 -0.126779
C7    C     C_R   0.207706 0.326558 0.956537 -0.141326
C8    C     C_R   0.318528 0.892663 0.029796 -0.132188
C9    C     C_R   0.681617 0.891605 0.969950 -0.128132
C10   C     C_R   0.814881 0.403327 0.954749 -0.129283
C11   C     C_R   0.211284 0.312366 0.028874 -0.127097
C12   C     C_R   0.313255 0.887864 0.957204 -0.131247
C13   C     C_R   0.274223 0.958796 0.144903 0.555757
C14   C     C_R   0.686885 0.885778 0.042522 -0.128968
C15   C     C_R   0.748235 0.414513 0.923322 0.030506
C16   C     C_R   0.256508 0.386382 0.070220 0.034888
C17   C     C_R   0.248643 0.912181 0.923906 0.032717
C18   C     C_R   0.751211 0.911662 0.076193 0.029470
C19   C     C_R   0.444603 0.194934 0.548149 -0.103377
C20   C     C_R   0.431642 0.196522 0.476074 -0.105664
C21   C     C_R   0.053559 0.681783 0.521072 -0.102809
C22   C     C_R   0.032001 0.683824 0.451129 -0.054769
C23   C     C_R   0.485857 0.166963 0.428694 0.074509
C24   C     C_R   0.227341 0.456343 0.853592 0.548547
C25   C     C_R   0.511331 0.162049 0.571878 0.067442
C26   C     C_R   0.960652 0.668265 0.434905 0.052510
C27   C     C_R   0.003662 0.664815 0.574488 0.072951
C28   C     C_R   0.551533 0.127539 0.452309 -0.086507
C29   C     C_R   0.564316 0.124838 0.524597 -0.084769
C30   C     C_R   0.911330 0.642907 0.487879 -0.126997
C31   C     C_R   0.932769 0.643086 0.558516 -0.064100
C32   C     C_R   0.804778 0.337884 0.531879 0.029199
C33   C     C_R   0.181812 0.417517 0.454122 0.029403
C34   C     C_R   0.317089 0.919385 0.545668 0.030429
C35   C     C_R   0.774783 0.460145 0.144439 0.556805
C36   C     C_R   0.699321 0.817989 0.471809 0.025280
C37   C     C_R   0.811576 0.373815 0.463078 -0.162044
C38   C     C_R   0.178069 0.420923 0.527633 -0.161056
C39   C     C_R   0.321688 0.925868 0.472328 -0.158625
C40   C     C_R   0.693585 0.845416 0.542305 -0.158603
C41   C     C_R   0.529965 0.177770 0.850921 0.557634
C42   C     C_R   0.470175 0.177526 0.149162 0.554675
C43   C     C_R   0.056515 0.681742 0.858622 0.560648
C44   C     C_R   0.972140 0.677554 0.150722 0.565459
C45   C     C_R   0.753211 0.404969 0.421088 -0.015019
C46   C     C_R   0.696741 0.456485 0.038111 -0.137675
C47   C     C_R   0.238939 0.435900 0.570244 -0.021444
C48   C     C_R   0.260947 0.933980 0.428997 -0.016154
C49   C     C_R   0.749499 0.896702 0.581176 -0.022530
C50   C     C_R   0.684431 0.397085 0.449125 0.043657
C51   C     C_R   0.305235 0.454330 0.537920 0.011145
C52   C     C_R   0.193571 0.940790 0.460087 0.016230
C53   C     C_R   0.816729 0.907401 0.549837 0.032589
C54   C     C_R   0.677480 0.371501 0.521788 -0.170442
C55   C     C_R   0.308952 0.447561 0.464006 -0.168835
C56   C     C_R   0.189000 0.932839 0.533854 -0.166353
C57   C     C_R   0.295863 0.487665 0.964493 -0.133783
C58   C     C_R   0.822218 0.885540 0.476510 -0.170891
C59   C     C_R   0.736924 0.343189 0.563722 -0.040679
C60   C     C_R   0.248844 0.420637 0.422533 -0.016414
C61   C     C_R   0.249657 0.915512 0.576315 -0.016927
C62   C     C_R   0.764101 0.842231 0.436853 -0.048143
C63   C     C_R   0.738315 0.364971 0.852486 0.554297
C64   C     C_R   0.263083 0.358023 0.145091 0.557158
C65   C     C_R   0.238381 0.864765 0.852588 0.548780
C66   C     C_R   0.761632 0.864471 0.147392 0.556549
C67   C     C_R   0.729225 0.950592 0.649293 0.575962
C68   C     C_R   0.197330 0.963463 0.037469 -0.147014
C69   C     C_R   0.273434 0.958402 0.354079 0.592903
C70   C     C_R   0.226490 0.458709 0.645594 0.587330
C71   C     C_R   0.771285 0.452315 0.351288 0.578691
C72   C     C_R   0.530186 0.175263 0.644726 0.543042
C73   C     C_R   0.470053 0.176097 0.355135 0.547256
C74   C     C_R   0.028203 0.675546 0.645982 0.552820
C75   C     C_R   0.937575 0.680308 0.362777 0.522544
C76   C     C_R   0.727000 0.313615 0.638627 0.546011
C77   C     C_R   0.260038 0.365704 0.352660 0.579542
C78   C     C_R   0.239591 0.864219 0.646907 0.582909
C79   C     C_R   0.802147 0.966289 0.963128 -0.133108
C80   C     C_R   0.773061 0.814145 0.361353 0.531980
C81   C     C_2   0.497996 0.169350 0.921272 -0.105226
C82   C     C_2   0.502417 0.168801 0.078936 -0.103768
C83   C     C_2   0.031011 0.674278 0.931473 -0.109142
C84   C     C_2   0.014426 0.670074 0.086264 -0.103813
C85   C     C_2   0.492704 0.069186 0.038077 -0.162905
C86   C     C_2   0.507420 0.069423 0.961508 -0.163557
C87   C     C_2   0.016237 0.569322 0.045539 -0.158911
C88   C     C_2   0.041083 0.574256 0.971561 -0.165000
C89   C     C_R   0.689345 0.444983 0.964894 -0.134561
C90   C     C_R   0.762705 0.435796 0.069691 0.034109
C91   C     C_R   0.300595 0.471473 0.037540 -0.139005
C92   C     C_R   0.190862 0.952772 0.964054 -0.146648
C93   C     C_R   0.808635 0.954673 0.036487 -0.133709
C94   C     C_2   0.620088 0.407177 0.404005 0.620635
C95   C     C_2   0.371746 0.475524 0.578769 0.584411
C96   C     C_2   0.127299 0.949713 0.417616 0.577694
C97   C     C_2   0.882013 0.929127 0.592369 0.623788
C98   C     C_2   0.871505 0.295295 0.565598 0.622466
C99   C     C_2   0.115214 0.413354 0.411802 0.593896
C100  C     C_2   0.383210 0.918494 0.588740 0.593333
Cr1   Cr    Cr6+3 0.769270 0.163730 0.750710 1.080327
Cr2   Cr    Cr6+3 0.385840 0.322500 0.252290 1.036539
Cr3   Cr    Cr6+3 0.114160 0.822500 0.747710 1.029386
Cr4   Cr    Cr6+3 0.885840 0.822500 0.252290 1.033130
Cr5   Cr    Cr6+3 0.230730 0.163730 0.249290 1.071284
Cr6   Cr    Cr6+3 0.269270 0.663730 0.750710 1.067037
Cr7   Cr    Cr6+3 0.730730 0.663730 0.249290 1.074373
Cr8   Cr    Cr6+3 0.612620 0.009790 0.748780 1.029534
Cr9   Cr    Cr6+3 0.387380 0.009790 0.251220 1.032168
Cr10  Cr    Cr6+3 0.112620 0.509790 0.748780 1.032250
Cr11  Cr    Cr6+3 0.887380 0.509790 0.251220 1.031864
Cr12  Cr    Cr6+3 0.614160 0.322500 0.747710 1.034022
H1    H     H_    0.472941 0.985057 0.060841 0.141391
H2    H     H_    0.360404 0.453002 0.439282 0.188989
H3    H     H_    0.137036 0.930189 0.557637 0.188750
H4    H     H_    0.872769 0.896835 0.450701 0.183892
H5    H     H_    0.525217 0.251302 0.056710 0.106668
H6    H     H_    0.475510 0.251938 0.944002 0.111052
H7    H     H_    0.038047 0.754599 0.067720 0.105960
H8    H     H_    0.005136 0.754609 0.953204 0.109555
H9    H     H_    0.637185 0.453140 0.941522 0.134065
H10   H     H_    0.337325 0.526347 0.068381 0.126325
H11   H     H_    0.140201 0.970857 0.939314 0.126725
H12   H     H_    0.526969 0.985273 0.938222 0.142227
H13   H     H_    0.859055 0.974157 0.061506 0.133336
H14   H     H_    0.651167 0.479444 0.069982 0.124076
H15   H     H_    0.327085 0.559133 0.940319 0.136023
H16   H     H_    0.152937 0.996228 0.068126 0.120046
H17   H     H_    0.846261 0.000941 0.932868 0.129471
H18   H     H_    0.874041 0.400377 0.050031 0.132008
H19   H     H_    0.170757 0.270709 0.926500 0.132494
H20   H     H_    0.368756 0.868810 0.053565 0.126735
H21   H     H_    0.631575 0.866728 0.945919 0.129165
H22   H     H_    0.861115 0.380981 0.923642 0.136682
H23   H     H_    0.995909 0.483006 0.065020 0.141507
H24   H     H_    0.178654 0.241904 0.052147 0.138927
H25   H     H_    0.358847 0.857041 0.927590 0.133350
H26   H     H_    0.641513 0.853225 0.071752 0.135015
H27   H     H_    0.403237 0.218709 0.585019 0.161290
H28   H     H_    0.379606 0.221394 0.456909 0.105052
H29   H     H_    0.108862 0.695993 0.533832 0.096455
H30   H     H_    0.070477 0.698756 0.409780 0.174626
H31   H     H_    0.592749 0.102735 0.415301 0.136869
H32   H     H_    0.616324 0.099205 0.543682 0.111039
H33   H     H_    0.856232 0.628175 0.474713 0.086755
H34   H     H_    0.064302 0.492348 0.948780 0.155334
H35   H     H_    0.894494 0.628925 0.600208 0.137185
H36   H     H_    0.576859 0.397337 0.305900 0.347573
H37   H     H_    0.428472 0.445993 0.668084 0.349064
H38   H     H_    0.076170 0.913859 0.325556 0.354222
H39   H     H_    0.929678 0.928037 0.688496 0.349005
H40   H     H_    0.973659 0.330869 0.588854 0.356554
H41   H     H_    0.065506 0.453228 0.319741 0.352307
H42   H     H_    0.431117 0.959745 0.681786 0.344258
H43   H     H_    0.529851 0.794284 0.419087 0.360359
H44   H     H_    0.864884 0.377128 0.442273 0.196891
H45   H     H_    0.126175 0.417978 0.551575 0.181692
H46   H     H_    0.373881 0.929901 0.449070 0.180939
H47   H     H_    0.642334 0.829860 0.566131 0.195565
H48   H     H_    0.625435 0.368764 0.545327 0.176564
O1    O     O_R   0.784320 0.290430 0.830510 -0.517240
O2    O     O_R   0.456080 0.282180 0.333210 -0.501088
O3    O     O_R   0.043920 0.782180 0.666790 -0.502042
O4    O     O_R   0.956080 0.782180 0.333210 -0.512240
O5    O     O_R   0.679040 0.374160 0.674430 -0.492209
O6    O     O_R   0.320960 0.374160 0.325570 -0.512934
O7    O     O_R   0.179040 0.874160 0.674430 -0.511382
O8    O     O_R   0.820960 0.874160 0.325570 -0.502244
O9    O     O_3   0.665350 0.165340 0.749070 -0.286002
O10   O     O_3   0.334650 0.165340 0.250930 -0.272549
O11   O     O_3   0.165350 0.665340 0.749070 -0.284062
O12   O     O_R   0.215680 0.290430 0.169490 -0.520399
O13   O     O_3   0.834650 0.665340 0.250930 -0.303034
O14   O     O_R   0.762640 0.040960 0.825200 -0.494941
O15   O     O_R   0.237360 0.040960 0.174800 -0.502953
O16   O     O_R   0.262640 0.540960 0.825200 -0.502889
O17   O     O_R   0.737360 0.540960 0.174800 -0.494175
O18   O     O_R   0.667400 0.923970 0.829950 -0.525417
O19   O     O_R   0.332600 0.923970 0.170050 -0.523962
O20   O     O_R   0.167400 0.423970 0.829950 -0.529843
O21   O     O_R   0.832600 0.423970 0.170050 -0.521736
O22   O     O_R   0.553960 0.081340 0.821780 -0.500363
O23   O     O_R   0.284320 0.790430 0.830510 -0.520566
O24   O     O_R   0.446040 0.081340 0.178220 -0.498807
O25   O     O_R   0.053960 0.581340 0.821780 -0.489812
O26   O     O_R   0.946040 0.581340 0.178220 -0.495463
O27   O     O_R   0.543180 0.283240 0.826740 -0.514975
O28   O     O_R   0.456820 0.283240 0.173260 -0.518215
O29   O     O_R   0.043180 0.783240 0.826740 -0.516121
O30   O     O_R   0.956820 0.783240 0.173260 -0.514302
O31   O     O_R   0.678360 0.375140 0.822710 -0.501458
O32   O     O_R   0.321640 0.375140 0.177290 -0.500618
O33   O     O_R   0.178360 0.875140 0.822710 -0.516709
O34   O     O_R   0.715680 0.790430 0.169490 -0.519022
O35   O     O_R   0.821640 0.875140 0.177290 -0.498561
O36   O     O_R   0.785050 0.289380 0.670560 -0.474426
O37   O     O_R   0.214950 0.289380 0.329440 -0.470720
O38   O     O_R   0.285050 0.789380 0.670560 -0.468994
O39   O     O_R   0.714950 0.789380 0.329440 -0.470318
O40   O     O_R   0.763320 0.039990 0.676930 -0.450910
O41   O     O_R   0.236680 0.039990 0.323070 -0.462096
O42   O     O_R   0.263320 0.539990 0.676930 -0.457307
O43   O     O_R   0.736680 0.539990 0.323070 -0.449472
O44   O     O_R   0.668130 0.922920 0.670000 -0.527663
O45   O     O_R   0.554640 0.080370 0.673500 -0.503769
O46   O     O_R   0.331870 0.922920 0.330000 -0.520561
O47   O     O_R   0.168130 0.422920 0.670000 -0.522890
O48   O     O_R   0.831870 0.422920 0.330000 -0.530961
O49   O     O_2   0.563227 0.432069 0.430956 -0.468190
O50   O     O_R   0.623776 0.385047 0.330958 -0.692167
O51   O     O_2   0.419650 0.534745 0.552353 -0.461641
O52   O     O_R   0.380924 0.424949 0.646258 -0.697743
O53   O     O_2   0.074991 0.997838 0.443300 -0.461726
O54   O     O_R   0.123718 0.900168 0.349127 -0.692632
O55   O     O_2   0.936752 0.959099 0.562900 -0.455376
O56   O     O_R   0.445360 0.080370 0.326500 -0.506235
O57   O     O_R   0.882287 0.909336 0.665652 -0.687840
O58   O     O_2   0.875695 0.191668 0.588851 -0.459409
O59   O     O_R   0.930998 0.370934 0.566045 -0.690105
O60   O     O_2   0.061606 0.369298 0.437132 -0.482022
O61   O     O_R   0.113285 0.463144 0.343548 -0.684157
O62   O     O_2   0.437684 0.876801 0.563834 -0.477090
O63   O     O_R   0.383625 0.968184 0.657285 -0.695542
O64   O     O_2   0.633180 0.667842 0.411743 -0.468285
O65   O     O_R   0.571445 0.837601 0.442177 -0.681052
O66   O     O_R   0.054640 0.580370 0.673500 -0.500002
O67   O     O_R   0.945360 0.580370 0.326500 -0.492593
O68   O     O_R   0.543920 0.282180 0.666790 -0.518409

loop_
_geom_bond_atom_site_label_1
_geom_bond_atom_site_label_2
_ccdc_geom_bond_type
C56   C61   A    
C70   O42   A    
C58   H4    S    
C87   C88   S    
C99   O61   S    
Cr10  O25   S    
C58   C62   A    
C3    O64   D    
Cr12  O68   S    
Cr5   O12   S    
C45   C71   S    
C43   C83   S    
Cr6   O11   S    
C14   C18   A    
C40   H47   S    
C2    C7    A    
C42   C82   S    
H37   O52   S    
C48   C69   S    
C6    H18   S    
Cr9   O56   S    
Cr12  O27   S    
C66   O35   A    
C2    C57   A    
C46   C89   A    
C85   C86   S    
Cr9   O10   S    
C69   O41   A    
Cr7   O39   S    
C78   O7    A    
C50   C54   A    
C1    C5    S    
C95   O52   S    
C45   C50   A    
C62   C80   S    
C28   C29   A    
C79   C93   A    
C10   C15   A    
C30   C31   A    
C49   C53   A    
C15   C89   A    
C43   O25   A    
C40   C49   A    
C79   H17   S    
H40   O59   S    
Cr11  O21   S    
C96   O54   S    
C41   O27   A    
C63   O1    A    
C1    O18   A    
H42   O63   S    
C22   C26   A    
C67   O44   A    
C76   O36   A    
C44   O30   A    
C54   C59   A    
Cr4   O35   S    
C14   H26   S    
C91   H10   S    
C71   O43   A    
C12   C17   A    
C8    H20   S    
Cr2   O32   S    
H39   O57   S    
C73   O56   A    
Cr1   O9    S    
Cr10  O47   S    
Cr3   O29   S    
C84   C87   D    
Cr10  O20   S    
C5    C79   A    
C27   C74   S    
C57   C91   A    
C68   H16   S    
C7    H19   S    
C81   C86   D    
Cr1   O36   S    
C4    C8    A    
Cr6   O38   S    
C31   H35   S    
Cr10  O11   S    
Cr5   O37   S    
C83   C88   D    
C21   C27   A    
Cr4   O30   S    
C66   O34   A    
Cr2   O6    S    
C55   C60   A    
Cr7   O17   S    
Cr3   O11   S    
C37   H44   S    
Cr1   O14   S    
C17   C92   A    
C23   C73   S    
C36   C62   A    
C64   O32   A    
C65   O33   A    
C35   O17   A    
C25   C29   A    
C60   C77   S    
C1    O14   A    
Cr1   O40   S    
C32   C37   A    
Cr5   O10   S    
C27   C31   A    
C34   C39   A    
C87   H23   S    
C36   C40   A    
C67   O40   A    
Cr10  O66   S    
C92   H11   S    
C28   H31   S    
C50   C94   S    
C47   C51   A    
Cr7   O43   S    
Cr7   O13   S    
C100  O63   S    
C53   C97   S    
C77   O6    A    
C6    C90   A    
C29   H32   S    
C81   H6    S    
C34   C61   A    
Cr2   O28   S    
C96   O53   D    
C75   O4    A    
C33   C99   S    
C83   H8    S    
C64   O12   A    
C7    C11   A    
C9    C14   A    
C47   C70   S    
H41   O61   S    
C73   O2    A    
H36   O50   S    
Cr6   O42   S    
C11   C16   A    
Cr9   O19   S    
Cr5   O41   S    
Cr12  O9    S    
C20   C23   A    
C100  O62   D    
C61   C78   S    
C8    C12   A    
C41   C81   S    
C22   H30   S    
C26   C75   S    
C69   O46   A    
Cr8   O18   S    
C76   O5    A    
Cr8   O44   S    
C25   C72   S    
Cr3   O7    S    
C97   O55   D    
C43   O29   A    
C38   C47   A    
C72   O45   A    
C16   C91   A    
C53   C58   A    
Cr9   O24   S    
C19   H27   S    
C71   O48   A    
C26   C30   A    
C33   C60   A    
Cr8   O9    S    
C85   H1    S    
C98   O58   D    
C39   H46   S    
C2    C24   S    
C97   O57   S    
C41   O22   A    
C23   C28   A    
C37   C45   A    
C24   O16   A    
C72   O68   A    
Cr2   O2    S    
C30   H33   S    
C4    C68   A    
C65   O23   A    
C42   O28   A    
C13   O15   A    
C3    O65   S    
C18   C66   S    
H43   O65   S    
Cr11  O26   S    
C15   C63   S    
C49   C67   S    
Cr11  O13   S    
Cr3   O3    S    
C46   H14   S    
C10   H22   S    
C38   H45   S    
C5    C9    A    
Cr8   O45   S    
C44   C84   S    
C57   H15   S    
Cr4   O8    S    
C94   O50   S    
Cr4   O13   S    
C46   C90   A    
C55   H2    S    
C35   O21   A    
C82   C85   D    
C16   C64   S    
C17   C65   S    
C33   C38   A    
C82   H5    S    
Cr8   O22   S    
Cr11  O67   S    
C21   C22   A    
C20   H28   S    
C19   C20   A    
C75   O67   A    
C70   O47   A    
C95   O51   D    
C74   O66   A    
C13   O19   A    
C11   H24   S    
Cr12  O31   S    
C86   H12   S    
C80   O39   A    
Cr4   O4    S    
C74   O3    A    
C89   H9    S    
C3    C36   S    
C84   H7    S    
C63   O31   A    
C24   O20   A    
Cr11  O48   S    
Cr1   O1    S    
C68   C92   A    
C56   H3    S    
C32   C98   S    
Cr12  O5    S    
C52   C96   S    
C78   O38   A    
C51   C55   A    
H38   O54   S    
Cr9   O46   S    
C19   C25   A    
C93   H13   S    
Cr6   O23   S    
Cr2   O10   S    
C6    C10   A    
C54   H48   S    
C35   C90   S    
C48   C52   A    
C99   O60   D    
C42   O24   A    
C94   O49   D    
C21   H29   S    
Cr5   O15   S    
C44   O26   A    
C18   C93   A    
Cr6   O16   S    
C12   H25   S    
Cr3   O33   S    
C32   C59   A    
C88   H34   S    
C98   O59   S    
C34   C100  S    
C77   O37   A    
C59   C76   S    
C80   O8    A    
Cr7   O34   S    
C52   C56   A    
C4    C13   S    
C51   C95   S    
C39   C48   A    
C9    H21   S    
