data_mof_unit_10570.cif
_audit_creation_date              2012-12-11T17:10:35-0500
_audit_creation_method            fapswitch 2.2
_symmetry_space_group_name_H-M    P1
_symmetry_Int_Tables_number       1
_space_group_crystal_system       triclinic
_cell_length_a                    14.998063
_cell_length_b                    14.903983
_cell_length_c                    15.127832
_cell_angle_alpha                 109.362642
_cell_angle_beta                  111.009148
_cell_angle_gamma                 108.687337
_cell_volume                      2581.32228581

loop_
_atom_site_label
_atom_site_type_symbol
_atom_type_description
_atom_site_fract_x
_atom_site_fract_y
_atom_site_fract_z
_atom_type_partial_charge
C1    C     C_R   0.186141 0.278980 0.253321 -0.121203
C2    C     C_R   0.410321 0.503770 0.200237 -0.267274
C3    C     C_R   0.564969 0.815234 0.590974 -0.093873
C4    C     C_R   0.590636 0.498205 0.799986 0.754120
C5    C     C_R   0.726330 0.476679 0.413924 -0.162878
C6    C     C_R   0.548841 0.823294 0.497689 0.009621
C7    C     C_R   0.829398 0.554790 0.509745 0.065122
C8    C     C_R   0.448285 0.451947 0.142340 0.086330
C9    C     C_R   0.801135 0.802847 0.868700 0.040541
C10   C     C_R   0.080621 0.609516 0.192836 0.825342
C11   C     C_R   0.092214 0.633609 0.295336 -0.351830
C12   C     C_R   0.551554 0.548512 0.856720 -0.088976
C13   C     C_R   0.017600 0.556804 0.304362 0.039949
C14   C     C_R   0.931773 0.455879 0.209784 -0.172949
C15   C     C_R   0.921466 0.431770 0.107949 -0.172370
C16   C     C_R   0.503630 0.200522 0.408827 -0.135631
C17   C     C_R   0.995659 0.508626 0.099433 -0.228821
C18   C     C_R   0.936239 0.581655 0.419969 -0.241745
C19   C     C_R   0.936251 0.599749 0.517234 0.051524
C20   C     C_R   0.035851 0.638951 0.613103 0.058994
C21   C     C_R   0.121816 0.634356 0.602851 -0.261306
C22   C     C_R   0.117822 0.602092 0.502911 0.055815
C23   C     C_R   0.560478 0.193762 0.498520 -0.081138
C24   C     C_R   0.026327 0.582675 0.411350 0.110280
C25   C     C_R   0.079583 0.783554 0.789969 -0.232370
C26   C     C_R   0.108680 0.822577 0.899621 -0.320842
C27   C     C_R   0.114719 0.755446 0.945278 0.876628
C28   C     C_R   0.299332 0.606003 0.589633 0.501759
C29   C     C_R   0.089840 0.648646 0.881019 -0.216004
C30   C     C_R   0.060730 0.609298 0.771501 -0.275799
C31   C     C_R   0.055271 0.676510 0.725209 0.114996
C32   C     C_R   0.541728 0.444738 0.948788 0.140090
C33   C     C_R   0.552156 0.541013 0.947999 -0.142799
C34   C     C_R   0.202935 0.575232 0.498338 -0.097202
C35   C     C_R   0.538963 0.614660 0.020954 0.765315
C36   C     C_R   0.499380 0.582903 0.081672 -0.382892
C37   C     C_R   0.473267 0.477987 0.068721 -0.077102
C38   C     C_R   0.502916 0.413893 0.008756 0.222885
C39   C     C_3   0.434965 0.295471 0.921901 -0.415455
C40   C     C_R   0.588880 0.286263 0.590089 0.514103
C41   C     C_3   0.478032 0.328920 0.855051 -0.486042
C42   C     C_R   0.527943 0.916627 0.390266 -0.190621
C43   C     C_R   0.587530 0.920966 0.488871 0.130593
C44   C     C_R   0.671303 0.024002 0.581398 -0.154766
C45   C     C_R   0.475674 0.719916 0.407969 -0.134164
C46   C     C_R   0.675418 0.119295 0.581263 -0.200326
C47   C     C_R   0.591856 0.109657 0.490850 0.135266
C48   C     C_R   0.528745 0.009902 0.392075 -0.135096
C49   C     C_3   0.408171 0.948294 0.304828 0.865229
C50   C     C_3   0.406993 0.845292 0.301918 0.263910
C51   C     C_R   0.968503 0.074678 0.121168 0.086397
C52   C     C_R   0.200193 0.506216 0.408033 -0.207035
C53   C     C_R   0.068000 0.074654 0.166762 0.028957
C54   C     C_R   0.063144 0.972589 0.139689 -0.166632
C55   C     C_R   0.967316 0.876680 0.048710 -0.119439
C56   C     C_R   0.813740 0.568658 0.596696 -0.109997
C57   C     C_R   0.877559 0.883789 0.985287 -0.035942
C58   C     C_R   0.874159 0.980145 0.031879 0.097480
C59   C     C_3   0.836211 0.042363 0.982102 0.645921
C60   C     C_3   0.939504 0.145540 0.079127 -0.670516
C61   C     C_R   0.493066 0.583660 0.797143 -0.165224
C62   C     C_R   0.275913 0.184779 0.248379 -0.121757
C63   C     C_R   0.173119 0.175203 0.222938 0.069692
C64   C     C_R   0.500592 0.411772 0.199898 0.466833
C65   C     C_R   0.706976 0.798833 0.803297 -0.145644
C66   C     C_R   0.800630 0.710137 0.806164 -0.105477
F1    F     F_    0.150819 0.684387 0.183473 -0.678030
F2    F     F_    0.675545 0.481728 0.844548 -0.669649
F3    F     F_    0.146237 0.794270 0.052319 -0.668627
F4    F     F_    0.556794 0.712620 0.027807 -0.683390
F5    F     F_    0.742498 0.038485 0.981522 -0.667950
H1    H     H_    0.125365 0.303144 0.250526 0.121933
H2    H     H_    0.873424 0.395707 0.215175 0.150959
H3    H     H_    0.855623 0.353707 0.035549 0.174796
H4    H     H_    0.863432 0.560278 0.348056 0.139949
H5    H     H_    0.188620 0.647525 0.674156 0.182500
H6    H     H_    0.077402 0.836864 0.755949 0.156801
H7    H     H_    0.127958 0.905310 0.949547 0.164328
H8    H     H_    0.094655 0.596840 0.916495 0.175849
H9    H     H_    0.043798 0.527148 0.723023 0.161895
H10   H     H_    0.485558 0.153990 0.326721 0.152916
H11   H     H_    0.488302 0.639645 0.137414 0.194312
H12   H     H_    0.870356 0.624564 0.682328 0.120537
H13   H     H_    0.464758 0.243947 0.947671 0.239027
H14   H     H_    0.344955 0.264142 0.885862 0.185249
H15   H     H_    0.532983 0.297204 0.842953 0.235954
H16   H     H_    0.412681 0.316032 0.779346 0.182475
H17   H     H_    0.725333 0.030699 0.656587 0.117989
H18   H     H_    0.736676 0.197673 0.654973 0.153342
H19   H     H_    0.354293 0.807047 0.329734 0.140848
H20   H     H_    0.136152 0.967796 0.178854 0.188013
H21   H     H_    0.969087 0.800863 0.021098 0.177512
H22   H     H_    0.831797 0.024070 0.902668 -0.020552
H23   H     H_    0.669977 0.845033 0.829804 0.175533
H24   H     H_    0.996007 0.184827 0.055098 0.167381
H25   H     H_    0.923445 0.201739 0.132794 0.236661
H26   H     H_    0.144002 0.475121 0.322907 0.142318
H27   H     H_    0.456270 0.631774 0.820427 0.231992
H28   H     H_    0.296466 0.120294 0.236534 0.152142
H29   H     H_    0.449020 0.696168 0.324041 0.156646
H30   H     H_    0.533410 0.299175 0.206961 0.312287
H31   H     H_    0.265933 0.921204 0.286006 0.371913
H32   H     H_    0.450369 0.960024 0.198169 0.303198
H33   H     H_    0.335517 0.754693 0.677457 0.320331
H34   H     H_    0.853037 0.678664 0.836447 0.118735
H35   H     H_    0.450579 0.798235 0.193882 0.332686
H36   H     H_    0.636152 0.255161 0.705545 0.306808
H37   H     H_    0.355925 0.534484 0.172797 0.168280
H38   H     H_    0.617940 0.880861 0.675511 0.112117
H39   H     H_    0.708476 0.445939 0.330865 0.138134
H40   H     H_    0.986965 0.490173 0.020315 0.159768
H41   H     H_    0.158201 0.712119 0.367191 0.159006
N1    N     N_R   0.291070 0.347930 0.293870 -0.042695
N2    N     N_R   0.497240 0.291100 0.443210 -0.083843
N3    N     N_R   0.347890 0.554050 0.556810 -0.067159
N4    N     N_R   0.554050 0.347900 0.556830 -0.082311
N5    N     N_R   0.291070 0.497250 0.443190 -0.069020
N6    N     N_R   0.497240 0.554030 0.706140 -0.092669
N7    N     N_R   0.347890 0.291110 0.293870 -0.049205
N8    N     N_R   0.445950 0.652100 0.443170 -0.042801
N9    N     N_R   0.708930 0.502750 0.556810 -0.044875
N10   N     N_R   0.502760 0.445970 0.293860 -0.102373
N11   N     N_R   0.652110 0.708890 0.706130 -0.046573
N12   N     N_R   0.708930 0.652070 0.706130 -0.052534
N13   N     N_R   0.445950 0.502780 0.293850 -0.062327
N14   N     N_R   0.502760 0.708900 0.556790 -0.034466
N15   N     N_R   0.652110 0.445950 0.443190 -0.056842
N16   N     N_R   0.554050 0.497220 0.706150 -0.124948
Ni1   Ni    Ni4+2 0.369690 0.500010 0.369700 0.210204
Ni2   Ni    Ni4+2 0.630310 0.499990 0.630300 0.281465
Ni3   Ni    Ni4+2 0.500000 0.369720 0.369720 0.203448
Ni4   Ni    Ni4+2 0.500000 0.630280 0.630280 0.267424
O1    O     O_3   0.520599 0.328765 0.156646 -0.785785
O2    O     O_3   0.343857 0.976107 0.344517 -0.782508
O3    O     O_3   0.385526 0.949324 0.206306 -0.703893
O4    O     O_3   0.360675 0.703188 0.688299 -0.768617
O5    O     O_3   0.385612 0.768948 0.201037 -0.689360
O6    O     O_3   0.656514 0.321042 0.697868 -0.707216

loop_
_geom_bond_atom_site_label_1
_geom_bond_atom_site_label_2
_ccdc_geom_bond_type
C25   C31   A    
C49   O2    S    
C18   H4    S    
C6    C45   A    
N11   Ni4   S    
C27   C29   A    
C53   C63   S    
N2    Ni3   S    
C54   C55   A    
C61   H27   S    
N9    Ni2   S    
C3    C6    A    
C3    N14   A    
N11   N12   A    
C39   C41   S    
C46   H18   S    
C40   N4    A    
C53   C54   A    
C41   H15   S    
C21   H5    S    
C26   C27   A    
C37   C38   A    
N1    Ni1   S    
C18   C24   A    
C22   C24   A    
C36   C37   A    
C3    H38   S    
C39   H13   S    
N9    N15   A    
C30   C31   A    
N8    N14   A    
C5    H39   S    
C10   C17   A    
C23   C40   A    
C1    C63   A    
C52   H26   S    
C18   C19   A    
H32   O3    S    
C9    C66   A    
C13   C14   A    
N1    N7    A    
C50   H19   S    
C35   C36   A    
C35   F4    S    
C36   H11   S    
N3    N5    A    
C40   O6    S    
C11   H41   S    
N7    Ni3   S    
C32   C41   S    
C32   C38   A    
C4    C12   A    
N5    Ni1   S    
C9    C57   S    
C27   F3    S    
C30   H9    S    
C52   N5    A    
C49   O3    S    
C28   C34   A    
C59   C60   S    
C21   C22   A    
C1    N1    A    
C7    C56   A    
C41   H16   S    
C17   H40   S    
C44   C46   A    
N15   Ni3   S    
N3    Ni4   S    
C60   H24   S    
C22   C34   S    
C50   O5    S    
C1    H1    S    
C23   C47   S    
C4    N16   A    
N8    Ni1   S    
C14   H2    S    
C5    C7    A    
H35   O5    S    
C58   C59   S    
C10   F1    S    
C13   C24   S    
C16   N2    A    
C51   C53   A    
C43   C44   A    
H31   O2    S    
C29   C30   A    
C28   N3    A    
C47   C48   A    
C29   H8    S    
N14   Ni4   S    
C5    N15   A    
C62   C63   A    
N12   Ni2   S    
C51   C58   A    
C42   C48   A    
C62   N7    A    
C8    C64   A    
C60   H25   S    
C45   N8    A    
C48   C49   S    
C55   H21   S    
C42   C50   S    
C16   C23   A    
C7    C19   S    
C6    C43   S    
C55   C57   A    
C26   H7    S    
C25   H6    S    
C8    C37   S    
C39   H14   S    
C66   H34   S    
N10   Ni3   S    
C56   H12   S    
C4    F2    S    
C64   O1    S    
C15   C17   A    
C46   C47   A    
C65   H23   S    
H33   O4    S    
C61   N6    A    
C28   O4    S    
C2    C8    A    
C45   H29   S    
N16   Ni2   S    
N2    N4    A    
H30   O1    S    
C19   C20   A    
C34   C52   A    
C56   N9    A    
N10   N13   A    
C25   C26   A    
C54   H20   S    
C32   C33   A    
C12   C61   A    
C11   C13   A    
C57   C58   A    
C38   C39   S    
H36   O6    S    
C64   N10   A    
C2    H37   S    
C16   H10   S    
C33   C35   A    
C66   N12   A    
C65   N11   A    
C9    C65   A    
N6    Ni4   S    
C10   C11   A    
C62   H28   S    
C2    N13   A    
N13   Ni1   S    
C15   H3    S    
N4    Ni2   S    
C20   C21   A    
C49   C50   S    
C42   C43   A    
C14   C15   A    
C51   C60   S    
C59   H22   S    
C12   C33   S    
C44   H17   S    
N6    N16   A    
C59   F5    S    
C20   C31   S    
