data_mof_unit_33910.cif
_audit_creation_date              2012-10-26T20:38:24-0400
_audit_creation_method            fapswitch 2.2
_symmetry_space_group_name_H-M    P1
_symmetry_Int_Tables_number       1
_space_group_crystal_system       triclinic
_cell_length_a                    15.876134
_cell_length_b                    11.040298
_cell_length_c                    9.902756
_cell_angle_alpha                 112.938407
_cell_angle_beta                  98.231039
_cell_angle_gamma                 90.690005
_cell_volume                      1577.61955987

loop_
_atom_site_label
_atom_site_type_symbol
_atom_type_description
_atom_site_fract_x
_atom_site_fract_y
_atom_site_fract_z
_atom_type_partial_charge
C1    C     C_R   0.495124 0.252714 0.437641 0.563023
C2    C     C_3   0.025432 0.593038 0.457217 0.027937
C3    C     C_3   0.019076 0.382654 0.407190 0.028022
C4    C     C_3   0.980923 0.617346 0.592809 0.028022
C5    C     C_1   0.250663 0.500455 0.503422 -0.042627
C6    C     C_1   0.749337 0.499545 0.496578 -0.042628
C7    C     C_3   0.039881 0.524943 0.639783 -0.099463
C8    C     C_3   0.960119 0.475057 0.360217 -0.099463
C9    C     C_3   0.083526 0.500320 0.502425 0.050842
C10   C     C_3   0.916474 0.499680 0.497575 0.050842
C11   C     C_1   0.175250 0.500512 0.503799 -0.064739
C12   C     C_R   0.504876 0.747286 0.562359 0.563023
C13   C     C_1   0.824750 0.499488 0.496201 -0.064739
C14   C     C_2   0.489386 0.109278 0.396004 -0.009302
C15   C     C_2   0.510617 0.890722 0.603996 -0.009300
C16   C     C_3   0.041465 0.248967 0.301786 -0.409318
C17   C     C_3   0.958535 0.751032 0.698213 -0.409318
C18   C     C_3   0.944905 0.300860 0.591179 -0.409060
C19   C     C_3   0.055094 0.699139 0.408821 -0.409059
C20   C     C_3   0.392689 0.878846 0.408586 -0.373771
C21   C     C_3   0.607315 0.121154 0.591410 -0.373771
C22   C     C_3   0.543509 0.978927 0.764754 -0.414148
C23   C     C_2   0.520810 0.060750 0.497600 0.013160
C24   C     C_3   0.456501 0.021071 0.235243 -0.414149
C25   C     C_3   0.600423 0.659212 0.958701 -0.224781
C26   C     C_3   0.399577 0.340787 0.041299 -0.224781
C27   C     C_2   0.479193 0.939251 0.502401 0.013159
C28   C     C_2   0.506289 0.511108 0.081773 0.013321
C29   C     C_2   0.493711 0.488892 0.918227 0.013321
C30   C     C_R   0.340011 0.500098 0.501102 0.546370
C31   C     C_R   0.659989 0.499902 0.498898 0.546369
C32   C     C_3   0.974568 0.406962 0.542783 0.027937
Cu1   Cu    Cu3+1 0.514700 0.521810 0.644910 0.914435
Cu2   Cu    Cu3+1 0.485300 0.478190 0.355090 0.914435
H1    H     H_    0.927117 0.454693 0.246054 0.099544
H2    H     H_    0.926423 0.738694 0.784968 0.127778
H3    H     H_    0.000422 0.248896 0.616716 0.123984
H4    H     H_    0.914598 0.346816 0.691837 0.129228
H5    H     H_    0.897880 0.228867 0.500636 0.130416
H6    H     H_    0.999578 0.751104 0.383283 0.123984
H7    H     H_    0.102120 0.771132 0.499364 0.130416
H8    H     H_    0.085402 0.653184 0.308163 0.129228
H9    H     H_    0.351471 0.957082 0.400970 0.117486
H10   H     H_    0.399985 0.807282 0.296284 0.146474
H11   H     H_    0.357282 0.825440 0.460365 0.127460
H12   H     H_    0.072882 0.545306 0.753946 0.099544
H13   H     H_    0.648534 0.042917 0.599019 0.117486
H14   H     H_    0.642720 0.174562 0.539630 0.127460
H15   H     H_    0.600021 0.192716 0.703714 0.146472
H16   H     H_    0.515208 0.942586 0.839499 0.140703
H17   H     H_    0.613957 0.978929 0.788794 0.120793
H18   H     H_    0.523602 0.080688 0.793469 0.126205
H19   H     H_    0.484810 0.057413 0.160505 0.140703
H20   H     H_    0.476408 0.919311 0.206533 0.126204
H21   H     H_    0.386055 0.021069 0.211192 0.120796
H22   H     H_    0.629476 0.703340 0.891509 0.163218
H23   H     H_    0.445957 0.413641 0.841085 0.137229
H24   H     H_    0.570515 0.738387 0.042458 0.084054
H25   H     H_    0.652186 0.619411 0.013928 0.089718
H26   H     H_    0.370525 0.296659 0.108490 0.163218
H27   H     H_    0.347814 0.380588 0.986071 0.089717
H28   H     H_    0.429485 0.261612 0.957542 0.084056
H29   H     H_    0.554043 0.586360 0.158915 0.137229
H30   H     H_    0.982367 0.183067 0.248162 0.124567
H31   H     H_    0.073577 0.261306 0.215032 0.127778
H32   H     H_    0.084910 0.204227 0.364606 0.130183
H33   H     H_    0.017633 0.816933 0.751838 0.124567
H34   H     H_    0.915089 0.795773 0.635394 0.130183
N1    N     N_2   0.463210 0.445420 0.137360 -0.239948
N2    N     N_2   0.536790 0.554580 0.862640 -0.239947
O1    O     O_R   0.507840 0.332340 0.577400 -0.498382
O2    O     O_R   0.492160 0.667660 0.422600 -0.498384
O3    O     O_R   0.483020 0.295500 0.332650 -0.499911
O4    O     O_R   0.516980 0.704500 0.667350 -0.499911
O5    O     O_R   0.391490 0.518400 0.622350 -0.494362
O6    O     O_R   0.608510 0.481600 0.377650 -0.494362
O7    O     O_R   0.366660 0.481570 0.377600 -0.496337
O8    O     O_R   0.633340 0.518430 0.622400 -0.496337

loop_
_geom_bond_atom_site_label_1
_geom_bond_atom_site_label_2
_ccdc_geom_bond_type
C12   O4    A    
C28   N1    D    
C25   H22   S    
C21   H15   S    
C24   H21   S    
C1    O1    A    
C28   C29   S    
C26   H27   S    
C5    C11   T    
Cu2   O7    S    
Cu1   O8    S    
C24   H20   S    
C14   C24   S    
C30   O7    A    
Cu1   O5    S    
C15   C22   S    
C17   H2    S    
C23   C27   S    
C20   H11   S    
C19   H8    S    
C22   H16   S    
C21   H14   S    
C6    C31   S    
C12   O2    A    
C4    C7    S    
C20   H10   S    
C17   H33   S    
C7    H12   S    
C3    C8    S    
C24   H19   S    
C29   N2    D    
C8    H1    S    
C14   C23   D    
C2    C4    S    
C18   H5    S    
C3    C9    S    
C15   C27   D    
C12   C15   S    
Cu1   Cu2   S    
C9    C11   S    
Cu2   N1    S    
Cu1   N2    S    
C4    C17   S    
C29   H23   S    
C21   C23   S    
C18   C32   S    
C25   H24   S    
C4    C10   S    
Cu2   O2    S    
C20   H9    S    
C31   O8    A    
C22   H18   S    
C5    C30   S    
C7    C9    S    
C17   H34   S    
C7    C32   S    
C2    C19   S    
C18   H3    S    
C2    C8    S    
C10   C13   S    
C25   N2    S    
C20   C27   S    
C16   H30   S    
C1    O3    A    
C18   H4    S    
C6    C13   T    
C30   O5    A    
C31   O6    A    
C16   H31   S    
C26   H28   S    
C3    C32   S    
C19   H6    S    
Cu1   O1    S    
Cu2   O3    S    
C28   H29   S    
C10   C32   S    
Cu1   O4    S    
C16   H32   S    
C8    C10   S    
C26   N1    S    
C1    C14   S    
C25   H25   S    
C2    C9    S    
C26   H26   S    
C3    C16   S    
C19   H7    S    
Cu2   O6    S    
C22   H17   S    
C21   H13   S    
