data_mof_unit_53324.cif
_audit_creation_date              2012-12-10T17:15:12-0500
_audit_creation_method            fapswitch 2.2
_symmetry_space_group_name_H-M    P1
_symmetry_Int_Tables_number       1
_space_group_crystal_system       triclinic
_cell_length_a                    10.149955
_cell_length_b                    10.755387
_cell_length_c                    12.840137
_cell_angle_alpha                 93.036506
_cell_angle_beta                  91.659601
_cell_angle_gamma                 96.401191
_cell_volume                      1390.16182922

loop_
_atom_site_label
_atom_site_type_symbol
_atom_type_description
_atom_site_fract_x
_atom_site_fract_y
_atom_site_fract_z
_atom_type_partial_charge
C1    C     C_R   0.442879 0.266647 0.490135 0.898329
C2    C     C_R   0.557121 0.733353 0.509865 0.898328
C3    C     C_2   0.070361 0.489225 0.506005 -0.027668
C4    C     C_2   0.929613 0.510624 0.493862 -0.027618
C5    C     C_R   0.473054 0.501020 0.697994 0.908826
C6    C     C_R   0.526945 0.498980 0.302005 0.908804
C7    C     C_R   0.546959 0.501101 0.191671 -0.129332
C8    C     C_R   0.453036 0.498903 0.808324 -0.129340
C9    C     C_R   0.329973 0.425690 0.955234 0.218888
C10   C     C_R   0.670013 0.574320 0.044757 0.218889
C11   C     C_R   0.342319 0.427032 0.847075 0.124130
C12   C     C_R   0.657679 0.572965 0.152917 0.124126
C13   C     C_R   0.549137 0.567200 0.875301 0.106150
C14   C     C_R   0.450844 0.432818 0.124696 0.106160
C15   C     C_R   0.555831 0.535881 0.979672 0.002900
C16   C     C_R   0.444149 0.464139 0.020325 0.002903
C17   C     C_2   0.402733 0.132208 0.483700 -0.002925
C18   C     C_2   0.597266 0.867792 0.516300 -0.002930
C19   C     C_2   0.496988 0.055718 0.468193 0.206337
C20   C     C_2   0.503010 0.944282 0.531806 0.206321
H1    H     H_    0.899819 0.579975 0.442648 0.141585
H2    H     H_    0.100140 0.419786 0.557141 0.141594
N1    N     N_2   0.162330 0.550370 0.457540 -0.055968
N2    N     N_2   0.837670 0.449630 0.542460 -0.055978
O1    O     O_R   0.567930 0.307680 0.508550 -0.606850
O2    O     O_R   0.432070 0.692320 0.491450 -0.606890
O3    O     O_R   0.351090 0.340020 0.481290 -0.610331
O4    O     O_R   0.648910 0.659980 0.518710 -0.610295
O5    O     O_R   0.590490 0.486480 0.665020 -0.605163
O6    O     O_R   0.409510 0.513520 0.334980 -0.605116
O7    O     O_R   0.373660 0.518820 0.637760 -0.612267
O8    O     O_R   0.626340 0.481180 0.362240 -0.612304
Zn1   Zn    Zn3+2 0.644780 0.478400 0.518200 0.934146
Zn2   Zn    Zn3+2 0.355220 0.521600 0.481800 0.934148
C21   C     C_3   0.370254 0.317409 0.162981 -0.855782
H3    H     H_    0.430433 0.270908 0.219462 0.213596
H4    H     H_    0.280422 0.342750 0.202481 0.256702
H5    H     H_    0.342690 0.246011 0.098232 0.242438
C22   C     C_3   0.629718 0.682617 0.837016 -0.855789
H6    H     H_    0.569532 0.729115 0.780540 0.213598
H7    H     H_    0.657282 0.754013 0.901766 0.242440
H8    H     H_    0.719551 0.657286 0.797512 0.256702
C23   C     C_3   0.762102 0.646268 0.225850 -0.889846
H9    H     H_    0.827691 0.716015 0.185123 0.241314
H10   H     H_    0.714308 0.700222 0.287415 0.230522
H11   H     H_    0.824452 0.580834 0.262058 0.247135
C24   C     C_3   0.237918 0.353695 0.774139 -0.889823
H12   H     H_    0.172314 0.283967 0.814873 0.241311
H13   H     H_    0.175577 0.419106 0.737887 0.247170
H14   H     H_    0.285737 0.299717 0.712604 0.230494
C25   C     C_3   0.192516 0.402688 0.998766 -0.904910
H15   H     H_    0.187708 0.452209 0.076313 0.248453
H16   H     H_    0.118777 0.442189 0.948174 0.245407
H17   H     H_    0.161892 0.300898 0.003402 0.239218
C26   C     C_3   0.807466 0.597326 0.001218 -0.904902
H18   H     H_    0.812266 0.547812 0.923667 0.248453
H19   H     H_    0.838088 0.699117 0.996586 0.239221
H20   H     H_    0.881212 0.557820 0.051801 0.245405
C27   C     C_3   0.406858 0.916347 0.618697 -0.891173
H21   H     H_    0.394866 0.003653 0.665785 0.237651
H22   H     H_    0.309357 0.871526 0.586957 0.258092
H23   H     H_    0.444982 0.851455 0.673690 0.221562
C28   C     C_3   0.593138 0.083652 0.381300 -0.891183
H24   H     H_    0.605130 0.996345 0.334214 0.237651
H25   H     H_    0.555011 0.148542 0.326307 0.221560
H26   H     H_    0.690639 0.128473 0.413039 0.258091
C29   C     C_3   0.742726 0.915185 0.509972 -0.944280
H27   H     H_    0.802685 0.862793 0.562338 0.256573
H28   H     H_    0.775995 0.901069 0.429045 0.244035
H29   H     H_    0.763339 0.015082 0.537766 0.253506
C30   C     C_3   0.257273 0.084816 0.490027 -0.944309
H30   H     H_    0.197315 0.137210 0.437662 0.256566
H31   H     H_    0.236659 0.984920 0.462231 0.253506
H32   H     H_    0.224004 0.098930 0.570954 0.244038
C31   C     C_3   0.864564 0.353993 0.613235 -0.650439
H33   H     H_    0.770245 0.314568 0.646296 0.243956
H34   H     H_    0.907696 0.276129 0.570919 0.183805
H35   H     H_    0.931279 0.395137 0.679310 0.181675
C32   C     C_3   0.135450 0.646119 0.386869 -0.650448
H36   H     H_    0.229789 0.685676 0.353920 0.243953
H37   H     H_    0.068842 0.605047 0.320706 0.181672
H38   H     H_    0.092198 0.723870 0.429243 0.183824

loop_
_geom_bond_atom_site_label_1
_geom_bond_atom_site_label_2
_ccdc_geom_bond_type
C6    O8    A    
C26   H18   S    
C28   H25   S    
C8    C13   A    
C2    C18   S    
C3    N1    D    
C19   C20   S    
C9    C25   S    
C23   H9    S    
C22   H7    S    
C21   H4    S    
C9    C16   A    
C12   C23   S    
C10   C15   A    
C4    N2    D    
C15   C16   A    
O5    Zn1   S    
C11   C24   S    
O2    Zn2   S    
C7    C14   A    
C21   H3    S    
C19   C28   S    
C22   H8    S    
C9    C11   A    
C28   H26   S    
C27   H21   S    
C1    O1    A    
C31   H35   S    
C24   H14   S    
C5    O5    A    
O3    Zn2   S    
C7    C12   A    
C27   H22   S    
O6    Zn2   S    
C29   H27   S    
C21   H5    S    
C24   H13   S    
C22   H6    S    
C30   H31   S    
C18   C29   S    
C25   H15   S    
C25   H16   S    
C31   H33   S    
C32   H38   S    
C31   H34   S    
C24   H12   S    
N1    Zn2   S    
O7    Zn2   S    
C2    O2    A    
C20   C27   S    
C10   C26   S    
C23   H10   S    
C10   C12   A    
C6    O6    A    
O4    Zn1   S    
C17   C30   S    
C13   C15   A    
C14   C16   A    
C5    C8    S    
C3    C4    S    
C14   C21   S    
C32   H37   S    
C27   H23   S    
C28   H24   S    
C30   H32   S    
N2    C31   S    
C6    C7    S    
C1    C17   S    
N2    Zn1   S    
C25   H17   S    
N1    C32   S    
O8    Zn1   S    
C29   H29   S    
C26   H19   S    
C30   H30   S    
C4    H1    S    
C8    C11   A    
C17   C19   D    
C18   C20   D    
C23   H11   S    
C13   C22   S    
C32   H36   S    
C26   H20   S    
C1    O3    A    
C3    H2    S    
C2    O4    A    
C29   H28   S    
O1    Zn1   S    
C5    O7    A    
