data_mof_unit_21857.cif
_audit_creation_date              2012-12-10T17:49:32-0500
_audit_creation_method            fapswitch 2.2
_symmetry_space_group_name_H-M    P1
_symmetry_Int_Tables_number       1
_space_group_crystal_system       triclinic
_cell_length_a                    14.710557
_cell_length_b                    14.615476
_cell_length_c                    15.867791
_cell_angle_alpha                 76.634725
_cell_angle_beta                  102.785155
_cell_angle_gamma                 114.661374
_cell_volume                      2986.23767549

loop_
_atom_site_label
_atom_site_type_symbol
_atom_type_description
_atom_site_fract_x
_atom_site_fract_y
_atom_site_fract_z
_atom_type_partial_charge
C1    C     C_R   0.880420 0.311562 0.515694 0.829751
C2    C     C_3   0.079125 0.462209 0.072561 -0.402184
C3    C     C_3   0.996680 0.496994 0.082553 0.192853
C4    C     C_3   0.016557 0.604926 0.029468 -0.452860
C5    C     C_3   0.010452 0.603569 0.930782 0.289379
C6    C     C_1   0.998692 0.498267 0.174973 -0.046643
C7    C     C_1   0.996181 0.496481 0.824727 0.067078
C8    C     C_1   0.997885 0.498096 0.749239 -0.153911
C9    C     C_R   0.812818 0.202616 0.530136 -0.135375
C10   C     C_R   0.186292 0.796821 0.478595 -0.102733
C11   C     C_R   0.778206 0.024059 0.586254 -0.312660
C12   C     C_R   0.999559 0.499703 0.659686 0.821548
C13   C     C_R   0.849204 0.124507 0.568000 0.454432
C14   C     C_R   0.708541 0.178290 0.507713 -0.339241
C15   C     C_R   0.637543 0.078811 0.526910 0.090459
C16   C     C_R   0.674311 0.001150 0.565279 0.111568
C17   C     C_R   0.531231 0.054217 0.508816 0.087588
C18   C     C_R   0.463884 0.950279 0.521809 0.083848
C19   C     C_R   0.504031 0.875456 0.562199 -0.223394
C20   C     C_R   0.607127 0.900788 0.583731 -0.204116
C21   C     C_R   0.489869 0.129820 0.480810 -0.256459
C22   C     C_R   0.386195 0.104136 0.463273 -0.206347
C23   C     C_R   0.119461 0.688187 0.485484 0.817951
C24   C     C_R   0.319118 0.002187 0.470033 0.079248
C25   C     C_R   0.358139 0.924492 0.496779 0.025295
C26   C     C_R   0.213772 0.977144 0.449281 0.431918
C27   C     C_R   0.147877 0.873519 0.457122 -0.319379
C28   C     C_R   0.290388 0.823047 0.495831 -0.262678
C29   C     C_R   0.711613 0.663646 0.350585 -0.329136
C30   C     C_R   0.794886 0.636501 0.375608 0.072553
C31   C     C_R   0.715754 0.510043 0.489574 0.008341
C32   C     C_R   0.628620 0.534639 0.467972 0.004150
C33   C     C_R   0.628265 0.612949 0.396249 0.169191
C34   C     C_R   0.000173 0.499931 0.340256 0.818268
C35   C     C_R   0.542752 0.485085 0.514366 -0.000960
C36   C     C_R   0.457310 0.513736 0.486671 0.072393
C37   C     C_R   0.461257 0.592017 0.414373 -0.209054
C38   C     C_R   0.545061 0.640507 0.370544 -0.200479
C39   C     C_R   0.540125 0.408892 0.588008 -0.309176
C40   C     C_R   0.456978 0.360695 0.633176 0.460591
C41   C     C_R   0.373445 0.388968 0.607290 0.052816
C42   C     C_R   0.371515 0.464315 0.533048 -0.082267
C43   C     C_R   0.291509 0.342710 0.655096 -0.306639
C44   C     C_R   0.207765 0.368904 0.628479 0.084935
C45   C     C_3   0.080815 0.465531 0.974849 -0.433065
C46   C     C_R   0.283168 0.487011 0.509144 0.034778
C47   C     C_3   0.890241 0.414328 0.945640 0.875008
C48   C     C_3   0.892109 0.422966 0.044391 -0.510213
C49   C     C_1   0.999906 0.499090 0.250648 -0.189751
C50   C     C_3   0.993902 0.494922 0.917044 0.145064
Cu1   Cu    Cu3+1 0.081750 0.475690 0.522550 0.955827
Cu2   Cu    Cu3+1 0.918250 0.524310 0.477450 0.934685
H1    H     H_    0.064327 0.383345 0.108131 0.174742
H2    H     H_    0.155163 0.521785 0.956330 0.215487
H3    H     H_    0.154573 0.512523 0.102025 0.184367
H4    H     H_    0.960007 0.633016 0.037999 0.136321
H5    H     H_    0.634447 0.840936 0.614793 0.147550
H6    H     H_    0.317331 0.762634 0.506666 0.162764
H7    H     H_    0.066972 0.852501 0.446588 0.151037
H8    H     H_    0.358920 0.165355 0.443304 0.189443
H9    H     H_    0.802996 0.963099 0.618856 0.127054
H10   H     H_    0.684293 0.238789 0.473979 0.175095
H11   H     H_    0.073933 0.390080 0.964386 0.196935
H12   H     H_    0.457578 0.796581 0.581380 0.147552
H13   H     H_    0.535314 0.210286 0.475118 0.147359
H14   H     H_    0.544676 0.700535 0.315717 0.137412
H15   H     H_    0.274504 0.542136 0.453337 0.120445
H16   H     H_    0.144606 0.332651 0.665223 0.157136
H17   H     H_    0.712406 0.724037 0.295868 0.134171
H18   H     H_    0.859419 0.675765 0.340614 0.121404
H19   H     H_    0.722522 0.451027 0.542337 0.129074
H20   H     H_    0.400957 0.618848 0.390146 0.127564
H21   H     H_    0.602377 0.385252 0.613511 0.158689
H22   H     H_    0.291505 0.286067 0.712764 0.168791
H23   H     H_    0.870532 0.350037 0.089894 0.153069
H24   H     H_    0.835118 0.453709 0.046466 0.171137
H25   H     H_    0.943293 0.619909 0.894277 0.116259
H26   H     H_    0.092264 0.658904 0.054856 0.199347
N1    N     N_R   0.795410 0.560790 0.443550 -0.176841
N2    N     N_R   0.204590 0.439170 0.556520 -0.178560
O1    O     O_R   0.977910 0.338120 0.529720 -0.530052
O2    O     O_R   0.839850 0.379180 0.491640 -0.599601
O3    O     O_R   0.069060 0.479460 0.639610 -0.580855
O4    O     O_R   0.931000 0.520530 0.601530 -0.575101
O5    O     O_R   0.160150 0.620820 0.508360 -0.591546
O6    O     O_R   0.022090 0.661880 0.470280 -0.589712
O7    O     O_R   0.069000 0.479470 0.398470 -0.583161
O8    O     O_R   0.930940 0.520540 0.360390 -0.579131
O9    O     O_3   0.952740 0.150030 0.593463 -0.572511
C51   C     C_3   0.985014 0.077843 0.577129 0.050053
H27   H     H_    0.951750 0.056048 0.510858 0.141841
H28   H     H_    0.965642 0.009038 0.628134 0.140130
C52   C     C_3   0.099339 0.123139 0.582500 -0.753633
H29   H     H_    0.125254 0.066014 0.571847 0.232976
H30   H     H_    0.123734 0.191915 0.532107 0.262533
H31   H     H_    0.134329 0.143778 0.648509 0.224210
O10   O     O_3   0.178217 0.055377 0.429181 -0.608435
C53   C     C_3   0.099016 0.040670 0.358091 0.055003
H32   H     H_    0.026025 0.987989 0.381307 0.141239
H33   H     H_    0.112962 0.010575 0.305759 0.139862
C54   C     C_3   0.090473 0.142495 0.318429 -0.799629
H34   H     H_    0.162466 0.197667 0.294953 0.247992
H35   H     H_    0.028575 0.132232 0.262317 0.192021
H36   H     H_    0.073659 0.173540 0.368099 0.252043
O11   O     O_3   0.460569 0.288743 0.706513 -0.599532
C55   C     C_3   0.422748 0.190795 0.681960 0.047437
H37   H     H_    0.385346 0.186644 0.612724 0.143660
H38   H     H_    0.364461 0.138065 0.723780 0.159494
C56   C     C_3   0.507570 0.152147 0.698392 -0.782931
H39   H     H_    0.542833 0.152029 0.767938 0.243936
H40   H     H_    0.476774 0.073224 0.683556 0.217678
H41   H     H_    0.566111 0.201625 0.655875 0.240017
O12   O     O_3   0.813075 0.444137 0.890709 -0.635594
C57   C     C_3   0.715501 0.366827 0.894798 -0.255851
H42   H     H_    0.698038 0.339106 0.962955 0.131624
H43   H     H_    0.705610 0.302757 0.862562 0.208845
H44   H     H_    0.659380 0.399163 0.858001 0.197976
O13   O     O_3   0.881247 0.318652 0.927181 -0.586402
C58   C     C_3   0.849631 0.232987 0.992544 -0.397903
H45   H     H_    0.910884 0.237228 0.048699 0.167720
H46   H     H_    0.834504 0.164172 0.964774 0.201012
H47   H     H_    0.777980 0.221984 0.013197 0.156545
O14   O     O_3   0.101546 0.676157 0.900000 -0.578015
C59   C     C_3   0.095286 0.772143 0.865922 0.063647
H48   H     H_    0.172268 0.831909 0.876783 0.169186
H49   H     H_    0.046361 0.789095 0.899543 0.120562
C60   C     C_3   0.059482 0.780093 0.767585 -0.828282
H50   H     H_    0.981332 0.723489 0.753898 0.240117
H51   H     H_    0.060412 0.857671 0.740738 0.203187
H52   H     H_    0.110254 0.765836 0.734367 0.257729

loop_
_geom_bond_atom_site_label_1
_geom_bond_atom_site_label_2
_ccdc_geom_bond_type
C10   C27   A    
C52   H29   S    
C41   C42   A    
C48   H24   S    
C36   C42   A    
C19   C20   A    
C9    C14   A    
C3    C6    S    
Cu1   O5    S    
O10   C53   S    
O14   C59   S    
C25   C28   A    
C26   C27   A    
C54   H34   S    
C36   C37   A    
C24   C26   A    
C2    H3    S    
C56   H40   S    
C22   H8    S    
C55   H37   S    
C1    O1    A    
C15   C16   A    
C14   H10   S    
C29   C33   A    
C3    C48   S    
C12   O4    A    
C47   O12   S    
C18   C19   A    
C42   C46   A    
Cu2   O4    S    
C9    C13   A    
O13   C58   S    
Cu1   N2    S    
C47   O13   S    
C38   H14   S    
C23   O6    A    
Cu2   N1    S    
Cu1   O1    S    
C16   C20   A    
C21   H13   S    
C43   H22   S    
C31   H19   S    
C54   H35   S    
C21   C22   A    
C4    H4    S    
C41   C43   A    
C48   H23   S    
C18   C25   A    
C30   H18   S    
C57   H42   S    
C47   C50   S    
C29   H17   S    
C58   H46   S    
C2    C45   S    
Cu1   Cu2   S    
C32   C35   A    
Cu2   O8    S    
C1    C9    S    
C24   C25   A    
C56   H41   S    
Cu1   O7    S    
C39   C40   A    
C1    O2    A    
C45   H11   S    
C17   C21   A    
C12   O3    A    
C35   C36   A    
C35   C39   A    
C43   C44   A    
C60   H51   S    
C4    H26   S    
C37   C38   A    
C11   C16   A    
C51   H28   S    
C47   C48   S    
C44   N2    A    
C19   H12   S    
C8    C12   S    
C17   C18   A    
C34   O8    A    
Cu2   O2    S    
C59   C60   S    
C30   N1    A    
C40   C41   A    
C45   H2    S    
C52   H31   S    
C53   H33   S    
C22   C24   A    
C5    C50   S    
C44   H16   S    
C5    H25   S    
C3    C4    S    
Cu1   O3    S    
C51   C52   S    
C59   H49   S    
O12   C57   S    
C58   H47   S    
C10   C28   A    
C15   C17   A    
C34   C49   S    
C13   O9    S    
C31   C32   A    
C7    C50   S    
C4    C5    S    
C11   H9    S    
C2    H1    S    
C57   H43   S    
C58   H45   S    
C31   N1    A    
C28   H6    S    
C10   C23   S    
C54   H36   S    
C53   C54   S    
O11   C55   S    
C5    O14   S    
C33   C38   A    
C32   C33   A    
Cu2   O6    S    
C2    C3    S    
C20   H5    S    
C60   H52   S    
C46   H15   S    
C27   H7    S    
C56   H39   S    
C46   N2    A    
C11   C13   A    
C51   H27   S    
C55   H38   S    
C45   C50   S    
C34   O7    A    
C39   H21   S    
C6    C49   T    
C57   H44   S    
C7    C8    T    
C26   O10   S    
C29   C30   A    
C52   H30   S    
C53   H32   S    
C23   O5    A    
C37   H20   S    
C14   C15   A    
C59   H48   S    
O9    C51   S    
C60   H50   S    
C40   O11   S    
C55   C56   S    
