data_mof_unit_46392.cif
_audit_creation_date              2012-12-10T21:11:33-0500
_audit_creation_method            fapswitch 2.2
_symmetry_space_group_name_H-M    P1
_symmetry_Int_Tables_number       1
_space_group_crystal_system       triclinic
_cell_length_a                    17.546264
_cell_length_b                    16.871077
_cell_length_c                    10.73163
_cell_angle_alpha                 89.9995
_cell_angle_beta                  89.341256
_cell_angle_gamma                 90.000365
_cell_volume                      3176.61405565

loop_
_atom_site_label
_atom_site_type_symbol
_atom_type_description
_atom_site_fract_x
_atom_site_fract_y
_atom_site_fract_z
_atom_type_partial_charge
C1    C     C_R   0.352314 0.499824 0.508635 0.902900
C2    C     C_R   0.647686 0.499824 0.491367 0.902891
C3    C     C_R   0.891320 0.497080 0.438119 -0.179446
C4    C     C_R   0.108684 0.497085 0.561937 -0.179458
C5    C     C_1   0.968235 0.496777 0.480420 0.221716
C6    C     C_1   0.031768 0.496779 0.519640 0.221739
C7    C     C_R   0.467850 0.830330 0.400502 0.310555
C8    C     C_R   0.526921 0.169745 0.603636 0.307583
C9    C     C_R   0.532150 0.830331 0.599493 0.310638
C10   C     C_R   0.473072 0.169747 0.396366 0.307562
C11   C     C_R   0.468917 0.746968 0.403526 -0.114385
C12   C     C_R   0.525973 0.253049 0.600457 -0.113388
C13   C     C_R   0.531083 0.746969 0.596472 -0.114377
C14   C     C_R   0.474024 0.253051 0.399544 -0.113410
C15   C     C_R   0.499999 0.874801 0.499997 -0.202411
C16   C     C_R   0.499996 0.125219 0.500001 -0.205078
C17   C     C_1   0.499998 0.963374 0.499997 0.210722
C18   C     C_1   0.499997 0.036651 0.499999 0.205896
C19   C     C_R   0.510461 0.500122 0.259914 0.890878
C20   C     C_R   0.489542 0.500121 0.740087 0.890869
C21   C     C_R   0.539146 0.646777 0.111038 -0.177734
C22   C     C_R   0.459249 0.355115 0.890482 -0.185004
C23   C     C_R   0.460875 0.646779 0.888959 -0.177672
C24   C     C_R   0.540752 0.355115 0.109526 -0.185005
C25   C     C_R   0.521274 0.718337 0.054016 -0.039595
C26   C     C_R   0.477611 0.283634 0.947168 -0.033785
C27   C     C_R   0.478759 0.718338 0.945971 -0.039684
C28   C     C_R   0.522384 0.283633 0.052847 -0.033804
C29   C     C_R   0.484591 0.573519 0.940155 0.096819
C30   C     C_R   0.515897 0.428122 0.059400 0.097776
C31   C     C_R   0.515423 0.573518 0.059845 0.096817
C32   C     C_R   0.484108 0.428122 0.940605 0.097777
C33   C     C_R   0.478547 0.500645 0.875541 -0.248301
C34   C     C_R   0.521460 0.500645 0.124461 -0.248302
C35   C     C_R   0.853137 0.569251 0.427373 0.383319
C36   C     C_R   0.148090 0.425477 0.570208 0.381252
C37   C     C_R   0.146869 0.569256 0.572661 0.383333
C38   C     C_R   0.851913 0.425472 0.429854 0.381201
C39   C     C_R   0.773323 0.570964 0.445064 -0.156273
C40   C     C_R   0.227946 0.425537 0.552791 -0.156579
C41   C     C_R   0.226682 0.570967 0.554956 -0.156267
C42   C     C_R   0.772054 0.425534 0.447241 -0.156542
C43   C     C_R   0.731920 0.498853 0.463873 -0.254205
C44   C     C_R   0.268082 0.498855 0.536142 -0.254237
H1    H     H_    0.540921 0.228256 0.093140 0.184343
H2    H     H_    0.461370 0.773825 0.904458 0.177061
H3    H     H_    0.459069 0.228257 0.906880 0.184354
H4    H     H_    0.538671 0.773824 0.095522 0.177140
H5    H     H_    0.572242 0.649630 0.194552 0.144196
H6    H     H_    0.425248 0.352597 0.807873 0.142293
H7    H     H_    0.427773 0.649635 0.805450 0.144187
H8    H     H_    0.574755 0.352597 0.192133 0.142315
H9    H     H_    0.443745 0.713001 0.329275 0.211335
H10   H     H_    0.547232 0.286936 0.677971 0.210215
H11   H     H_    0.556258 0.713002 0.670722 0.211340
H12   H     H_    0.452764 0.286939 0.322031 0.210218
N1    N     N_R   0.500000 0.707230 0.500000 -0.145989
N2    N     N_R   0.500000 0.292770 0.500000 -0.143248
O1    O     O_R   0.389110 0.566570 0.499990 -0.609790
O2    O     O_R   0.610890 0.433430 0.500010 -0.609515
O3    O     O_R   0.610890 0.566570 0.500010 -0.609786
O4    O     O_R   0.389110 0.433430 0.499990 -0.609546
O5    O     O_R   0.499990 0.566540 0.316770 -0.622548
O6    O     O_R   0.500010 0.433460 0.683230 -0.622531
O7    O     O_R   0.500010 0.566540 0.683230 -0.622554
O8    O     O_R   0.499990 0.433460 0.316770 -0.622525
Zn1   Zn    Zn3+2 0.500000 0.588860 0.500000 0.947404
Zn2   Zn    Zn3+2 0.500000 0.411140 0.500000 0.948365
S1    S     S_3+6 0.905622 0.656286 0.384511 0.069603
O9    O     O_2   0.915145 0.707963 0.497259 -0.240628
O10   O     O_2   0.982733 0.634810 0.332240 -0.244524
O11   O     O_3   0.858865 0.707447 0.274815 -0.547178
H13   H     H_    0.883871 0.760056 0.272161 0.397209
S2    S     S_3+6 0.097078 0.336894 0.609947 0.071767
O12   O     O_2   0.018990 0.356153 0.660329 -0.239219
O13   O     O_2   0.089995 0.285765 0.496050 -0.240820
O14   O     O_3   0.143528 0.286030 0.720303 -0.548136
H14   H     H_    0.119624 0.232836 0.721199 0.397706
S3    S     S_3+6 0.094388 0.656293 0.615520 0.069578
O15   O     O_2   0.084862 0.707970 0.502772 -0.240487
O16   O     O_2   0.017279 0.634818 0.667800 -0.244665
O17   O     O_3   0.141151 0.707456 0.725204 -0.547186
H15   H     H_    0.116005 0.759994 0.728088 0.397253
S4    S     S_3+6 0.902929 0.336882 0.390169 0.071822
O18   O     O_2   0.981021 0.356127 0.339792 -0.238885
O19   O     O_2   0.910004 0.285783 0.504104 -0.241176
O20   O     O_3   0.856488 0.285994 0.279827 -0.547974
H16   H     H_    0.880031 0.232624 0.279562 0.397573
C45   C     C_R   0.736051 0.649409 0.445623 0.202604
C46   C     C_R   0.746203 0.700448 0.547075 -0.087931
C47   C     C_R   0.724401 0.779663 0.538411 -0.049451
C48   C     C_R   0.689146 0.807636 0.430782 -0.104913
C49   C     C_R   0.675984 0.756144 0.331353 -0.154969
C50   C     C_R   0.700179 0.677291 0.338104 -0.034057
H17   H     H_    0.774958 0.679943 0.629839 0.162909
H18   H     H_    0.736630 0.819356 0.614466 0.212166
H19   H     H_    0.672344 0.869201 0.424205 0.171790
H20   H     H_    0.649333 0.778014 0.247720 0.142051
H21   H     H_    0.694873 0.638900 0.257911 0.119949
C51   C     C_R   0.266659 0.347679 0.551719 0.206666
C52   C     C_R   0.300430 0.319102 0.660630 -0.039893
C53   C     C_R   0.326123 0.240751 0.666494 -0.148136
C54   C     C_R   0.317271 0.190508 0.564192 -0.108625
C55   C     C_R   0.284952 0.219243 0.454618 -0.063621
C56   C     C_R   0.260654 0.297893 0.447609 -0.079120
H22   H     H_    0.302663 0.356366 0.742566 0.122916
H23   H     H_    0.350873 0.218322 0.751351 0.146084
H24   H     H_    0.335492 0.129343 0.569760 0.169045
H25   H     H_    0.277493 0.180362 0.375661 0.210655
H26   H     H_    0.233861 0.318956 0.363432 0.159691
C57   C     C_R   0.263957 0.649412 0.554389 0.202579
C58   C     C_R   0.253804 0.700451 0.452936 -0.087846
C59   C     C_R   0.275611 0.779665 0.461596 -0.049272
C60   C     C_R   0.310868 0.807638 0.569222 -0.104944
C61   C     C_R   0.324030 0.756147 0.668653 -0.154838
C62   C     C_R   0.299832 0.677294 0.661905 -0.033990
H27   H     H_    0.225047 0.679946 0.370175 0.162937
H28   H     H_    0.263384 0.819358 0.385539 0.212280
H29   H     H_    0.327673 0.869202 0.575795 0.171755
H30   H     H_    0.350684 0.778016 0.752282 0.142000
H31   H     H_    0.305140 0.638902 0.742099 0.119931
C63   C     C_R   0.733338 0.347677 0.448297 0.206595
C64   C     C_R   0.699575 0.319107 0.339375 -0.040053
C65   C     C_R   0.673879 0.240758 0.333496 -0.148311
C66   C     C_R   0.682720 0.190509 0.435795 -0.108864
C67   C     C_R   0.715030 0.219237 0.545380 -0.063810
C68   C     C_R   0.739331 0.297886 0.552403 -0.079149
H32   H     H_    0.697349 0.356376 0.257443 0.122961
H33   H     H_    0.649135 0.218335 0.248632 0.146127
H34   H     H_    0.664496 0.129345 0.430216 0.169083
H35   H     H_    0.722479 0.180351 0.624334 0.210682
H36   H     H_    0.766116 0.318943 0.636589 0.159733
S5    S     S_3+6 0.421921 0.874678 0.273624 0.013205
O21   O     O_2   0.356140 0.922330 0.322668 -0.270600
O22   O     O_2   0.477356 0.927001 0.205133 -0.218087
O23   O     O_3   0.387996 0.805955 0.175234 -0.608991
H37   H     H_    0.366002 0.836521 0.105537 0.395783
S6    S     S_3+6 0.565802 0.125804 0.736986 0.009812
O24   O     O_2   0.503810 0.083637 0.808157 -0.242482
O25   O     O_2   0.626401 0.068785 0.696712 -0.239221
O26   O     O_3   0.606201 0.194140 0.829191 -0.614350
H38   H     H_    0.627004 0.163747 0.900074 0.396515
S7    S     S_3+6 0.578093 0.874681 0.726355 0.013128
O27   O     O_2   0.643872 0.922325 0.677273 -0.271064
O28   O     O_2   0.522675 0.927012 0.794864 -0.217749
O29   O     O_3   0.612020 0.805959 0.824745 -0.609103
H39   H     H_    0.634567 0.836541 0.893951 0.395840
S8    S     S_3+6 0.434175 0.125807 0.263027 0.009817
O30   O     O_2   0.496157 0.083631 0.191849 -0.242422
O31   O     O_2   0.373572 0.068798 0.303319 -0.239265
O32   O     O_3   0.393780 0.194146 0.170823 -0.614359
H40   H     H_    0.372969 0.163755 0.099948 0.396527

loop_
_geom_bond_atom_site_label_1
_geom_bond_atom_site_label_2
_ccdc_geom_bond_type
C24   H8    S    
S7    O29   S    
C14   H12   S    
C56   H26   S    
C4    C36   A    
C49   C50   A    
O8    Zn2   S    
C57   C58   A    
S4    O20   S    
O20   H16   S    
C1    O4    A    
C21   H5    S    
C60   C61   A    
C9    S7    S    
C64   C65   A    
O14   H14   S    
C7    C11   A    
C37   S3    S    
C51   C56   A    
C67   C68   A    
C22   C32   A    
O6    Zn2   S    
S4    O19   D    
C38   C42   A    
C1    O1    A    
C5    C6    T    
C2    O2    A    
C13   N1    A    
C61   C62   A    
C29   C33   A    
C63   C68   A    
C67   H35   S    
C19   O8    A    
C8    S6    S    
C45   C50   A    
S1    O10   D    
C9    C13   A    
C68   H36   S    
C55   C56   A    
O1    Zn1   S    
C47   H18   S    
C59   C60   A    
C66   H34   S    
C3    C38   A    
C19   O5    A    
C4    C37   A    
O7    Zn1   S    
S2    O14   S    
S5    O23   S    
O32   H40   S    
S8    O32   S    
C57   C62   A    
C23   C27   A    
C60   H29   S    
C11   H9    S    
C2    O3    A    
C22   H6    S    
C12   N2    A    
C7    C15   A    
C66   C67   A    
C8    C16   A    
S1    O9    D    
N1    Zn1   S    
C58   C59   A    
C48   H19   S    
C14   N2    A    
O5    Zn1   S    
C28   H1    S    
C62   H31   S    
C30   C34   A    
C52   C53   A    
C20   O7    A    
C36   C40   A    
S4    O18   D    
C4    C6    S    
C10   C14   A    
C47   C48   A    
S3    O16   D    
C7    S5    S    
O11   H13   S    
C39   C43   A    
C19   C34   S    
S3    O15   D    
C20   O6    A    
S1    O11   S    
C35   C39   A    
C21   C31   A    
O3    Zn1   S    
C1    C44   S    
C23   H7    S    
C3    C35   A    
C2    C43   S    
C8    C12   A    
C17   C18   T    
C31   C34   A    
C53   H23   S    
S8    O30   D    
C25   H4    S    
C35   S1    S    
C54   H24   S    
C36   S2    S    
C26   H3    S    
C20   C33   S    
C27   H2    S    
N2    Zn2   S    
C61   H30   S    
C22   C26   A    
S5    O21   D    
C41   C44   A    
C42   C43   A    
S2    O13   D    
C45   C46   A    
C23   C29   A    
C42   C63   S    
O29   H39   S    
C52   H22   S    
S7    O28   D    
C21   C25   A    
C38   S4    S    
C24   C28   A    
S8    O31   D    
O23   H37   S    
C3    C5    S    
S6    O26   S    
C46   H17   S    
C40   C51   S    
S3    O17   S    
C15   C17   S    
S6    O25   D    
C25   C27   A    
C26   C28   A    
O4    Zn2   S    
C32   C33   A    
C9    C15   A    
C29   C31   A    
C10   C16   A    
O26   H38   S    
C30   C32   A    
C46   C47   A    
C58   H27   S    
C50   H21   S    
C48   C49   A    
C65   H33   S    
C37   C41   A    
C53   C54   A    
C24   C30   A    
S6    O24   D    
C59   H28   S    
C40   C44   A    
S2    O12   D    
O2    Zn2   S    
C16   C18   S    
O17   H15   S    
C41   C57   S    
C64   H32   S    
C54   C55   A    
S5    O22   D    
C55   H25   S    
C51   C52   A    
C63   C64   A    
C11   N1    A    
C49   H20   S    
C39   C45   S    
C12   H10   S    
S7    O27   D    
C10   S8    S    
C65   C66   A    
C13   H11   S    
