data_mof_unit_40796.cif
_audit_creation_date              2012-12-11T16:46:39-0500
_audit_creation_method            fapswitch 2.2
_symmetry_space_group_name_H-M    P1
_symmetry_Int_Tables_number       1
_space_group_crystal_system       triclinic
_cell_length_a                    26.19497
_cell_length_b                    7.196572
_cell_length_c                    23.921585
_cell_angle_alpha                 90.000487
_cell_angle_beta                  101.508231
_cell_angle_gamma                 90.00103
_cell_volume                      4418.89355907

loop_
_atom_site_label
_atom_site_type_symbol
_atom_type_description
_atom_site_fract_x
_atom_site_fract_y
_atom_site_fract_z
_atom_type_partial_charge
O1    O     O_R   0.547620 0.505720 0.453310 -0.536404
O2    O     O_R   0.452380 0.005720 0.546690 -0.536402
O3    O     O_R   0.442260 0.172470 0.436770 -0.539743
O4    O     O_R   0.557740 0.672470 0.563230 -0.539738
C1    C     C_R   0.076179 0.467976 0.078551 0.710485
C2    C     C_R   0.923821 0.967972 0.921449 0.710494
C3    C     C_R   0.424112 0.344567 0.421693 0.702475
C4    C     C_R   0.575887 0.844571 0.578307 0.702480
O5    O     O_R   0.546600 0.175780 0.446490 -0.507148
O6    O     O_R   0.453400 0.675780 0.553510 -0.507150
O7    O     O_R   0.557460 0.008970 0.556480 -0.530688
O8    O     O_R   0.442540 0.508970 0.443520 -0.530681
C5    C     C_R   0.562175 0.344247 0.433966 0.679721
C6    C     C_R   0.437825 0.844247 0.566034 0.679720
O9    O     O_R   0.047630 0.803580 0.953300 -0.537912
O10   O     O_R   0.952370 0.303580 0.046700 -0.537913
O11   O     O_3   0.503440 0.340340 0.536080 -0.359195
O12   O     O_3   0.496560 0.840340 0.463920 -0.359192
V1    V     V_3+5 0.499360 0.064140 0.493310 1.513771
V2    V     V_3+5 0.500640 0.564140 0.506690 1.513777
O13   O     O_R   0.057730 0.636870 0.063240 -0.527760
O14   O     O_R   0.942270 0.136870 0.936760 -0.527767
O15   O     O_3   0.996540 0.468950 0.963950 -0.373541
O16   O     O_3   0.003460 0.968950 0.036050 -0.373536
C7    C     C_R   0.132867 0.798842 0.896646 -0.145575
C8    C     C_R   0.867136 0.298830 0.103358 -0.145568
H1    H     H_    0.130221 0.682859 0.924778 0.126746
H2    H     H_    0.869785 0.182837 0.075230 0.126750
C9    C     C_R   0.169670 0.791271 0.861528 -0.141086
C10   C     C_R   0.830333 0.291259 0.138475 -0.141083
H3    H     H_    0.194116 0.669284 0.862929 0.115759
H4    H     H_    0.805889 0.169262 0.137078 0.115754
C11   C     C_R   0.174400 0.938480 0.824346 0.086948
C12   C     C_R   0.825597 0.438480 0.175651 0.086954
C13   C     C_R   0.141815 0.094083 0.823249 -0.142234
C14   C     C_R   0.858180 0.594095 0.176744 -0.142233
H5    H     H_    0.144914 0.209851 0.795181 0.112520
H6    H     H_    0.855077 0.709874 0.204807 0.112517
C15   C     C_R   0.105664 0.103363 0.859161 -0.163899
C16   C     C_R   0.894331 0.603372 0.140833 -0.163895
H7    H     H_    0.081391 0.225821 0.857585 0.124776
H8    H     H_    0.918602 0.725839 0.142405 0.124779
C17   C     C_R   0.100584 0.955476 0.896170 -0.048283
C18   C     C_R   0.899416 0.455474 0.103829 -0.048283
C19   C     C_R   0.198571 0.966023 0.728243 -0.152160
C20   C     C_R   0.801423 0.466086 0.271751 -0.152159
H9    H     H_    0.158440 0.998737 0.709541 0.115311
H10   H     H_    0.841552 0.498845 0.290451 0.115309
C21   C     C_R   0.235173 0.955779 0.692920 -0.150444
C22   C     C_R   0.764822 0.455846 0.307074 -0.150443
H11   H     H_    0.222417 0.979330 0.647568 0.119820
H12   H     H_    0.777575 0.479441 0.352424 0.119820
C23   C     C_R   0.287720 0.915039 0.715817 0.074476
C24   C     C_R   0.712277 0.415048 0.284179 0.074483
C25   C     C_R   0.302359 0.878153 0.774578 -0.146947
C26   C     C_R   0.697641 0.378100 0.225421 -0.146943
H13   H     H_    0.342454 0.845275 0.793382 0.114884
H14   H     H_    0.657548 0.345177 0.206618 0.114879
C27   C     C_R   0.265524 0.884434 0.809692 -0.145375
C28   C     C_R   0.734477 0.384377 0.190307 -0.145373
H15   H     H_    0.277927 0.856400 0.854847 0.122258
H16   H     H_    0.722075 0.356295 0.145154 0.122258
C29   C     C_R   0.213347 0.929885 0.786957 0.076361
C30   C     C_R   0.786650 0.429887 0.213039 0.076364
C31   C     C_R   0.358337 0.743549 0.681706 -0.165418
C32   C     C_R   0.641662 0.243547 0.318294 -0.165416
H17   H     H_    0.354279 0.635766 0.712229 0.110713
H18   H     H_    0.645722 0.135757 0.287774 0.110706
C33   C     C_R   0.394225 0.717907 0.645928 0.023641
C34   C     C_R   0.605775 0.217904 0.354072 0.023648
C35   C     C_R   0.399306 0.855642 0.604714 -0.133859
C36   C     C_R   0.600693 0.355645 0.395285 -0.133860
C37   C     C_R   0.367848 0.015726 0.601757 -0.109963
C38   C     C_R   0.632148 0.515738 0.398239 -0.109973
H19   H     H_    0.371334 0.122664 0.570884 0.194316
H20   H     H_    0.628661 0.622682 0.429111 0.194323
C39   C     C_R   0.332692 0.043246 0.638529 -0.001621
C40   C     C_R   0.667302 0.543262 0.361465 -0.001622
C41   C     C_R   0.326841 0.902700 0.678227 -0.010912
C42   C     C_R   0.673156 0.402709 0.321770 -0.010909
C43   C     C_3   0.748583 0.793286 0.813143 -0.207776
C44   C     C_3   0.251434 0.293442 0.186832 -0.207816
C45   C     C_3   0.766730 0.114808 0.773184 -0.113107
C46   C     C_3   0.233254 0.614835 0.226851 -0.113080
C47   C     C_3   0.719683 0.091510 0.721656 -0.515447
C48   C     C_3   0.280305 0.591503 0.278374 -0.515455
H21   H     H_    0.670756 0.908554 0.784035 0.182917
H22   H     H_    0.329253 0.408757 0.215970 0.182926
H23   H     H_    0.797186 0.197954 0.757976 0.145422
H24   H     H_    0.202791 0.697886 0.242076 0.145417
H25   H     H_    0.684796 0.168906 0.729024 0.145524
H26   H     H_    0.315186 0.668969 0.271019 0.145509
H27   H     H_    0.729895 0.154893 0.682905 0.165165
H28   H     H_    0.270090 0.654792 0.317136 0.165178
C49   C     C_1   0.621230 0.855525 0.624408 -0.180489
C50   C     C_1   0.378771 0.355511 0.375591 -0.180537
C51   C     C_3   0.790585 0.921080 0.793596 0.116151
C52   C     C_3   0.209418 0.421108 0.206402 0.116231
C53   C     C_3   0.695652 0.802981 0.768353 0.004650
C54   C     C_3   0.304362 0.303114 0.231628 0.004656
C55   C     C_3   0.706033 0.882081 0.710194 0.169517
C56   C     C_3   0.293971 0.382073 0.289800 0.169556
C57   C     C_3   0.755510 0.791575 0.692912 0.019039
C58   C     C_3   0.244500 0.291459 0.307065 0.019010
C59   C     C_3   0.805016 0.825178 0.740731 -0.380765
C60   C     C_3   0.194993 0.325058 0.259247 -0.380807
C61   C     C_1   0.659212 0.867495 0.662924 -0.049821
C62   C     C_1   0.340790 0.367475 0.337072 -0.049763
C63   C     C_1   0.838984 0.941723 0.838773 -0.030448
C64   C     C_1   0.161018 0.441750 0.161225 -0.030360
C65   C     C_1   0.877881 0.956439 0.876042 -0.149446
C66   C     C_1   0.122120 0.456455 0.123958 -0.149426
H29   H     H_    0.825657 0.692556 0.754343 0.168432
H30   H     H_    0.174370 0.192420 0.245610 0.168481
H31   H     H_    0.833199 0.913128 0.723391 0.138981
H32   H     H_    0.166798 0.412909 0.276599 0.138977
H33   H     H_    0.763502 0.648788 0.813742 0.152355
H34   H     H_    0.236528 0.148919 0.186199 0.152356
H35   H     H_    0.761728 0.866277 0.653983 0.144677
H36   H     H_    0.238272 0.366094 0.346002 0.144687
V3    V     V_3+5 0.000640 0.745210 0.006690 1.432595
V4    V     V_3+5 0.999360 0.245210 0.993310 1.432585
O17   O     O_R   0.057440 0.306950 0.056520 -0.533420
O18   O     O_R   0.942560 0.806950 0.943480 -0.533424
O19   O     O_R   0.953390 0.633680 0.053510 -0.541937
O20   O     O_R   0.046610 0.133680 0.946490 -0.541937
C67   C     C_R   0.937626 0.464890 0.065487 0.680096
C68   C     C_R   0.062373 0.964891 0.934513 0.680090
C69   C     C_2   0.426679 0.548704 0.655852 0.392020
H37   H     H_    0.450504 0.523641 0.697761 0.008089
O21   O     O_2   0.424043 0.429675 0.619091 -0.504926
C70   C     C_2   0.573323 0.048693 0.344150 0.392021
H38   H     H_    0.549500 0.023613 0.302240 0.008090
O22   O     O_2   0.575957 0.929674 0.380913 -0.504927
C71   C     C_2   0.304837 0.223794 0.636952 0.364857
H39   H     H_    0.285582 0.263252 0.671287 0.051813
O23   O     O_2   0.303562 0.332408 0.597465 -0.515485
C72   C     C_2   0.695152 0.723823 0.363037 0.364850
H40   H     H_    0.714398 0.763292 0.328696 0.051807
O24   O     O_2   0.696432 0.832435 0.402525 -0.515484
C73   C     C_2   0.742373 0.829728 0.874032 0.386825
H41   H     H_    0.776042 0.818268 0.908581 0.075203
O25   O     O_2   0.700209 0.867200 0.885620 -0.532829
C74   C     C_2   0.257645 0.330055 0.125952 0.386735
H42   H     H_    0.223982 0.318569 0.091397 0.075186
O26   O     O_2   0.299804 0.367693 0.114377 -0.532827
C75   C     C_2   0.751203 0.222023 0.821412 0.324095
H43   H     H_    0.712419 0.207347 0.830420 0.093436
O27   O     O_2   0.782803 0.321053 0.852102 -0.544300
C76   C     C_2   0.248768 0.722199 0.178645 0.324100
H44   H     H_    0.287563 0.707711 0.169654 0.093380
O28   O     O_2   0.217145 0.821119 0.147946 -0.544298
C77   C     C_3   0.749211 0.583289 0.676523 -0.369754
C78   C     C_3   0.790147 0.517704 0.643376 -0.772891
H45   H     H_    0.786978 0.598405 0.603253 0.236146
H46   H     H_    0.830063 0.533294 0.669262 0.227433
H47   H     H_    0.783691 0.368638 0.632208 0.217592
H48   H     H_    0.752502 0.496845 0.715484 0.190510
H49   H     H_    0.710453 0.557984 0.648917 0.190868
C79   C     C_3   0.250813 0.083160 0.323430 -0.369740
C80   C     C_3   0.209883 0.017485 0.356573 -0.772907
H50   H     H_    0.213047 0.098144 0.396703 0.236144
H51   H     H_    0.169965 0.033056 0.330689 0.227442
H52   H     H_    0.216348 0.868415 0.367728 0.217568
H53   H     H_    0.247523 0.996769 0.284458 0.190539
H54   H     H_    0.289574 0.057861 0.351028 0.190880
C81   C     C_3   0.664756 0.616509 0.764421 -0.350119
C82   C     C_3   0.606597 0.645523 0.762825 -0.750791
H55   H     H_    0.586440 0.508972 0.758709 0.216494
H56   H     H_    0.600763 0.712609 0.802900 0.249625
H57   H     H_    0.588701 0.733521 0.726073 0.221120
H58   H     H_    0.668585 0.535062 0.726343 0.175152
H59   H     H_    0.679744 0.528640 0.802265 0.202128
C83   C     C_3   0.335269 0.116674 0.235519 -0.350137
C84   C     C_3   0.393435 0.145764 0.237179 -0.750795
H60   H     H_    0.413578 0.009190 0.241166 0.216514
H61   H     H_    0.399298 0.213301 0.197182 0.249553
H62   H     H_    0.411323 0.233365 0.274029 0.221133
H63   H     H_    0.331410 0.035051 0.273553 0.175121
H64   H     H_    0.320311 0.028957 0.197630 0.202133

loop_
_geom_bond_atom_site_label_1
_geom_bond_atom_site_label_2
_ccdc_geom_bond_type
C55   C61   S    
C32   H18   S    
C21   C23   A    
C18   C67   S    
C77   H49   S    
C52   C64   S    
C43   H33   S    
C37   H19   S    
C6    C35   S    
C45   C51   S    
C75   H43   S    
C2    O18   A    
O4    C4    A    
C7    C17   A    
C58   C60   S    
C80   H50   S    
C47   H25   S    
C8    C18   A    
C71   H39   S    
C15   H7    S    
C3    C50   S    
O7    V1    S    
C22   C24   A    
C38   H20   S    
C60   H30   S    
C31   C41   A    
C59   H29   S    
C13   H5    S    
C46   C48   S    
C12   C30   S    
O3    C3    A    
C63   C65   T    
H21   C53   S    
C56   C58   S    
C40   C42   A    
C82   H56   S    
C2    O14   A    
C9    C11   A    
O11   V2    S    
C84   H61   S    
C28   H16   S    
O12   V1    S    
C2    C65   S    
C19   H9    S    
C77   H48   S    
C33   C35   A    
O5    C5    A    
C83   C84   S    
V3    O18   S    
O10   V4    S    
C48   H28   S    
C47   H27   S    
C57   C77   S    
C82   H57   S    
O6    V2    S    
C70   H38   S    
C21   H11   S    
C22   H12   S    
C56   C62   S    
C79   H54   S    
O15   V4    S    
C78   H46   S    
C45   C47   S    
C33   C69   S    
C81   H59   S    
C51   C59   S    
C43   C73   S    
C50   C62   T    
C55   C57   S    
C44   C52   S    
C4    C49   S    
C46   H24   S    
C58   C79   S    
C40   C72   S    
C34   C70   S    
C80   H51   S    
O5    V1    S    
O14   V4    S    
C84   H62   S    
C53   C81   S    
C23   C25   A    
C7    C9    A    
C3    O8    A    
C45   H23   S    
C24   C26   A    
C27   H15   S    
C10   C12   A    
C14   C16   A    
C78   H47   S    
C44   C74   S    
O6    C6    A    
C81   C82   S    
C35   C37   A    
C15   C17   A    
C43   C53   S    
C31   H17   S    
C19   C29   A    
C26   C28   A    
C60   H32   S    
C73   O25   D    
V4    O20   S    
C13   C15   A    
V3    O19   S    
C74   O26   D    
C51   C63   S    
C84   H60   S    
C19   C21   A    
C11   C29   S    
O8    V2    S    
C54   C56   S    
C39   C41   A    
C57   C59   S    
C79   H53   S    
O3    V1    S    
C78   H45   S    
H22   C54   S    
C49   C61   T    
C45   C75   S    
C36   C38   A    
C82   H55   S    
C53   C55   S    
C8    C10   A    
O9    C68   A    
C25   H13   S    
C24   C42   S    
C54   C83   S    
C76   O28   D    
C27   C29   A    
O1    C5    A    
C44   H34   S    
C48   C56   S    
C83   H64   S    
C80   H52   S    
C47   C55   S    
C25   C27   A    
C69   H37   S    
C71   O23   D    
C20   C22   A    
O1    V2    S    
O20   C68   A    
O9    V3    S    
C23   C41   S    
O2    V1    S    
C44   C54   S    
C59   H31   S    
C57   H35   S    
C74   H42   S    
C17   C68   S    
C81   H58   S    
C72   O24   D    
C5    C36   S    
C7    H1    S    
C1    C66   S    
C32   C42   A    
C1    O17   A    
C8    H2    S    
C52   C60   S    
C28   C30   A    
C46   C52   S    
C79   C80   S    
C14   H6    S    
V4    O17   S    
C9    H3    S    
C48   H26   S    
C73   H41   S    
C10   H4    S    
C32   C34   A    
C43   C51   S    
C4    O7    A    
C31   C33   A    
C16   H8    S    
O16   V3    S    
C11   C13   A    
C26   H14   S    
C12   C14   A    
O13   V3    S    
C75   O27   D    
O2    C6    A    
O10   C67   A    
C64   C66   T    
C72   H40   S    
O4    V2    S    
C20   H10   S    
C16   C18   A    
C1    O13   A    
C70   O22   D    
C38   C40   A    
C20   C30   A    
O19   C67   A    
C37   C39   A    
C76   H44   S    
C34   C36   A    
C39   C71   S    
C58   H36   S    
C77   C78   S    
C83   H63   S    
C69   O21   D    
C46   C76   S    
