data_mof_unit_18907.cif
_audit_creation_date              2012-10-26T18:34:24-0400
_audit_creation_method            fapswitch 2.2
_symmetry_space_group_name_H-M    P1
_symmetry_Int_Tables_number       1
_space_group_crystal_system       triclinic
_cell_length_a                    10.751673
_cell_length_b                    9.637264
_cell_length_c                    9.061123
_cell_angle_alpha                 89.963393
_cell_angle_beta                  91.685706
_cell_angle_gamma                 90.27607
_cell_volume                      938.4664338

loop_
_atom_site_label
_atom_site_type_symbol
_atom_type_description
_atom_site_fract_x
_atom_site_fract_y
_atom_site_fract_z
_atom_type_partial_charge
C1    C     C_R   0.262777 0.499765 0.499445 0.643961
C2    C     C_R   0.068286 0.550433 0.621971 0.170363
C3    C     C_R   0.871144 0.501416 0.495953 -0.003891
C4    C     C_R   0.128681 0.499362 0.498553 0.027725
C5    C     C_R   0.429006 0.073871 0.398631 0.106124
C6    C     C_R   0.570987 0.926091 0.601463 0.105779
C7    C     C_R   0.570949 0.074558 0.601578 0.111369
C8    C     C_R   0.429147 0.925444 0.398358 0.110284
C9    C     C_2   0.346356 0.147561 0.292722 0.313117
C10   C     C_2   0.652901 0.852272 0.708270 0.310115
C11   C     C_2   0.651346 0.149094 0.710268 0.304405
C12   C     C_R   0.737154 0.500316 0.499567 0.576253
C13   C     C_2   0.349044 0.850968 0.289302 0.302830
C14   C     C_R   0.499608 0.500026 0.220974 0.559514
C15   C     C_R   0.500244 0.499976 0.779022 0.598701
C16   C     C_1   0.499825 0.500038 0.065643 0.059940
C17   C     C_1   0.500056 0.499966 0.934358 0.072091
C18   C     C_R   0.063027 0.452255 0.372258 0.211560
C19   C     C_R   0.937480 0.545225 0.623371 0.170477
C20   C     C_R   0.932484 0.455500 0.368882 0.181796
Cu1   Cu    Cu3+1 0.500000 0.640660 0.500000 1.041710
Cu2   Cu    Cu3+1 0.500000 0.359340 0.500000 1.033340
H1    H     H_    0.072858 0.377478 0.171680 0.392161
H2    H     H_    0.925097 0.559238 0.836682 0.356896
H3    H     H_    0.780390 0.439759 0.244225 0.337501
H4    H     H_    0.090377 0.674046 0.790183 0.350481
H5    H     H_    0.261543 0.194135 0.329840 0.141395
H6    H     H_    0.736822 0.803106 0.671880 0.144899
H7    H     H_    0.734174 0.202737 0.675666 0.114333
H8    H     H_    0.266643 0.796369 0.323645 0.110631
N1    N     N_R   0.500000 0.852070 0.500000 -0.289098
N2    N     N_R   0.500000 0.147930 0.500000 -0.288629
O1    O     O_R   0.319640 0.618740 0.499990 -0.508317
O2    O     O_3   0.871871 0.577285 0.747774 -0.702876
O3    O     O_3   0.869160 0.414222 0.240823 -0.684131
O4    O     O_3   0.139594 0.603530 0.738381 -0.676337
O5    O     O_2   0.370427 0.151806 0.161965 -0.410312
O6    O     O_2   0.628966 0.850206 0.839123 -0.411833
O7    O     O_2   0.627100 0.147329 0.841039 -0.416271
O8    O     O_2   0.373054 0.853852 0.158481 -0.416267
O9    O     O_R   0.680360 0.381260 0.500010 -0.531140
O10   O     O_R   0.680360 0.618740 0.500010 -0.514946
O11   O     O_R   0.319640 0.381260 0.499990 -0.514226
O12   O     O_R   0.500000 0.618760 0.288390 -0.484891
O13   O     O_R   0.500000 0.381240 0.711610 -0.478667
O14   O     O_R   0.500000 0.618760 0.711610 -0.459957
O15   O     O_R   0.500000 0.381240 0.288390 -0.473986
O16   O     O_3   0.129959 0.410104 0.252094 -0.693976

loop_
_geom_bond_atom_site_label_1
_geom_bond_atom_site_label_2
_ccdc_geom_bond_type
C6    C10   S    
C5    C8    A    
C2    C4    A    
C3    C19   A    
C6    C7    A    
C7    N2    A    
Cu1   O12   S    
Cu2   O11   S    
C10   O6    D    
C1    C4    S    
C4    C18   A    
C5    N2    A    
C9    O5    D    
Cu2   O15   S    
C1    O1    A    
C3    C20   A    
Cu1   Cu2   S    
H1    O16   S    
C7    C11   S    
Cu1   N1    S    
C9    H5    S    
C5    C9    S    
C14   O15   A    
Cu2   N2    S    
H3    O3    S    
H4    O4    S    
C8    N1    A    
C6    N1    A    
C18   C20   A    
C11   O7    D    
C14   C16   S    
Cu2   O9    S    
Cu1   O1    S    
C15   O13   A    
C2    O4    S    
Cu1   O10   S    
C8    C13   S    
C13   H8    S    
Cu2   O13   S    
C11   H7    S    
C12   O9    A    
C14   O12   A    
Cu1   O14   S    
C10   H6    S    
C15   C17   S    
C13   O8    D    
C12   O10   A    
C3    C12   S    
C15   O14   A    
C2    C19   A    
C20   O3    S    
C1    O11   A    
H2    O2    S    
C16   C17   T    
C19   O2    S    
C18   O16   S    
