data_mof_unit_63069.cif
_audit_creation_date              2012-12-10T19:02:13-0500
_audit_creation_method            fapswitch 2.2
_symmetry_space_group_name_H-M    P1
_symmetry_Int_Tables_number       1
_space_group_crystal_system       triclinic
_cell_length_a                    13.366207
_cell_length_b                    14.260312
_cell_length_c                    16.809703
_cell_angle_alpha                 89.986395
_cell_angle_beta                  85.693327
_cell_angle_gamma                 89.996532
_cell_volume                      3194.98796719

loop_
_atom_site_label
_atom_site_type_symbol
_atom_type_description
_atom_site_fract_x
_atom_site_fract_y
_atom_site_fract_z
_atom_type_partial_charge
C1    C     C_R   0.499998 0.673463 0.499989 0.928574
C2    C     C_R   0.500005 0.326542 0.499958 0.935630
C3    C     C_1   0.499994 0.774111 0.499969 -0.225665
C4    C     C_1   0.500007 0.225902 0.499906 -0.223713
C5    C     C_1   0.499993 0.858675 0.499941 -0.002126
C6    C     C_1   0.500003 0.141342 0.499880 -0.000829
C7    C     C_1   0.499994 0.957731 0.499903 0.013328
C8    C     C_1   0.499997 0.042288 0.499881 0.013818
C9    C     C_1   0.830585 0.499995 0.500016 0.069775
C10   C     C_1   0.169415 0.499993 0.499985 0.068276
C11   C     C_1   0.950475 0.499991 0.500005 -0.045334
C12   C     C_1   0.049525 0.499989 0.499995 -0.045120
C13   C     C_R   0.487208 0.501696 0.655598 0.902201
C14   C     C_R   0.512711 0.497889 0.344257 0.891966
C15   C     C_R   0.479721 0.492413 0.741671 -0.073002
C16   C     C_R   0.519622 0.462898 0.262932 -0.063106
C17   C     C_R   0.565764 0.503711 0.783174 -0.245273
C18   C     C_R   0.438309 0.412740 0.236212 -0.242927
C19   C     C_R   0.561982 0.486568 0.864664 0.051621
C20   C     C_R   0.444524 0.373854 0.160330 0.036277
C21   C     C_R   0.471089 0.455463 0.904379 0.133710
C22   C     C_R   0.532046 0.387962 0.109781 0.130939
C23   C     C_R   0.384205 0.448792 0.863341 -0.169588
C24   C     C_R   0.615883 0.431597 0.138696 -0.156200
C25   C     C_R   0.388395 0.467036 0.782136 -0.198572
C26   C     C_R   0.609824 0.468872 0.215299 -0.202930
C27   C     C_2   0.462365 0.434874 0.989376 -0.214864
C28   C     C_2   0.529257 0.381365 0.023544 -0.214322
N1    N     N_1   0.738130 0.500000 0.500020 -0.064286
N2    N     N_1   0.261870 0.500000 0.499980 -0.065202
O1    O     O_R   0.423530 0.626280 0.499990 -0.592232
O2    O     O_R   0.576470 0.373720 0.500010 -0.590763
O3    O     O_R   0.576470 0.626280 0.500010 -0.595044
O4    O     O_R   0.423530 0.373720 0.499990 -0.595499
O5    O     O_R   0.414510 0.500000 0.615790 -0.611856
O6    O     O_R   0.585490 0.500000 0.384210 -0.606207
O7    O     O_R   0.567420 0.500000 0.615810 -0.609573
O8    O     O_R   0.432580 0.500000 0.384190 -0.610047
Zn1   Zn    Zn3+2 0.397910 0.500000 0.499990 0.968921
Zn2   Zn    Zn3+2 0.602090 0.500000 0.500010 0.972603
H1    H     H_    0.635864 0.525702 0.751982 0.159795
H2    H     H_    0.370066 0.403476 0.274570 0.162403
H3    H     H_    0.674230 0.504621 0.236464 0.154485
H4    H     H_    0.321138 0.458713 0.750659 0.159625
H5    H     H_    0.591695 0.349332 0.988377 0.163880
H6    H     H_    0.401433 0.468582 0.025204 0.163457
H7    H     H_    0.313596 0.427502 0.893969 0.148426
H8    H     H_    0.683422 0.442794 0.100072 0.157393
C29   C     C_1   0.359344 0.322988 0.134291 0.147913
N3    N     N_1   0.291144 0.282292 0.113409 -0.196361
C30   C     C_1   0.650819 0.505246 0.906045 0.138596
N4    N     N_1   0.722054 0.520364 0.939015 -0.212973

loop_
_geom_bond_atom_site_label_1
_geom_bond_atom_site_label_2
_ccdc_geom_bond_type
C26   H3    S    
O5    Zn1   S    
C11   C12   T    
C15   C17   A    
C20   C29   S    
C14   O8    A    
C10   N2    T    
C2    C4    S    
C9    N1    T    
C3    C5    T    
C2    O4    A    
O2    Zn2   S    
C21   C27   S    
C1    O3    A    
C7    C8    T    
C16   C18   A    
C22   C28   S    
C14   O6    A    
C9    C11   S    
C24   C26   A    
C10   C12   S    
N1    Zn2   S    
C4    C6    T    
C19   C21   A    
O1    Zn1   S    
N2    Zn1   S    
C13   O5    A    
O7    Zn2   S    
C22   C24   A    
C13   C15   S    
C21   C23   A    
C16   C26   A    
O8    Zn1   S    
C14   C16   S    
C28   H5    S    
C15   C25   A    
C17   H1    S    
C23   H7    S    
C30   N4    T    
O3    Zn2   S    
C19   C30   S    
C1    O1    A    
C23   C25   A    
C27   H6    S    
C18   C20   A    
C2    O2    A    
C29   N3    T    
C25   H4    S    
C27   C28   D    
C5    C7    S    
O6    Zn2   S    
C6    C8    S    
C18   H2    S    
C17   C19   A    
C13   O7    A    
O4    Zn1   S    
C20   C22   A    
C1    C3    S    
C24   H8    S    
