data_mof_unit_32442.cif
_audit_creation_date              2013-03-05T15:43:19-0500
_audit_creation_method            fapswitch 2.2
_symmetry_space_group_name_H-M    P1
_symmetry_Int_Tables_number       1
_space_group_crystal_system       triclinic
_cell_length_a                    8.330108
_cell_length_b                    15.19038
_cell_length_c                    26.98599
_cell_angle_alpha                 97.382627
_cell_angle_beta                  92.727797
_cell_angle_gamma                 80.8889
_cell_volume                      3342.41170152

loop_
_atom_site_label
_atom_site_type_symbol
_atom_site_description
_atom_site_fract_x
_atom_site_fract_y
_atom_site_fract_z
_atom_type_partial_charge
P1    P     P_3+3 0.070480 0.574800 0.610950 0.479841
O1    O     O_2   0.905540 0.548000 0.618290 -0.365390
O2    O     O_3   0.137550 0.547930 0.558110 -0.407745
O3    O     O_3   0.688580 0.383890 0.587540 -0.396893
O4    O     O_2   0.838636 0.431146 0.673463 -0.399031
O5    O     O_3   0.041546 0.691389 0.627205 -0.556081
O6    O     O_3   0.665333 0.304423 0.676620 -0.539525
H1    H     H_    0.828886 0.237916 0.623373 0.164687
C1    C     C_3   0.735605 0.144683 0.664238 -0.639098
H2    H     H_    0.832776 0.146737 0.693795 0.228843
P2    P     P_3+3 0.668430 0.292880 0.460530 0.549053
P3    P     P_3+3 0.148924 0.221268 0.559026 0.516268
O7    O     O_2   0.848360 0.279400 0.474970 -0.343214
O8    O     O_3   0.104690 0.337720 0.562900 -0.388410
O9    O     O_2   0.015016 0.179838 0.526911 -0.336205
O10   O     O_3   0.660753 0.250707 0.396907 -0.573061
O11   O     O_3   0.126974 0.189615 0.617896 -0.531689
C2    C     C_3   0.221252 0.237227 0.652866 0.306765
H3    H     H_    0.171359 0.310119 0.656535 0.089344
H4    H     H_    0.350222 0.227060 0.641605 0.042393
C3    C     C_3   0.213799 0.202942 0.703656 -0.354114
H5    H     H_    0.083979 0.207874 0.713359 0.190015
C4    C     C_3   0.291111 0.262060 0.386360 0.154014
H6    H     H_    0.387663 0.296020 0.374841 0.176907
H7    H     H_    0.300683 0.257891 0.427155 0.054336
C5    C     C_3   0.306918 0.166938 0.357172 0.280223
H8    H     H_    0.190119 0.142582 0.359767 0.146937
Ba1   Ba    Ba6+2 0.860900 0.457020 0.523210 1.604658
C6    C     C_3   0.974131 0.734822 0.586917 0.397245
H9    H     H_    0.848720 0.720545 0.579814 0.093210
H10   H     H_    0.047523 0.713373 0.552969 0.127525
C7    C     C_3   0.970339 0.835446 0.601125 -0.909367
H11   H     H_    0.894925 0.859107 0.634484 0.260608
H12   H     H_    0.918124 0.872861 0.570070 0.228645
H13   H     H_    0.095815 0.850224 0.609714 0.275457
C8    C     C_3   0.744175 0.294444 0.366502 0.534840
H14   H     H_    0.853878 0.315837 0.385780 0.063500
C9    C     C_3   0.795149 0.230145 0.318833 -0.062628
H15   H     H_    0.859999 0.266420 0.294720 0.098591
H16   H     H_    0.685544 0.211270 0.297547 0.192290
P4    P     P_3+3 0.119230 0.425130 0.389040 0.544640
O12   O     O_2   0.284150 0.451970 0.381680 -0.295048
O13   O     O_3   0.052160 0.451990 0.441880 -0.374117
O14   O     O_3   0.501140 0.616030 0.412450 -0.375399
O15   O     O_3   0.137097 0.307764 0.374948 -0.595240
P5    P     P_3+3 0.037038 0.779372 0.437524 0.467230
O16   O     O_3   0.615020 0.608480 0.525380 -0.398252
O17   O     O_3   0.085020 0.662210 0.437090 -0.366381
O18   O     O_2   0.182852 0.818863 0.464153 -0.329947
O19   O     O_3   0.043824 0.803047 0.375886 -0.565574
Ba2   Ba    Ba6+2 0.328940 0.542910 0.476780 1.611847
P6    P     P_3+3 0.673793 0.405452 0.652576 0.463804
C10   C     C_3   0.712552 0.231698 0.639950 0.359352
H17   H     H_    0.616545 0.228685 0.610111 0.041310
H18   H     H_    0.621275 0.138571 0.682203 0.228971
O20   O     O_3   0.574690 0.391440 0.474610 -0.349353
C11   C     C_3   0.470058 0.681102 0.630159 0.418720
H19   H     H_    0.362832 0.657462 0.609931 0.111033
H20   H     H_    0.571386 0.624379 0.631208 0.085383
C12   C     C_3   0.421100 0.719388 0.683196 -0.940950
H21   H     H_    0.329634 0.780989 0.682404 0.276431
H22   H     H_    0.366208 0.670261 0.701179 0.227604
H23   H     H_    0.529368 0.736464 0.705784 0.257150
P7    P     P_3+3 0.524738 0.720602 0.543025 0.447057
O21   O     O_2   0.341330 0.720570 0.525000 -0.357189
O22   O     O_3   0.523526 0.748732 0.607853 -0.569078
C13   C     C_3   0.887425 0.814703 0.353534 0.128402
H24   H     H_    0.835692 0.751119 0.349960 0.109276
H25   H     H_    0.806311 0.869770 0.375098 0.119838
C14   C     C_3   0.900941 0.841980 0.301568 -0.038158
H26   H     H_    0.973386 0.786287 0.277522 0.141398
H27   H     H_    0.964990 0.901454 0.304921 0.172418
P8    P     P_3+3 0.515635 0.606365 0.346396 0.522730
C15   C     C_3   0.412039 0.779525 0.356022 0.469694
O23   O     O_2   0.358455 0.573639 0.323185 -0.360153
O24   O     O_3   0.511932 0.712143 0.326130 -0.535734
H28   H     H_    0.321506 0.751521 0.375425 0.172942
H29   H     H_    0.410240 0.881388 0.305850 0.292926
C16   C     C_3   0.323100 0.846584 0.322676 -0.642385
H30   H     H_    0.237832 0.898650 0.344971 0.239596
H31   H     H_    0.254688 0.811060 0.292244 0.216270
C17   C     C_R   0.038523 0.434832 0.177548 0.558549
O25   O     O_2   0.073175 0.366581 0.197835 -0.540364
N1    N     N_R   0.955937 0.511990 0.203752 -0.166511
C18   C     C_R   0.914539 0.588677 0.180098 0.535413
C19   C     C_2   0.751787 0.539885 0.269302 -0.192873
C20   C     C_3   0.704324 0.531372 0.321844 0.315216
C21   C     C_1   0.989320 0.484413 0.342508 0.246818
C22   C     C_2   0.031685 0.479969 0.295007 -0.183904
C23   C     C_2   0.908626 0.511783 0.255455 0.099944
C24   C     C_R   0.035383 0.510528 0.102537 -0.061521
C25   C     C_R   0.080695 0.433583 0.127026 -0.082691
C26   C     C_R   0.160818 0.355492 0.099886 -0.115409
C27   C     C_R   0.950004 0.588282 0.129225 -0.069354
C28   C     C_2   0.849786 0.531089 0.357644 -0.283527
H32   H     H_    0.157037 0.456422 0.284838 0.214292
H33   H     H_    0.188840 0.293983 0.117102 0.184696
C29   C     C_2   0.349417 0.478107 0.640801 -0.463021
C30   C     C_R   0.223358 0.437833 0.976350 0.047688
C31   C     C_R   0.044052 0.582406 0.973898 0.043317
C32   C     C_R   0.152745 0.510004 0.949742 0.082313
C33   C     C_R   0.351299 0.375891 0.953455 -0.192325
C34   C     C_R   0.393515 0.378099 0.904279 -0.096576
C35   C     C_R   0.312722 0.443657 0.875846 -0.040718
C36   C     C_R   0.193403 0.510487 0.898719 -0.068006
C37   C     C_R   0.116676 0.578534 0.870902 -0.059728
C38   C     C_R   0.155941 0.577010 0.820117 0.532722
N2    N     N_R   0.270686 0.509439 0.797247 -0.162440
C39   C     C_R   0.351897 0.444612 0.825426 0.502631
C40   C     C_2   0.462068 0.494377 0.728448 -0.157977
C41   C     C_3   0.497956 0.491971 0.673459 0.157739
C42   C     C_1   0.206107 0.517562 0.656934 0.301966
C43   C     C_2   0.171129 0.518544 0.704738 -0.226140
C44   C     C_2   0.306091 0.507004 0.744102 0.090700
O26   O     O_2   0.457926 0.386826 0.806570 -0.604856
C45   C     C_R   0.169432 0.432705 0.025539 0.021372
C46   C     C_R   0.074338 0.509686 0.051268 0.065286
C47   C     C_R   0.015959 0.585676 0.026019 0.047810
C48   C     C_R   0.201562 0.353304 0.049812 -0.011142
H34   H     H_    0.563288 0.491069 0.755340 0.173107
H35   H     H_    0.491378 0.328077 0.888641 0.169021
H36   H     H_    0.427269 0.327545 0.973666 0.145810
O27   O     O_2   0.847459 0.657822 0.203434 -0.546156
C49   C     C_R   0.901412 0.664335 0.104532 -0.058421
H37   H     H_    0.657916 0.560245 0.241961 0.181119
H38   H     H_    0.837233 0.725605 0.124115 0.183652
C50   C     C_R   0.967697 0.649368 0.944883 -0.202410
C51   C     C_R   0.002342 0.646966 0.894550 -0.083137
O28   O     O_2   0.089740 0.637015 0.796594 -0.590225
C52   C     C_R   0.932111 0.662913 0.054070 -0.201365
H39   H     H_    0.876603 0.703584 0.959809 0.130019
H40   H     H_    0.939429 0.699851 0.874199 0.166319
H41   H     H_    0.045441 0.527570 0.715558 0.192850
H42   H     H_    0.892511 0.724693 0.038288 0.133817
H43   H     H_    0.360932 0.439779 0.603951 0.165544
C53   C     C_R   0.763720 0.769620 0.489175 -0.538286
C54   C     C_R   0.847781 0.828437 0.469705 0.221042
C55   C     C_R   0.784853 0.920899 0.473740 -0.219252
C56   C     C_R   0.640367 0.955803 0.500433 0.098122
C57   C     C_R   0.569830 0.893413 0.524068 -0.238437
C58   C     C_R   0.622258 0.801119 0.514732 0.281212
C59   C     C_R   0.405276 0.086335 0.522887 0.244652
C60   C     C_R   0.349589 0.178930 0.532833 0.138945
C61   C     C_R   0.586487 0.213141 0.495691 0.304873
C62   C     C_R   0.652740 0.121123 0.490550 -0.203359
C63   C     C_R   0.566144 0.055154 0.505105 -0.067067
C64   C     C_R   0.440536 0.241431 0.519759 -0.559503
H44   H     H_    0.850123 0.963233 0.455766 0.180878
H45   H     H_    0.768876 0.102458 0.473156 0.200053
H46   H     H_    0.478859 0.914243 0.551697 0.183415
H47   H     H_    0.390682 0.312122 0.524498 0.187685
H48   H     H_    0.811919 0.698945 0.486229 0.156531
N3    N     N_R   0.337069 0.166837 0.303953 0.254606
O29   O     O_R   0.372995 0.090481 0.275603 -0.274398
O30   O     O_R   0.301161 0.240449 0.282868 -0.329791
N4    N     N_R   0.431858 0.103848 0.379534 0.209098
O31   O     O_R   0.580205 0.090297 0.364100 -0.306213
O32   O     O_R   0.386218 0.044220 0.404112 -0.409244
N5    N     N_R   0.634854 0.372599 0.353564 0.148194
O33   O     O_R   0.595181 0.436922 0.389125 -0.383395
O34   O     O_R   0.548670 0.370546 0.311943 -0.431732
N6    N     N_3   0.779591 0.065773 0.627715 -0.194090
H49   H     H_    0.880532 0.074189 0.608207 0.207974
H50   H     H_    0.682598 0.060945 0.602050 0.129562
N7    N     N_R   0.900392 0.147477 0.329026 0.265216
O35   O     O_R   0.906515 0.119105 0.372728 -0.343736
O36   O     O_R   0.973310 0.095387 0.291973 -0.333708
N8    N     N_3   0.294006 0.257698 0.742695 -0.181449
H51   H     H_    0.230629 0.323241 0.745643 0.140565
H52   H     H_    0.412235 0.259750 0.731954 0.200439
N9    N     N_R   0.740736 0.864470 0.278328 0.256750
O37   O     O_R   0.686624 0.947079 0.271045 -0.278657
O38   O     O_R   0.661027 0.800860 0.258866 -0.317935
N10   N     N_3   0.512047 0.826433 0.392723 -0.196557
H53   H     H_    0.579903 0.777743 0.412080 0.078926
H54   H     H_    0.435581 0.867794 0.418624 0.186406
N11   N     N_3   0.259219 0.267415 0.022875 -0.216296
H55   H     H_    0.364516 0.239119 0.041266 0.120908
H56   H     H_    0.171096 0.225818 0.024077 0.128810
N12   N     N_3   0.841252 0.583511 0.405523 -0.142671
H57   H     H_    0.775989 0.554021 0.429206 0.200756
H58   H     H_    0.785046 0.648511 0.401446 0.086773
N13   N     N_R   0.288413 0.026607 0.523407 0.238261
O39   O     O_R   0.224875 0.017064 0.565188 -0.419909
O40   O     O_R   0.224768 0.994445 0.481395 -0.326042
N14   N     N_3   0.291813 0.109222 0.701301 -0.185056
H59   H     H_    0.287863 0.088946 0.736782 0.140133
H60   H     H_    0.221512 0.069435 0.677597 0.190256

loop_
_geom_bond_atom_site_label_1
_geom_bond_atom_site_label_2
_geom_bond_distance
_ccdc_geom_bond_type
C9    N7    1.462306 S    
N9    O37   1.300881 A    
C56   C63   1.529323 S    
N7    O35   1.302733 A    
C4    O15   1.399311 S    
C26   H33   1.084202 S    
C2    C3    1.534764 S    
P4    O13   1.538192 S    
P4    O12   1.522227 D    
C59   C63   1.432523 A    
C36   C37   1.408886 A    
C5    N4    1.462450 S    
C31   C32   1.418060 A    
C11   O22   1.394791 S    
C38   O28   1.222338 D    
C62   C63   1.426848 A    
Ba1   O20   2.918130 S    
C3    N14   1.463151 S    
Ba1   O16   2.824244 S    
C10   H17   1.109484 S    
C45   C46   1.423850 A    
C60   C64   1.392522 A    
N9    O38   1.299980 A    
P5    O18   1.545486 D    
C5    H8    1.102524 S    
C53   C58   1.381015 A    
C3    N8    1.460096 S    
C15   O24   1.404548 S    
O3    P6    1.750080 S    
C12   H23   1.110567 S    
N4    O31   1.299733 A    
O6    P6    1.753767 S    
C2    H3    1.112909 S    
C6    C7    1.523039 S    
N13   O40   1.299074 A    
P1    C42   1.845282 S    
C9    H15   1.112982 S    
Ba1   Ba2   4.579196 S    
C11   H20   1.108757 S    
C37   C38   1.420532 A    
C31   C50   1.415875 A    
C37   C51   1.403118 A    
P2    C61   1.858030 S    
C17   C25   1.421071 A    
N2    C39   1.392168 Am   
C12   H22   1.106233 S    
P1    O1    1.522014 D    
Ba2   O21   2.856570 S    
C4    C5    1.543617 S    
N2    C44   1.472532 S    
N10   H53   1.038362 S    
P8    C20   1.882897 S    
C8    N5    1.447247 S    
O3    Ba1   2.747011 S    
C40   C41   1.522359 S    
O17   Ba2   2.772251 S    
C55   H44   1.077217 S    
N11   H56   1.045759 S    
C15   H28   1.104657 S    
C20   C28   1.513140 S    
P3    O11   1.743644 S    
P1    Ba1   3.370786 S    
C4    H6    1.098187 S    
N5    O34   1.303539 A    
O7    Ba1   2.856410 S    
C14   H26   1.111531 S    
C1    H18   1.110938 S    
N3    O30   1.305732 A    
C1    H2    1.110192 S    
C40   C44   1.362329 D    
C2    H4    1.112146 S    
O12   Ba2   2.791910 S    
N8    H52   1.046007 S    
C59   N13   1.433634 S    
C21   C28   1.315422 D    
N7    O36   1.302740 A    
C43   H41   1.083325 S    
C3    H5    1.113502 S    
C19   H37   1.085638 S    
P8    O23   1.549786 D    
C52   H42   1.078067 S    
N1    C23   1.468315 S    
C61   C64   1.386578 A    
O10   C8    1.392165 S    
C51   H40   1.083649 S    
C35   C36   1.406158 A    
C53   H48   1.079201 S    
N12   H58   1.040594 S    
N6    H50   1.044181 S    
C32   C36   1.434719 A    
P5    O17   1.759870 S    
C29   C42   1.315185 D    
C13   H24   1.109880 S    
C7    H13   1.111072 S    
C57   C58   1.394825 A    
C19   C23   1.362941 D    
C40   H34   1.085264 S    
O16   P7    1.764404 S    
C16   H31   1.108765 S    
O2    Ba2   2.759740 S    
H29   C16   1.107792 S    
C61   C62   1.410949 A    
C11   C12   1.523032 S    
O16   Ba2   2.917148 S    
P6    C41   1.862499 S    
C29   H43   1.086123 S    
P1    O5    1.749948 S    
C12   H21   1.111043 S    
P1    O2    1.538206 S    
C7    H12   1.106321 S    
C64   H47   1.081876 S    
C14   N9    1.456717 S    
N13   O39   1.302109 A    
C6    H9    1.103244 S    
C47   C52   1.414203 A    
C18   C27   1.417022 A    
N5    O33   1.292990 A    
P3    O9    1.543235 D    
C38   N2    1.389504 Am   
O5    C6    1.393418 S    
C24   C46   1.434040 A    
O11   C2    1.401540 S    
C49   C52   1.394310 A    
O4    P6    1.547617 D    
C30   C45   1.436765 A    
N1    C18   1.387906 Am   
C1    N6    1.460870 S    
P5    C54   1.840372 S    
O14   Ba2   2.746308 S    
N8    H51   1.045704 S    
C30   C32   1.421735 A    
P3    O8    1.739430 S    
N11   H55   1.046151 S    
C17   N1    1.387444 Am   
C15   C16   1.526235 S    
P8    O24   1.757961 S    
C1    C10   1.530968 S    
O6    C10   1.404593 S    
N14   H60   1.046180 S    
C50   C51   1.396699 A    
C34   H35   1.083597 S    
C57   H46   1.071216 S    
C24   C25   1.407263 A    
N12   H57   1.043289 S    
C49   H38   1.083612 S    
C43   C44   1.514871 S    
O19   C13   1.404313 S    
C13   H25   1.108248 S    
O14   P8    1.777980 S    
P4    C21   1.847009 S    
C8    H14   1.103041 S    
C29   C41   1.511007 S    
C19   C20   1.516634 S    
Ba2   O20   2.823702 S    
C53   C54   1.385095 A    
H1    C10   1.108724 S    
C14   H27   1.111799 S    
C56   C57   1.420427 A    
P3    C60   1.833726 S    
C15   N10   1.452843 S    
N6    H49   1.045939 S    
C48   N11   1.432604 S    
C54   C55   1.411487 A    
P5    O19   1.751701 S    
Ba1   O13   2.759053 S    
C45   C48   1.428125 A    
C13   C14   1.526458 S    
C7    H11   1.110583 S    
C22   H32   1.085058 S    
C8    C9    1.544955 S    
N3    O29   1.305370 A    
C6    H10   1.110261 S    
C33   H36   1.077123 S    
C46   C47   1.423377 A    
P7    O21   1.581218 D    
C24   C27   1.408436 A    
C9    H16   1.111952 S    
P2    O7    1.519211 D    
O13   Ba2   2.928788 S    
C11   H19   1.108848 S    
C35   C39   1.416657 A    
P2    Ba1   3.401839 S    
N4    O32   1.300908 A    
C25   C26   1.400543 A    
N10   H54   1.044911 S    
C18   O27   1.220519 D    
C42   C43   1.333701 D    
C4    H7    1.109173 S    
C33   C34   1.394809 A    
C50   H39   1.078077 S    
P2    O10   1.755611 S    
C55   C56   1.425091 A    
C39   O26   1.221471 D    
C16   H30   1.110184 S    
C28   N12   1.426529 S    
C30   C33   1.413724 A    
C31   C47   1.430128 A    
C21   C22   1.336246 D    
O2    Ba1   2.927787 S    
C17   O25   1.222281 D    
P7    C58   1.830980 S    
C34   C35   1.402985 A    
P4    O15   1.758518 S    
C59   C60   1.404931 A    
C5    N3    1.469461 S    
O1    Ba1   2.791486 S    
C26   C48   1.403882 A    
O8    Ba1   2.771590 S    
N14   H59   1.046294 S    
C22   C23   1.514972 S    
P4    Ba2   3.371402 S    
C62   H45   1.076461 S    
P2    O20   1.583485 S    
P7    O22   1.746860 S    
C27   C49   1.402375 A    
