data_mof_unit_22513.cif
_audit_creation_date              2013-03-05T16:41:25-0500
_audit_creation_method            fapswitch 2.2
_symmetry_space_group_name_H-M    P1
_symmetry_Int_Tables_number       1
_space_group_crystal_system       triclinic
_cell_length_a                    10.363272
_cell_length_b                    10.722109
_cell_length_c                    10.00662
_cell_angle_alpha                 89.380858
_cell_angle_beta                  101.269559
_cell_angle_gamma                 93.497233
_cell_volume                      1088.42659128

loop_
_atom_site_label
_atom_site_type_symbol
_atom_site_description
_atom_site_fract_x
_atom_site_fract_y
_atom_site_fract_z
_atom_type_partial_charge
O1    O     O_R   0.500020 0.316790 0.614700 -0.615332
O2    O     O_R   0.500000 0.316760 0.385350 -0.544811
C1    C     C_R   0.511305 0.261327 0.501784 0.931630
O3    O     O_R   0.317820 0.500020 0.571850 -0.562736
O4    O     O_R   0.317800 0.499980 0.342510 -0.549764
C2    C     C_R   0.258854 0.518730 0.444143 0.863209
Zn1   Zn    Zn3+2 0.500010 0.500020 0.653140 1.123185
Zn2   Zn    Zn3+2 0.499990 0.499980 0.346860 1.142670
O5    O     O_R   0.500000 0.683240 0.614650 -0.569553
O6    O     O_R   0.499980 0.683210 0.385300 -0.598839
O7    O     O_R   0.682200 0.500020 0.657490 -0.562010
O8    O     O_R   0.682180 0.499980 0.428150 -0.563498
C3    C     C_R   0.502890 0.740033 0.500191 0.939283
C4    C     C_R   0.744234 0.499138 0.555466 0.855555
C5    C     C_2   0.161949 0.617978 0.416313 0.191976
C6    C     C_2   0.052503 0.626830 0.469644 0.346918
C7    C     C_2   0.888259 0.525467 0.586929 0.092937
C8    C     C_2   0.964504 0.517767 0.492305 0.218537
C9    C     C_R   0.549057 0.065754 0.626307 -0.043565
C10   C     C_R   0.542407 0.131916 0.505163 -0.219852
C11   C     C_R   0.557206 0.067000 0.387000 0.454193
C12   C     C_R   0.543385 0.937663 0.386607 -0.096771
H1    H     H_    0.543958 0.888753 0.293138 0.250885
C13   C     C_R   0.520009 0.873185 0.502816 -0.153929
C14   C     C_R   0.532216 0.937733 0.625138 0.027165
C15   C     C_3   0.442141 0.941300 0.726727 0.484511
C16   C     C_3   0.475979 0.081689 0.737174 0.203066
H2    H     H_    0.389811 0.139208 0.706688 0.153230
C17   C     C_R   0.420372 0.418342 0.056917 0.036484
N1    N     N_R   0.499160 0.499140 0.142600 -0.158901
C18   C     C_R   0.588451 0.573991 0.089291 0.303497
C19   C     C_R   0.593047 0.570387 0.946911 0.296428
N2    N     N_R   0.499160 0.499180 0.856960 -0.146071
C20   C     C_R   0.427164 0.409129 0.918203 -0.000258
C21   C     C_3   0.280476 0.367325 0.891366 0.282650
C22   C     C_3   0.275151 0.398225 0.040417 0.398035
Cl1   Cl    Cl    0.928213 0.400661 0.365027 -0.382493
Cl2   Cl    Cl    0.594741 0.136891 0.883146 -0.314960
N3    N     N_R   0.675245 0.661007 0.175664 0.239941
O9    O     O_R   0.785173 0.623077 0.244224 -0.278190
O10   O     O_R   0.667607 0.779688 0.150140 -0.270514
N4    N     N_R   0.706297 0.630629 0.904465 0.258395
O11   O     O_R   0.693969 0.711017 0.805848 -0.278820
O12   O     O_R   0.822233 0.622754 0.981226 -0.184508
N5    N     N_R   0.201784 0.442601 0.787303 0.214235
O13   O     O_R   0.221142 0.563728 0.787251 -0.306502
O14   O     O_R   0.130485 0.387736 0.680464 -0.354396
N6    N     N_R   0.254648 0.231388 0.866589 0.209466
O15   O     O_R   0.135837 0.187180 0.814579 -0.191956
O16   O     O_R   0.333031 0.154421 0.937871 -0.280405
N7    N     N_R   0.208900 0.513002 0.057412 0.242397
O17   O     O_R   0.091712 0.504824 0.086505 -0.186311
O18   O     O_R   0.268433 0.623171 0.053414 -0.267343
Cl3   Cl    Cl    0.229900 0.273772 0.147730 -0.321505
Cl4   Cl    Cl    0.979066 0.773162 0.461138 -0.284139
N8    N     N_R   0.944128 0.573505 0.719834 0.247309
O19   O     O_R   0.965450 0.693086 0.741000 -0.186814
O20   O     O_R   0.946100 0.498782 0.823201 -0.230111
Cl5   Cl    Cl    0.208091 0.745242 0.317473 -0.329329
Cl6   Cl    Cl    0.585791 0.138836 0.234988 -0.334529
N9    N     N_R   0.303109 0.911687 0.664128 0.189040
O21   O     O_R   0.230029 0.835189 0.723721 -0.183917
O22   O     O_R   0.249544 0.965934 0.551546 -0.315496
Cl7   Cl    Cl    0.492452 0.858196 0.882182 -0.328696

loop_
_geom_bond_atom_site_label_1
_geom_bond_atom_site_label_2
_geom_bond_distance
_ccdc_geom_bond_type
O4    Zn2   1.880063 S    
O6    C3    1.301233 A    
C17   N1    1.344790 A    
N7    O17   1.300753 A    
N8    O20   1.299251 A    
C9    C16   1.477083 S    
C18   C19   1.435822 A    
C4    C7    1.474258 S    
C7    N8    1.430627 S    
Zn2   O8    1.904274 S    
Zn2   N1    2.042403 S    
C19   N2    1.386261 A    
C10   C11   1.416959 A    
N6    O16   1.300871 A    
C7    C8    1.352687 D    
C14   C15   1.510728 S    
C6    Cl4   1.779222 S    
C1    C10   1.442089 S    
N3    O10   1.299285 A    
C6    C8    1.481740 S    
O1    Zn1   2.005999 S    
C11   C12   1.385392 A    
N8    O19   1.300239 A    
Zn1   O7    1.880062 S    
Zn1   N2    2.041209 S    
C17   C22   1.484173 S    
C15   C16   1.524603 S    
N9    O21   1.300807 A    
C22   N7    1.472437 S    
N4    O12   1.300363 A    
O3    Zn1   1.904274 S    
O4    C2    1.307710 A    
C21   N6    1.480472 S    
O3    C2    1.323228 A    
N6    O15   1.302018 A    
C8    Cl1   1.769147 S    
O8    C4    1.310333 A    
N2    C20   1.393751 A    
O2    C1    1.290215 A    
N5    O14   1.298773 A    
N1    C18   1.370407 A    
C9    C14   1.372990 A    
O7    C4    1.308859 A    
C12   C13   1.400420 A    
C22   Cl3   1.800882 S    
N4    O11   1.295700 A    
C16   Cl2   1.796066 S    
C5    C6    1.353167 D    
C21   N5    1.459813 S    
N3    O9    1.295728 A    
O5    C3    1.296002 A    
C13   C14   1.392971 A    
C11   Cl6   1.765731 S    
Zn2   O6    2.005998 S    
C20   C21   1.530970 S    
C16   H2    1.107915 S    
Zn1   O5    1.997818 S    
C15   Cl7   1.787565 S    
C12   H1    1.078424 S    
C19   N4    1.439262 S    
N7    O18   1.302801 A    
C2    C5    1.494370 S    
N5    O13   1.301998 A    
C5    Cl5   1.773394 S    
C17   C20   1.408334 A    
C15   N9    1.471360 S    
N9    O22   1.302462 A    
O2    Zn2   1.997820 S    
C9    C10   1.390060 A    
C3    C13   1.427764 S    
C18   N3    1.427492 S    
O1    C1    1.310978 A    
C21   C22   1.543515 S    
