data_mof_unit_28154.cif
_audit_creation_date              2013-03-05T16:07:36-0500
_audit_creation_method            fapswitch 2.2
_symmetry_space_group_name_H-M    P1
_symmetry_Int_Tables_number       1
_space_group_crystal_system       triclinic
_cell_length_a                    21.65676
_cell_length_b                    7.060417
_cell_length_c                    14.857494
_cell_angle_alpha                 90.012273
_cell_angle_beta                  106.099422
_cell_angle_gamma                 90.005767
_cell_volume                      2182.7008595

loop_
_atom_site_label
_atom_site_type_symbol
_atom_site_description
_atom_site_fract_x
_atom_site_fract_y
_atom_site_fract_z
_atom_type_partial_charge
O1    O     O_R   0.585850 0.505770 0.002130 -0.589570
O2    O     O_R   0.414150 0.005770 0.997870 -0.589551
O3    O     O_R   0.467530 0.173560 0.861970 -0.589350
O4    O     O_R   0.532470 0.673560 0.138030 -0.589321
C1    C     C_R   0.455572 0.344278 0.825291 0.911519
C2    C     C_R   0.544418 0.844342 0.174704 0.911477
O5    O     O_R   0.588690 0.175900 0.993250 -0.599063
O6    O     O_R   0.411310 0.675900 0.006750 -0.599080
O7    O     O_R   0.536170 0.007950 0.130090 -0.589018
O8    O     O_R   0.463830 0.507950 0.869910 -0.589102
C3    C     C_R   0.615130 0.344637 0.998042 0.939003
C4    C     C_R   0.384869 0.844624 0.001950 0.938921
O9    O     O_3   0.482630 0.339970 0.044740 -0.281013
O10   O     O_3   0.517370 0.839970 0.955260 -0.281061
V1    V     V_3+5 0.503220 0.064200 0.991700 1.160527
V2    V     V_3+5 0.496780 0.564200 0.008300 1.160510
C5    C     C_R   0.275688 0.998932 0.951734 0.161803
C6    C     C_R   0.724326 0.498965 0.048255 0.161684
C7    C     C_R   0.315658 0.852067 0.997838 -0.207906
C8    C     C_R   0.684337 0.352092 0.002133 -0.207818
C9    C     C_R   0.286164 0.704674 0.034975 -0.187192
C10   C     C_R   0.713812 0.204664 0.964974 -0.187148
H1    H     H_    0.314204 0.584724 0.068864 0.128283
H2    H     H_    0.685757 0.084698 0.931075 0.128197
C11   C     C_R   0.220976 0.716620 0.034376 -0.063556
C12   C     C_R   0.779003 0.216579 0.965573 -0.063594
H3    H     H_    0.201069 0.605285 0.067917 0.119159
H4    H     H_    0.798898 0.105212 0.932025 0.119045
C13   C     C_R   0.183104 0.875469 0.995869 -0.252821
C14   C     C_R   0.816891 0.375445 0.004091 -0.252754
C15   C     C_R   0.211261 0.009479 0.950145 0.104805
C16   C     C_R   0.788746 0.509504 0.049808 0.105155
C17   C     C_3   0.213012 0.220714 0.954315 0.205139
C18   C     C_3   0.787028 0.720730 0.045671 0.205411
C19   C     C_3   0.283847 0.209011 0.956320 -0.600008
C20   C     C_3   0.716204 0.709052 0.043729 -0.600261
H5    H     H_    0.204479 0.279032 0.019362 0.050379
H6    H     H_    0.795537 0.779021 0.980612 0.050308
H7    H     H_    0.316956 0.255759 0.024022 0.178514
H8    H     H_    0.683076 0.755819 0.976063 0.178601
H9    H     H_    0.294967 0.267009 0.892998 0.219248
H10   H     H_    0.705131 0.767057 0.107094 0.219039
C21   C     C_R   0.927416 0.887242 0.723515 -0.091494
C22   C     C_R   0.072544 0.387543 0.276517 -0.091843
C23   C     C_R   0.572384 0.850702 0.276096 -0.082595
C24   C     C_R   0.427617 0.350272 0.723885 -0.083083
C25   C     C_R   0.937735 0.937294 0.567783 -0.169586
C26   C     C_R   0.062406 0.440969 0.432118 -0.169507
C27   C     C_R   0.965633 0.924727 0.663932 -0.136303
C28   C     C_R   0.034463 0.427531 0.336007 -0.136382
C29   C     C_R   0.861082 0.862804 0.687074 -0.248393
C30   C     C_R   0.138798 0.361491 0.313032 -0.248389
C31   C     C_R   0.831060 0.879896 0.589722 0.114840
C32   C     C_R   0.168888 0.379567 0.410332 0.114614
C33   C     C_R   0.871010 0.917089 0.530386 0.140269
C34   C     C_R   0.129066 0.419297 0.469564 0.140464
C35   C     C_R   0.763001 0.864535 0.549652 0.069345
C36   C     C_R   0.236909 0.362978 0.450428 0.069250
C37   C     C_R   0.736312 0.884348 0.450518 0.027335
C38   C     C_R   0.263694 0.384407 0.549470 0.027498
C39   C     C_R   0.778385 0.922387 0.395045 -0.148245
C40   C     C_R   0.221736 0.424721 0.604847 -0.147829
C41   C     C_R   0.844201 0.937515 0.434315 -0.176196
C42   C     C_R   0.155953 0.440873 0.565562 -0.176014
C43   C     C_R   0.720707 0.831762 0.605402 -0.196879
C44   C     C_R   0.279076 0.327385 0.394780 -0.196981
C45   C     C_R   0.654881 0.816933 0.566072 -0.244019
C46   C     C_R   0.344868 0.311519 0.434112 -0.243957
C47   C     C_R   0.628291 0.831898 0.469694 0.190577
C48   C     C_R   0.371548 0.328260 0.530400 0.190521
C49   C     C_R   0.668386 0.865769 0.410230 0.111781
C50   C     C_R   0.331591 0.364978 0.589767 0.111712
C51   C     C_R   0.561625 0.810293 0.432199 -0.181272
C52   C     C_R   0.438158 0.305436 0.567917 -0.181284
C53   C     C_R   0.533947 0.817951 0.335858 -0.178481
C54   C     C_R   0.465903 0.314578 0.664207 -0.178084
C55   C     C_R   0.638690 0.875701 0.312537 -0.234210
C56   C     C_R   0.361379 0.376686 0.687396 -0.234334
H11   H     H_    0.874461 0.967379 0.388833 0.174606
H12   H     H_    0.125787 0.472534 0.610969 0.173769
H13   H     H_    0.665535 0.896318 0.262200 0.108135
H14   H     H_    0.334633 0.399542 0.737679 0.108437
H15   H     H_    0.482643 0.796667 0.307780 0.106170
H16   H     H_    0.517137 0.292007 0.692326 0.106330
H17   H     H_    0.624448 0.791376 0.611773 0.131416
H18   H     H_    0.375197 0.283715 0.388495 0.131441
H19   H     H_    0.968245 0.966677 0.522640 0.130865
H20   H     H_    0.031996 0.472347 0.477174 0.130880
H21   H     H_    0.016930 0.946217 0.692050 0.138831
H22   H     H_    0.983243 0.450388 0.307832 0.139291
H23   H     H_    0.834515 0.836225 0.737228 0.095907
H24   H     H_    0.165283 0.333210 0.262943 0.096147
H25   H     H_    0.762102 0.943655 0.320514 0.167480
H26   H     H_    0.238083 0.446949 0.679311 0.166907
H27   H     H_    0.736675 0.816938 0.680348 0.124480
H28   H     H_    0.263029 0.310938 0.319920 0.124551
H29   H     H_    0.530969 0.784137 0.477484 0.122300
H30   H     H_    0.468701 0.276983 0.522713 0.122329
O11   O     O_R   0.036080 0.231270 0.130120 -0.590696
O12   O     O_R   0.963920 0.731270 0.869880 -0.590763
O13   O     O_R   0.911300 0.558970 0.006750 -0.602106
O14   O     O_R   0.088700 0.058970 0.993250 -0.602086
C57   C     C_R   0.884803 0.389814 0.001690 0.941994
C58   C     C_R   0.115195 0.889828 0.998290 0.941822
O15   O     O_R   0.032450 0.561140 0.138040 -0.593246
O16   O     O_R   0.967550 0.061140 0.861960 -0.593112
O17   O     O_R   0.085870 0.728910 0.002130 -0.571536
O18   O     O_R   0.914130 0.228910 0.997870 -0.571531
C59   C     C_R   0.044602 0.392743 0.175088 0.925407
C60   C     C_R   0.955392 0.892688 0.824921 0.925366
O19   O     O_3   0.017320 0.394650 0.955270 -0.252099
O20   O     O_3   0.982680 0.894650 0.044730 -0.252133
V3    V     V_3+5 0.996780 0.670490 0.008300 1.225369
V4    V     V_3+5 0.003220 0.170490 0.991700 1.225425
N1    N     N_R   0.172687 0.306198 0.868273 0.254703
O21   O     O_R   0.172942 0.240895 0.786409 -0.432758
O22   O     O_R   0.134142 0.444437 0.873335 -0.389881
N2    N     N_R   0.827398 0.806221 0.131703 0.254669
O23   O     O_R   0.827330 0.740528 0.213558 -0.433614
O24   O     O_R   0.865843 0.944738 0.126630 -0.389850

loop_
_geom_bond_atom_site_label_1
_geom_bond_atom_site_label_2
_geom_bond_distance
_ccdc_geom_bond_type
C18   N2    1.463664 S    
C44   C46   1.386535 A    
O12   C60   1.308095 A    
C2    C23   1.460169 S    
C46   H18   1.084519 S    
C20   H10   1.112028 S    
O1    C3    1.312076 A    
O2    C4    1.312062 A    
C54   H16   1.083529 S    
O11   V4    2.026808 S    
C24   C54   1.394574 A    
C25   C27   1.391047 A    
C41   H11   1.084528 S    
C51   H29   1.084123 S    
C36   C44   1.413987 A    
C52   C54   1.391073 A    
O16   V4    2.020370 S    
O15   V3    2.020744 S    
C7    C9    1.411021 A    
C32   C36   1.432480 A    
C19   H7    1.111149 S    
C17   C19   1.528294 S    
C39   H25   1.075464 S    
C35   C37   1.432123 A    
C38   C50   1.432220 A    
C36   C38   1.432208 A    
N1    O21   1.302103 A    
O11   C59   1.308216 A    
O13   V3    2.005882 S    
C38   C40   1.413578 A    
C37   C39   1.413567 A    
O18   V4    1.999842 S    
C39   C41   1.386445 A    
N2    O23   1.302083 A    
O17   V3    1.999770 S    
C40   C42   1.386442 A    
C29   H23   1.076742 S    
C28   H22   1.083627 S    
N1    O22   1.300026 A    
C33   C41   1.391319 A    
C14   C57   1.484502 S    
C48   C52   1.404204 A    
C50   C56   1.417031 A    
C34   C42   1.391354 A    
C47   C51   1.404258 A    
C57   O18   1.310474 A    
C21   C60   1.460216 S    
C18   C20   1.528306 S    
C22   C59   1.460406 S    
C22   C30   1.398327 A    
O5    V1    2.006182 S    
C47   C49   1.420304 A    
O6    V2    2.006333 S    
C42   H12   1.084558 S    
C2    O7    1.319218 A    
O20   V4    2.192361 S    
O20   V3    1.726970 S    
C30   C32   1.417113 A    
C31   C33   1.420486 A    
C11   C13   1.413530 A    
C32   C34   1.420485 A    
C3    C8    1.484016 S    
C17   N1    1.463701 S    
C45   H17   1.084529 S    
C15   C17   1.492722 S    
C44   H28   1.075597 S    
C53   H15   1.083518 S    
C20   H8    1.111147 S    
C52   H30   1.084105 S    
C27   H21   1.083624 S    
C24   C56   1.398313 A    
C31   C35   1.432459 A    
C21   C27   1.394683 A    
C43   C45   1.386586 A    
C17   H5    1.112029 S    
C13   C58   1.484554 S    
C29   C31   1.417000 A    
C16   C18   1.492666 S    
O4    V2    2.020322 S    
O5    C3    1.315099 A    
O14   V4    2.006032 S    
C56   H14   1.076866 S    
C55   H13   1.076895 S    
O6    C4    1.315152 A    
C26   H20   1.084147 S    
O19   V3    2.192140 S    
O1    V2    1.999433 S    
O14   C58   1.318080 A    
O2    V1    1.999361 S    
O4    C2    1.318809 A    
C8    C10   1.411070 A    
C12   C14   1.413506 A    
C40   H26   1.075485 S    
C5    C15   1.390939 A    
C10   H2    1.081773 S    
C30   H24   1.076755 S    
C6    C16   1.390875 A    
C51   C53   1.391144 A    
C49   C55   1.416913 A    
O3    V1    2.020696 S    
C25   C33   1.404220 A    
O16   C60   1.306132 A    
C22   C28   1.394760 A    
C26   C34   1.404179 A    
C9    C11   1.411861 A    
C18   H6    1.112031 S    
O12   V3    2.027025 S    
C35   C43   1.414019 A    
O3    C1    1.318694 A    
C48   C50   1.420321 A    
C11   H3    1.082295 S    
C1    C24   1.460283 S    
C12   H4    1.082295 S    
C23   C53   1.394541 A    
C9    H1    1.081770 S    
O7    V1    2.020215 S    
C1    O8    1.319367 A    
C13   C15   1.399454 A    
O8    V2    2.020015 S    
C14   C16   1.399372 A    
C21   C29   1.398288 A    
O15   C59   1.306085 A    
C4    C7    1.484029 S    
C26   C28   1.391028 A    
C5    C7    1.401910 A    
O19   V4    1.727126 S    
C6    C8    1.401893 A    
C19   H9    1.112032 S    
N2    O24   1.300025 A    
C43   H27   1.075606 S    
O13   C57   1.318039 A    
C10   C12   1.411885 A    
O9    V2    1.727917 S    
C46   C48   1.391369 A    
O10   V1    1.727762 S    
C23   C55   1.398217 A    
C5    C19   1.493020 S    
C45   C47   1.391385 A    
C6    C20   1.493045 S    
C58   O17   1.310491 A    
C37   C49   1.432149 A    
C25   H19   1.084120 S    
