data_mof_unit_40963.cif
_audit_creation_date              2013-03-05T15:44:12-0500
_audit_creation_method            fapswitch 2.2
_symmetry_space_group_name_H-M    P1
_symmetry_Int_Tables_number       1
_space_group_crystal_system       triclinic
_cell_length_a                    26.302596
_cell_length_b                    28.675203
_cell_length_c                    8.680249
_cell_angle_alpha                 88.64983
_cell_angle_beta                  96.781591
_cell_angle_gamma                 90.549017
_cell_volume                      6499.16101041

loop_
_atom_site_label
_atom_site_type_symbol
_atom_site_description
_atom_site_fract_x
_atom_site_fract_y
_atom_site_fract_z
_atom_type_partial_charge
P1    P     P_3+3 0.893960 0.447890 0.040050 0.517331
P2    P     P_3+3 0.893960 0.552110 0.540050 0.452996
P3    P     P_3+3 0.393960 0.947890 0.040050 0.512554
P4    P     P_3+3 0.393960 0.052110 0.540050 0.454403
O1    O     O_2   0.898940 0.431940 0.867860 -0.344920
O2    O     O_2   0.898940 0.568060 0.367860 -0.393128
O3    O     O_2   0.398940 0.931940 0.867860 -0.340882
O4    O     O_2   0.398940 0.068060 0.367860 -0.393425
O5    O     O_3   0.941140 0.476130 0.123050 -0.363893
O6    O     O_3   0.941140 0.523870 0.623050 -0.448686
O7    O     O_3   0.441140 0.976130 0.123050 -0.365066
O8    O     O_3   0.441140 0.023870 0.623050 -0.446838
O9    O     O_3   0.982430 0.389880 0.635700 -0.349983
O10   O     O_3   0.982430 0.610120 0.135700 -0.377944
O11   O     O_3   0.482430 0.889880 0.635700 -0.322049
O12   O     O_3   0.482430 0.110120 0.135700 -0.378477
O13   O     O_2   0.889579 0.365092 0.703007 -0.390305
O14   O     O_2   0.890276 0.637281 0.217762 -0.338387
O15   O     O_2   0.389128 0.869720 0.687163 -0.395469
O16   O     O_2   0.390004 0.136914 0.216204 -0.338122
O17   O     O_3   0.845715 0.490322 0.008956 -0.623240
O18   O     O_3   0.844665 0.509638 0.529195 -0.616117
O19   O     O_3   0.345090 0.989695 0.009518 -0.626404
O20   O     O_3   0.344410 0.009889 0.528568 -0.615135
O21   O     O_3   0.941039 0.292334 0.675357 -0.553677
O22   O     O_3   0.941510 0.706427 0.145441 -0.606348
O23   O     O_3   0.444154 0.799015 0.726716 -0.515366
O24   O     O_3   0.441517 0.206302 0.147921 -0.606833
C1    C     C_3   0.995371 0.227519 0.737272 0.058132
C2    C     C_3   0.999782 0.768478 0.204474 0.055265
C3    C     C_3   0.423131 0.726553 0.591969 0.092954
C4    C     C_3   0.499402 0.268875 0.203734 0.054988
P5    P     P_3+3 0.105800 0.447360 0.649510 0.441684
P6    P     P_3+3 0.105800 0.552640 0.149510 0.434461
P7    P     P_3+3 0.605800 0.947360 0.649510 0.436976
P8    P     P_3+3 0.605800 0.052640 0.149510 0.449650
P9    P     P_3+3 0.068699 0.349442 0.096225 0.471280
P10   P     P_3+3 0.071579 0.649760 0.587110 0.455093
P11   P     P_3+3 0.567633 0.848642 0.096388 0.463593
P12   P     P_3+3 0.571582 0.149789 0.587623 0.455363
O25   O     O_2   0.100770 0.431440 0.821660 -0.363019
O26   O     O_2   0.100770 0.568560 0.321660 -0.365390
O27   O     O_2   0.600770 0.931440 0.821660 -0.352925
O28   O     O_2   0.600770 0.068560 0.321660 -0.358282
O29   O     O_3   0.017130 0.389790 0.053700 -0.351841
O30   O     O_3   0.017130 0.610210 0.553700 -0.402759
O31   O     O_3   0.517130 0.889790 0.053700 -0.345442
O32   O     O_3   0.517130 0.110210 0.553700 -0.402743
O33   O     O_2   0.105730 0.358195 0.973176 -0.391825
O34   O     O_2   0.105502 0.642317 0.456485 -0.375213
O35   O     O_2   0.607427 0.860242 0.983747 -0.390037
O36   O     O_2   0.605906 0.141927 0.458308 -0.369716
O37   O     O_3   0.157817 0.485441 0.689648 -0.623594
O38   O     O_3   0.154760 0.511599 0.194470 -0.611217
O39   O     O_3   0.658576 0.984735 0.689682 -0.614807
O40   O     O_3   0.655250 0.012162 0.193667 -0.597244
O41   O     O_3   0.048098 0.292484 0.053780 -0.551225
O42   O     O_3   0.052560 0.707406 0.545521 -0.547082
O43   O     O_3   0.545799 0.793840 0.032061 -0.563152
O44   O     O_3   0.552747 0.207362 0.543663 -0.548667
C5    C     C_3   0.003441 0.281134 0.121499 1.165773
C6    C     C_3   0.005862 0.716607 0.601870 1.207851
C7    C     C_3   0.512190 0.773774 0.130226 1.196780
C8    C     C_3   0.506337 0.217113 0.600940 1.205450
C9    C     C_3   0.008799 0.229834 0.178973 -1.088686
C10   C     C_3   0.008387 0.767823 0.653357 -1.088506
C11   C     C_3   0.539191 0.731516 0.213283 -1.104665
C12   C     C_3   0.509586 0.268369 0.652027 -1.087329
H1    H     H_    0.000242 0.205684 0.081664 0.266636
H2    H     H_    0.002457 0.791985 0.551562 0.261913
H3    H     H_    0.546191 0.704750 0.127917 0.266643
H4    H     H_    0.503539 0.292492 0.550167 0.263494
C13   C     C_3   0.183753 0.507637 0.069525 0.106537
C14   C     C_3   0.182321 0.494231 0.557188 0.000144
C15   C     C_3   0.681265 0.004573 0.064087 0.140957
C16   C     C_3   0.679118 0.995690 0.552109 0.052639
C17   C     C_3   0.233742 0.482167 0.125265 0.830148
C18   C     C_3   0.235849 0.514350 0.609264 0.961568
C19   C     C_3   0.736168 0.988749 0.119788 0.922417
C20   C     C_3   0.722042 0.032089 0.583949 0.982575
Ba1   Ba    Ba6+2 0.999910 0.465960 0.844870 1.608375
Ba2   Ba    Ba6+2 0.999910 0.534040 0.344870 1.589263
Ba3   Ba    Ba6+2 0.499910 0.965960 0.844870 1.610019
Ba4   Ba    Ba6+2 0.499910 0.034040 0.344870 1.592898
C21   C     C_3   0.801634 0.473934 0.914798 0.926305
C22   C     C_3   0.808481 0.511938 0.394046 0.947853
C23   C     C_3   0.301413 0.972949 0.914302 0.924706
C24   C     C_3   0.308765 0.012291 0.392162 0.940153
C25   C     C_3   0.759057 0.460224 0.014549 -0.042337
C26   C     C_3   0.781761 0.559428 0.369405 0.125484
C27   C     C_3   0.259099 0.957910 0.013185 -0.036026
C28   C     C_3   0.281852 0.059701 0.367430 0.128523
O45   O     O_3   0.058810 0.523750 0.066650 -0.466153
O46   O     O_3   0.058810 0.476250 0.566650 -0.457206
O47   O     O_3   0.558810 0.023750 0.066650 -0.471650
O48   O     O_3   0.558810 0.976250 0.566650 -0.463948
P13   P     P_3+3 0.927108 0.648378 0.096809 0.554700
P14   P     P_3+3 0.930004 0.349234 0.600932 0.563645
P15   P     P_3+3 0.427203 0.148446 0.096705 0.554543
P16   P     P_3+3 0.431363 0.848214 0.603440 0.562956
C29   C     C_3   0.992161 0.278693 0.676395 0.987754
C30   C     C_3   0.993649 0.717493 0.149968 0.966606
C31   C     C_3   0.465383 0.760593 0.657847 0.833626
C32   C     C_3   0.493502 0.217748 0.150444 0.966993
C33   C     C_R   0.907847 0.385275 0.297258 0.220563
C34   C     C_R   0.891244 0.606760 0.811481 0.197171
C35   C     C_R   0.409854 0.883614 0.296589 0.250962
C36   C     C_R   0.391564 0.107042 0.810936 0.196955
C37   C     C_R   0.879491 0.393113 0.152895 0.132799
C38   C     C_R   0.873975 0.605372 0.653130 0.208134
C39   C     C_R   0.381423 0.891834 0.151741 0.107508
C40   C     C_R   0.374295 0.105593 0.652631 0.207781
C41   C     C_R   0.839457 0.361357 0.104077 -0.465440
C42   C     C_R   0.839468 0.641494 0.593778 -0.510696
C43   C     C_R   0.343137 0.858865 0.099613 -0.425245
C44   C     C_R   0.340288 0.142006 0.592645 -0.507177
C45   C     C_R   0.826480 0.323649 0.202922 -0.140240
C46   C     C_R   0.824939 0.677784 0.690819 -0.143087
C47   C     C_R   0.330132 0.821038 0.197729 -0.103634
C48   C     C_R   0.326100 0.178596 0.689162 -0.140291
C49   C     C_R   0.852437 0.320819 0.357212 0.412250
C50   C     C_R   0.849520 0.679999 0.846417 0.444960
C51   C     C_R   0.354535 0.818962 0.353972 0.371238
C52   C     C_R   0.350148 0.180500 0.845436 0.443574
C53   C     C_R   0.894648 0.350448 0.400768 0.019947
C54   C     C_R   0.885355 0.645314 0.903294 0.006628
C55   C     C_R   0.397694 0.847474 0.398791 -0.012126
C56   C     C_R   0.385798 0.145682 0.902575 0.007735
C57   C     C_R   0.798152 0.238320 0.183167 -0.140036
C58   C     C_R   0.799732 0.761880 0.614035 -0.183354
C59   C     C_R   0.298785 0.736418 0.186637 -0.134181
C60   C     C_R   0.302507 0.263529 0.618819 -0.189353
C61   C     C_R   0.262870 0.701585 0.136692 -0.197671
C62   C     C_R   0.266122 0.299141 0.580160 -0.187573
C63   C     C_R   0.762890 0.202999 0.132641 -0.212665
C64   C     C_R   0.762682 0.797001 0.576568 -0.195439
C65   C     C_R   0.218565 0.712370 0.035483 0.197805
C66   C     C_R   0.214034 0.288370 0.541425 0.185312
C67   C     C_R   0.717148 0.213564 0.038023 0.203519
C68   C     C_R   0.710347 0.785751 0.547720 0.195586
C69   C     C_R   0.211582 0.759478 0.986199 -0.189805
C70   C     C_R   0.199811 0.240672 0.540553 -0.178023
C71   C     C_R   0.708056 0.260921 0.995340 -0.190137
C72   C     C_R   0.696463 0.738077 0.555537 -0.186368
C73   C     C_R   0.743217 0.296385 0.046935 -0.206065
C74   C     C_R   0.733480 0.703074 0.597302 -0.175426
C75   C     C_R   0.247497 0.794424 0.036685 -0.209852
C76   C     C_R   0.236033 0.205155 0.584035 -0.172588
C77   C     C_R   0.788744 0.285843 0.143430 0.207151
C78   C     C_R   0.785793 0.714436 0.629775 0.266944
C79   C     C_R   0.291712 0.783666 0.138940 0.210992
C80   C     C_R   0.288004 0.215997 0.626737 0.265885
C81   C     C_R   0.154720 0.677193 0.826035 -0.398286
C82   C     C_R   0.148174 0.323389 0.339103 -0.373504
C83   C     C_R   0.654118 0.177915 0.827806 -0.397837
C84   C     C_R   0.642785 0.819076 0.347235 -0.400204
C85   C     C_R   0.114729 0.645870 0.778662 0.116464
C86   C     C_R   0.106837 0.353146 0.292287 0.085577
C87   C     C_R   0.614510 0.146246 0.779760 0.119724
C88   C     C_R   0.602597 0.849822 0.297940 0.068391
C89   C     C_R   0.126135 0.606376 0.034700 0.210990
C90   C     C_R   0.120869 0.392922 0.541162 0.195454
C91   C     C_R   0.626143 0.106538 0.035480 0.217563
C92   C     C_R   0.619289 0.892106 0.542334 0.182746
C93   C     C_R   0.165971 0.638293 0.083792 -0.396612
C94   C     C_R   0.162683 0.362409 0.588125 -0.356051
C95   C     C_R   0.665855 0.138580 0.084947 -0.385740
C96   C     C_R   0.659978 0.860595 0.591173 -0.365322
C97   C     C_R   0.179929 0.675020 0.980971 0.067880
C98   C     C_R   0.175055 0.325757 0.489707 0.056654
C99   C     C_R   0.679293 0.175702 0.982745 0.056789
C100  C     C_R   0.670682 0.822528 0.496158 0.034666
C101  C     C_R   0.103052 0.611522 0.883593 0.278621
C102  C     C_R   0.092723 0.385863 0.396300 0.291853
C103  C     C_R   0.603083 0.111714 0.884344 0.274334
C104  C     C_R   0.590449 0.884562 0.398460 0.282337
H5    H     H_    0.734263 0.332229 0.013318 0.138508
H6    H     H_    0.721089 0.667112 0.607055 0.112759
H7    H     H_    0.239998 0.830102 0.997839 0.136173
H8    H     H_    0.223226 0.169180 0.587126 0.110278
H9    H     H_    0.016613 0.301719 0.756682 0.082413
H10   H     H_    0.016020 0.693559 0.235099 0.101379
H11   H     H_    0.487657 0.740796 0.755195 0.087706
H12   H     H_    0.516281 0.194060 0.235431 0.101020
O49   O     O_3   0.265948 0.482594 0.004861 -0.627791
C105  C     C_3   0.317841 0.480398 0.068249 -0.246191
H13   H     H_    0.341585 0.475253 0.972649 0.193802
H14   H     H_    0.325057 0.450594 0.152256 0.130836
H15   H     H_    0.330123 0.513703 0.124852 0.131223
O50   O     O_3   0.268261 0.479003 0.683134 -0.593198
C106  C     C_3   0.292908 0.453060 0.577390 -0.178756
H16   H     H_    0.323571 0.474190 0.531082 0.167178
H17   H     H_    0.265767 0.439520 0.480948 0.148271
H18   H     H_    0.311448 0.422478 0.640598 0.130252
O51   O     O_3   0.759447 0.971244 0.993875 -0.631835
C107  C     C_3   0.813186 0.970760 0.031047 -0.237958
H19   H     H_    0.830002 0.950350 0.943030 0.161051
H20   H     H_    0.825125 0.953612 0.145834 0.139123
H21   H     H_    0.828996 0.006819 0.028014 0.136548
O52   O     O_3   0.764765 0.014342 0.683069 -0.623058
C108  C     C_3   0.791783 0.980115 0.611308 -0.152129
H22   H     H_    0.798006 0.989558 0.490125 0.175851
H23   H     H_    0.772398 0.945650 0.616658 0.139803
H24   H     H_    0.830360 0.976481 0.676997 0.124263
H25   H     H_    0.251646 0.502359 0.225368 0.069629
H26   H     H_    0.231330 0.539955 0.701792 0.001593
H27   H     H_    0.756652 0.020886 0.163956 0.012468
H28   H     H_    0.705020 0.060380 0.647374 -0.054951
O53   O     O_3   0.223739 0.436360 0.181608 -0.686818
C109  C     C_3   0.219824 0.403007 0.063374 -0.110348
H29   H     H_    0.258346 0.394065 0.032982 0.145516
H30   H     H_    0.194909 0.414768 0.957782 0.175882
H31   H     H_    0.202965 0.370575 0.107928 0.159252
O54   O     O_3   0.257238 0.536010 0.482380 -0.678507
C110  C     C_3   0.247346 0.584344 0.473886 -0.382778
H32   H     H_    0.268524 0.602221 0.574499 0.177017
H33   H     H_    0.205686 0.591627 0.467194 0.164428
H34   H     H_    0.261205 0.598986 0.366986 0.188274
O55   O     O_3   0.738059 0.956092 0.246302 -0.670114
C111  C     C_3   0.718763 0.911780 0.200390 -0.239935
H35   H     H_    0.740340 0.896338 0.111786 0.184292
H36   H     H_    0.677340 0.913149 0.158944 0.148390
H37   H     H_    0.723471 0.887992 0.303445 0.158266
O56   O     O_3   0.736323 0.050015 0.441496 -0.657573
C112  C     C_3   0.761572 0.093353 0.464186 -0.318966
H38   H     H_    0.794516 0.091104 0.557029 0.171876
H39   H     H_    0.734331 0.120634 0.490816 0.159265
H40   H     H_    0.776962 0.103978 0.355118 0.161533
H41   H     H_    0.809185 0.442047 0.851277 0.013019
H42   H     H_    0.827507 0.504762 0.289530 -0.089024
H43   H     H_    0.309597 0.941515 0.849403 0.015980
H44   H     H_    0.328276 0.005486 0.288326 -0.078146
O57   O     O_3   0.785060 0.507859 0.797989 -0.581606
C113  C     C_3   0.772556 0.550900 0.860294 -0.118673
H45   H     H_    0.801239 0.562653 0.956210 0.145296
H46   H     H_    0.733845 0.549078 0.899134 0.143719
H47   H     H_    0.771146 0.578099 0.767092 0.128864
O58   O     O_3   0.769424 0.478217 0.409089 -0.595031
C114  C     C_3   0.789883 0.433044 0.433262 -0.157751
H48   H     H_    0.817339 0.425492 0.350324 0.026892
H49   H     H_    0.758140 0.407304 0.414669 0.141141
H50   H     H_    0.808342 0.428303 0.554398 0.173252
O59   O     O_3   0.284188 0.007044 0.798767 -0.582489
C115  C     C_3   0.271719 0.049854 0.862616 -0.116627
H51   H     H_    0.301174 0.061978 0.955814 0.148283
H52   H     H_    0.233638 0.047505 0.905530 0.143476
H53   H     H_    0.268949 0.077065 0.769189 0.128199
O60   O     O_3   0.269801 0.978342 0.404753 -0.597036
C116  C     C_3   0.290452 0.933213 0.427280 -0.161245
H54   H     H_    0.318495 0.926155 0.345460 0.027575
H55   H     H_    0.258858 0.907443 0.405757 0.139657
H56   H     H_    0.308258 0.928038 0.548914 0.177967
H57   H     H_    0.773084 0.431346 0.095013 0.057467
H58   H     H_    0.807965 0.584081 0.317347 0.063154
H59   H     H_    0.273624 0.928437 0.090554 0.048623
H60   H     H_    0.308184 0.084568 0.316964 0.063553
O61   O     O_3   0.715049 0.445842 0.917730 -0.575902
C117  C     C_3   0.675963 0.433910 0.009902 -0.132536
H61   H     H_    0.664141 0.464752 0.072154 0.156411
H62   H     H_    0.687904 0.405010 0.093859 0.114299
H63   H     H_    0.642049 0.421619 0.932957 0.142583
O62   O     O_3   0.736098 0.555204 0.267087 -0.597355
C118  C     C_3   0.713790 0.599561 0.238469 -0.227764
H64   H     H_    0.739022 0.623270 0.177649 0.144656
H65   H     H_    0.704665 0.615385 0.347707 0.140695
H66   H     H_    0.677339 0.595497 0.161404 0.168527
O63   O     O_3   0.215149 0.943895 0.915408 -0.574445
C119  C     C_3   0.176585 0.929981 0.007050 -0.143955
H67   H     H_    0.164640 0.959592 0.074855 0.154382
H68   H     H_    0.189163 0.900050 0.085910 0.115198
H69   H     H_    0.142578 0.918366 0.929146 0.143534
O64   O     O_3   0.236615 0.055389 0.263247 -0.595873
C120  C     C_3   0.214421 0.099726 0.232887 -0.237642
H70   H     H_    0.239882 0.123212 0.172034 0.147679
H71   H     H_    0.205027 0.115878 0.341323 0.139399
H72   H     H_    0.178129 0.095542 0.155130 0.163466
H73   H     H_    0.750474 0.490210 0.085276 0.157682
H74   H     H_    0.772732 0.571498 0.483859 0.091819
H75   H     H_    0.250256 0.987174 0.086742 0.158970
H76   H     H_    0.272269 0.071619 0.481524 0.090399
O65   O     O_3   0.006230 0.281791 0.524185 -0.682843
C121  C     C_3   0.058802 0.272385 0.526671 -0.365491
H77   H     H_    0.069238 0.279534 0.410200 0.174647
H78   H     H_    0.067050 0.234830 0.549081 0.188621
H79   H     H_    0.082975 0.294454 0.610196 0.182953
O66   O     O_3   0.008476 0.713729 0.999598 -0.702105
C122  C     C_3   0.061536 0.721495 0.003234 -0.362422
H80   H     H_    0.084003 0.698386 0.089887 0.187546
H81   H     H_    0.071947 0.758654 0.022168 0.192680
H82   H     H_    0.071828 0.714527 0.887705 0.175783
O67   O     O_3   0.496688 0.774122 0.542246 -0.706345
C123  C     C_3   0.546978 0.782796 0.611398 -0.237439
H83   H     H_    0.564621 0.750827 0.669046 0.124440
H84   H     H_    0.548171 0.811885 0.694319 0.219467
H85   H     H_    0.570224 0.792825 0.518848 0.166471
O68   O     O_3   0.507908 0.213863 0.999628 -0.702481
C124  C     C_3   0.560891 0.221848 0.002082 -0.366829
H86   H     H_    0.583660 0.198910 0.088590 0.186597
H87   H     H_    0.571157 0.259068 0.020297 0.193414
H88   H     H_    0.570952 0.214798 0.886439 0.175639
H89   H     H_    0.985565 0.204164 0.636788 0.073796
H90   H     H_    0.992042 0.792242 0.100744 0.059275
H91   H     H_    0.413498 0.732010 0.464598 0.088364
H92   H     H_    0.491347 0.292409 0.099537 0.059934
O69   O     O_3   0.044684 0.218645 0.815718 -0.585885
C125  C     C_3   0.052746 0.170124 0.830556 -0.208622
H93   H     H_    0.056764 0.155079 0.715732 0.127087
H94   H     H_    0.021472 0.151971 0.884597 0.117911
H95   H     H_    0.089025 0.163833 0.906904 0.171364
O70   O     O_3   0.049206 0.775357 0.284529 -0.578259
C126  C     C_3   0.060127 0.823500 0.294490 -0.195156
H96   H     H_    0.029657 0.842655 0.344996 0.113782
H97   H     H_    0.065652 0.838645 0.178454 0.116721
H98   H     H_    0.096422 0.828285 0.371749 0.172368
O71   O     O_3   0.435793 0.679627 0.633085 -0.606541
C127  C     C_3   0.467903 0.661341 0.530695 -0.192432
H99   H     H_    0.449325 0.662479 0.408793 0.125179
H100  H     H_    0.475334 0.624177 0.563140 0.168284
H101  H     H_    0.505508 0.679650 0.541358 0.140956
O72   O     O_3   0.548891 0.276123 0.282894 -0.579434
C128  C     C_3   0.559588 0.324333 0.291257 -0.195486
H102  H     H_    0.529127 0.343518 0.341706 0.115331
H103  H     H_    0.564836 0.339200 0.174644 0.118200
H104  H     H_    0.595970 0.329433 0.367820 0.172556
H105  H     H_    0.982327 0.221962 0.266954 0.235062
H106  H     H_    0.978829 0.774536 0.731395 0.222369
H107  H     H_    0.515692 0.715966 0.299011 0.236119
H108  H     H_    0.480420 0.275416 0.731066 0.222855
H109  H     H_    0.184672 0.635457 0.201331 0.168758
H110  H     H_    0.184641 0.366560 0.700538 0.166760
H111  H     H_    0.684782 0.135623 0.202308 0.185233
H112  H     H_    0.682612 0.865300 0.702260 0.183346
H113  H     H_    0.270375 0.665900 0.175391 0.114379
H114  H     H_    0.278894 0.335131 0.577598 0.114960
H115  H     H_    0.772010 0.167137 0.165056 0.111884
H116  H     H_    0.775068 0.832983 0.567341 0.113411
H117  H     H_    0.833375 0.228102 0.252373 0.150363
H118  H     H_    0.839522 0.772187 0.633806 0.093174
H119  H     H_    0.332684 0.725963 0.261855 0.141013
H120  H     H_    0.342209 0.273509 0.645196 0.093772
H121  H     H_    0.819398 0.365327 0.988422 0.182462
H122  H     H_    0.824111 0.642417 0.473213 0.190391
H123  H     H_    0.323561 0.862792 0.983321 0.179156
H124  H     H_    0.325124 0.142945 0.471905 0.190508
H125  H     H_    0.177658 0.769654 0.910357 0.119359
H126  H     H_    0.160277 0.230813 0.507829 0.114686
H127  H     H_    0.673117 0.270771 0.923756 0.118888
H128  H     H_    0.656606 0.727937 0.531045 0.119503
H129  H     H_    0.164229 0.704364 0.745441 0.176743
H130  H     H_    0.157840 0.296924 0.260654 0.175463
H131  H     H_    0.663287 0.205457 0.748033 0.175727
H132  H     H_    0.652165 0.792182 0.269969 0.181473
O73   O     O_3   0.839232 0.287314 0.462987 -0.593674
C129  C     C_3   0.794435 0.301540 0.523037 -0.151139
H133  H     H_    0.785565 0.275728 0.613441 0.163136
H134  H     H_    0.760967 0.302647 0.431996 0.117945
H135  H     H_    0.799770 0.335983 0.579120 0.127952
O74   O     O_3   0.832126 0.710592 0.949573 -0.592646
C130  C     C_3   0.859863 0.753092 0.952246 -0.129558
H136  H     H_    0.894984 0.752709 0.891584 0.094867
H137  H     H_    0.871231 0.762405 0.074787 0.170344
H138  H     H_    0.834314 0.781519 0.902814 0.125940
O75   O     O_3   0.337452 0.788236 0.461867 -0.645041
C131  C     C_3   0.292569 0.805907 0.512599 -0.184992
H139  H     H_    0.261080 0.809852 0.415928 0.127608
H140  H     H_    0.300119 0.839619 0.571632 0.143476
H141  H     H_    0.279253 0.780792 0.598627 0.167415
O76   O     O_3   0.331700 0.210359 0.948979 -0.593601
C132  C     C_3   0.359617 0.252760 0.958409 -0.130619
H142  H     H_    0.395111 0.253095 0.899436 0.096715
H143  H     H_    0.370225 0.260740 0.082439 0.171831
H144  H     H_    0.334368 0.281680 0.911279 0.124157
O77   O     O_3   0.063409 0.584080 0.840344 -0.736591
C133  C     C_3   0.078654 0.548908 0.751641 -0.025767
H145  H     H_    0.095309 0.520973 0.829160 0.179249
H146  H     H_    0.104933 0.559672 0.665338 0.116156
H147  H     H_    0.042402 0.537547 0.689170 0.228268
O78   O     O_3   0.050544 0.412238 0.353549 -0.618528
C134  C     C_3   0.065432 0.448942 0.259751 0.165173
H148  H     H_    0.090197 0.439151 0.170347 0.088743
H149  H     H_    0.086342 0.475972 0.329145 0.132148
H150  H     H_    0.029760 0.462638 0.199211 0.223257
O79   O     O_3   0.563738 0.083989 0.840612 -0.736916
C135  C     C_3   0.579521 0.048843 0.752870 -0.025126
H151  H     H_    0.597153 0.021306 0.830831 0.176605
H152  H     H_    0.605207 0.059893 0.665309 0.110826
H153  H     H_    0.543276 0.037011 0.691826 0.228679
O80   O     O_3   0.549308 0.912103 0.353944 -0.612632
C136  C     C_3   0.565244 0.948171 0.259344 0.173043
H154  H     H_    0.590688 0.937778 0.172812 0.061426
H155  H     H_    0.585492 0.975498 0.327798 0.118233
H156  H     H_    0.530036 0.962000 0.196145 0.225550
H157  H     H_    0.966400 0.220835 0.818455 0.116093
H158  H     H_    0.970744 0.776265 0.283129 0.106849
H159  H     H_    0.387844 0.733935 0.645406 0.163846
H160  H     H_    0.470464 0.276725 0.282617 0.106996
O81   O     O_3   0.948487 0.413649 0.341444 -0.602773
C137  C     C_3   0.931437 0.449168 0.430441 0.162061
H161  H     H_    0.905730 0.437790 0.516966 0.077258
H162  H     H_    0.910929 0.476438 0.357830 0.099611
H163  H     H_    0.966313 0.463234 0.494254 0.226257
O82   O     O_3   0.917908 0.570132 0.878195 -0.605631
C138  C     C_3   0.968449 0.580281 0.859363 0.214426
H164  H     H_    0.982051 0.616451 0.884382 0.058149
H165  H     H_    0.975715 0.581590 0.741205 0.125737
H166  H     H_    0.990514 0.553571 0.926079 0.221962
O83   O     O_3   0.449364 0.913047 0.342503 -0.603223
C139  C     C_3   0.430917 0.948407 0.429465 0.162076
H167  H     H_    0.404794 0.936735 0.513966 0.084549
H168  H     H_    0.410347 0.975451 0.356101 0.094271
H169  H     H_    0.465224 0.963053 0.494668 0.225817
O84   O     O_3   0.418052 0.070330 0.877852 -0.606730
C140  C     C_3   0.468676 0.080303 0.859442 0.212434
H170  H     H_    0.482353 0.116474 0.884275 0.058179
H171  H     H_    0.476125 0.081312 0.741499 0.127341
H172  H     H_    0.490592 0.053619 0.926666 0.221986
O85   O     O_3   0.961292 0.288080 0.005850 -0.619874
C141  C     C_3   0.915278 0.269999 0.051631 -0.271363
H173  H     H_    0.911924 0.276540 0.175358 0.120506
H174  H     H_    0.912167 0.231983 0.030704 0.141782
H175  H     H_    0.882935 0.286640 0.977841 0.220665
O86   O     O_3   0.966332 0.708473 0.479752 -0.619932
C142  C     C_3   0.918525 0.723842 0.515111 -0.297053
H176  H     H_    0.914679 0.761993 0.492767 0.137067
H177  H     H_    0.912801 0.715209 0.636995 0.106727
H178  H     H_    0.888136 0.706924 0.435964 0.232663
O87   O     O_3   0.467956 0.759367 0.033593 -0.608845
C143  C     C_3   0.427814 0.745948 0.119583 -0.272281
H179  H     H_    0.423818 0.769568 0.216559 0.110129
H180  H     H_    0.433078 0.709467 0.163493 0.146278
H181  H     H_    0.391525 0.747135 0.040454 0.195631
O88   O     O_3   0.466483 0.209254 0.479601 -0.619546
C144  C     C_3   0.418987 0.225135 0.515825 -0.298868
H182  H     H_    0.415511 0.263304 0.493284 0.137587
H183  H     H_    0.413483 0.216714 0.638031 0.107756
H184  H     H_    0.388265 0.208428 0.437294 0.231141
H185  H     H_    0.998762 0.303104 0.223171 -0.002118
H186  H     H_    0.999758 0.694003 0.704487 -0.049433
H187  H     H_    0.501867 0.798433 0.219343 -0.032829
H188  H     H_    0.500127 0.194666 0.703815 -0.049770
H189  H     H_    0.048432 0.222660 0.232692 0.242649
H190  H     H_    0.046384 0.775963 0.717131 0.242253
H191  H     H_    0.576384 0.742176 0.276565 0.228262
H192  H     H_    0.547853 0.276249 0.714534 0.241458
H193  H     H_    0.161730 0.487582 0.977464 0.131005
H194  H     H_    0.160020 0.520589 0.484897 0.130295
H195  H     H_    0.661085 0.976990 0.994041 0.127941
H196  H     H_    0.649242 0.011918 0.470523 0.128582
H197  H     H_    0.194295 0.542257 0.022198 0.008062
H198  H     H_    0.185422 0.462668 0.487505 0.087452
H199  H     H_    0.683943 0.036197 0.988915 -0.017063
H200  H     H_    0.692893 0.963993 0.499562 0.095595

loop_
_geom_bond_atom_site_label_1
_geom_bond_atom_site_label_2
_geom_bond_distance
_ccdc_geom_bond_type
O70   C126  1.409938 S    
O87   C143  1.408815 S    
C61   C65   1.406337 A    
Ba2   O46   2.836675 S    
C23   C27   1.536334 S    
P16   C55   1.889496 S    
C124  H87   1.108765 S    
C59   C79   1.414872 A    
O67   C123  1.408924 S    
P6    O26   1.593376 D    
C84   H132  1.082846 S    
P6    C89   1.921287 S    
C18   O54   1.422236 S    
C10   H106  1.110722 S    
C63   C67   1.405631 A    
C121  H77   1.092792 S    
C21   O57   1.421872 S    
C138  H165  1.064995 S    
C82   C86   1.404440 A    
O12   Ba4   2.811192 S    
C112  H40   1.107952 S    
C115  H51   1.111579 S    
C82   C98   1.413676 A    
P12   O32   1.819648 S    
C64   H116  1.083058 S    
C102  O78   1.358745 S    
C74   C78   1.408200 A    
C2    H90   1.116684 S    
O37   C14   1.399712 S    
O64   C120  1.410232 S    
P2    O18   1.766223 S    
C122  H81   1.108784 S    
C81   H129  1.082097 S    
O31   Ba3   2.810725 S    
P4    O8    1.579686 S    
O13   P14   1.540511 D    
C42   H122  1.076184 S    
C5    H185  1.115458 S    
C64   C68   1.405534 A    
C132  H144  1.107485 S    
C140  H171  1.064526 S    
C14   H194  1.099233 S    
C47   C79   1.520927 S    
C108  H24   1.108210 S    
C113  H46   1.110120 S    
C27   O63   1.411968 S    
O76   C132  1.413350 S    
C142  H178  1.106706 S    
C11   H107  1.105573 S    
C93   C97   1.437438 A    
C48   C80   1.520794 S    
C106  H16   1.111243 S    
C8    H188  1.115229 S    
C118  H64   1.112909 S    
C21   H41   1.110228 S    
C22   C26   1.537283 S    
C70   H126  1.081782 S    
C95   C99   1.437840 A    
C127  H99   1.111795 S    
C113  H47   1.108121 S    
C15   H199  1.111223 S    
C110  H32   1.112000 S    
C17   H25   1.110813 S    
C25   H57   1.107879 S    
O24   C32   1.400883 S    
C31   O67   1.416362 S    
P4    Ba4   3.476921 S    
C12   H4    1.107069 S    
C144  H184  1.106817 S    
C2    C30   1.548360 S    
C125  H93   1.112088 S    
C25   O61   1.411982 S    
C5    O85   1.417195 S    
O68   C124  1.407858 S    
C24   H44   1.110526 S    
C139  H168  1.096836 S    
P6    O38   1.756251 S    
P3    Ba3   3.457006 S    
C136  H154  1.110854 S    
C60   C80   1.414130 A    
C31   H11   1.116412 S    
P8    O28   1.593376 D    
P9    O29   1.790639 S    
O79   C135  1.373675 S    
P11   O31   1.785293 S    
C118  H65   1.112976 S    
C6    O86   1.416269 S    
O29   Ba1   2.810725 S    
C96   H112  1.082334 S    
P10   C85   1.900845 S    
P13   C54   1.898645 S    
C135  H152  1.113703 S    
O41   C5    1.406365 S    
P15   C56   1.898191 S    
C47   C51   1.430469 A    
O7    Ba4   2.872796 S    
O43   C7    1.408420 S    
C115  H53   1.108658 S    
C33   C53   1.396383 A    
O44   C8    1.404275 S    
C123  H84   1.112324 S    
C106  H18   1.109128 S    
C35   C55   1.407347 A    
C3    H91   1.112435 S    
O22   C30   1.400875 S    
C4    H92   1.116709 S    
C10   H2    1.107162 S    
O16   P15   1.536217 D    
C27   H59   1.109093 S    
C28   O64   1.413203 S    
C22   O58   1.419194 S    
P3    O7    1.584890 S    
C69   C75   1.411878 A    
O51   C107  1.412330 S    
C5    C9    1.544503 S    
C60   C62   1.413516 A    
C128  H102  1.113116 S    
C94   H110  1.082089 S    
C101  O77   1.324057 S    
C130  H136  1.116290 S    
C13   C17   1.532261 S    
C45   C77   1.520472 S    
O78   C134  1.396781 S    
C3    H159  1.109722 S    
C133  H147  1.090701 S    
C89   C93   1.418315 A    
O3    Ba3   2.847977 S    
O50   C106  1.413565 S    
P12   O44   1.748669 S    
P11   C88   1.878817 S    
C6    H186  1.115296 S    
O27   Ba3   2.871260 S    
P12   C87   1.901637 S    
C7    O87   1.415833 S    
C36   O84   1.349318 S    
C91   C103  1.384064 A    
P5    O46   1.585181 S    
C120  H72   1.109339 S    
P7    O48   1.585181 S    
C49   C53   1.412582 A    
C4    H160  1.110178 S    
C116  H54   1.105795 S    
C127  H101  1.110533 S    
C8    C12   1.543874 S    
O84   C140  1.386055 S    
C19   H27   1.115728 S    
C71   H127  1.082724 S    
C19   O51   1.418173 S    
C131  H139  1.111802 S    
C74   H6    1.082921 S    
O61   C117  1.410220 S    
C46   C50   1.429433 A    
C133  H145  1.094552 S    
O30   Ba2   2.869743 S    
C67   C71   1.414234 A    
P14   C53   1.871105 S    
O80   C136  1.397369 S    
C58   C78   1.413306 A    
C136  H156  1.092065 S    
C139  H169  1.092849 S    
C72   H128  1.083128 S    
P7    O27   1.572335 D    
O57   C113  1.416032 S    
C38   C42   1.429874 A    
C26   H58   1.108222 S    
O40   C15   1.406024 S    
P10   O42   1.748733 S    
C108  H23   1.110222 S    
C107  H21   1.111698 S    
C9    H105  1.110614 S    
C111  H35   1.110692 S    
C86   C102  1.399592 A    
C120  H70   1.113177 S    
C141  H174  1.110019 S    
C62   H114  1.082788 S    
C6    C10   1.543712 S    
C83   C87   1.407500 A    
C84   C88   1.403918 A    
C110  H34   1.108517 S    
C134  H150  1.091611 S    
C84   C100  1.414162 A    
C13   H193  1.100363 S    
C44   C48   1.436949 A    
Ba4   O47   3.040626 S    
C28   H76   1.112526 S    
C75   C79   1.409143 A    
C57   C77   1.414716 A    
C95   H111  1.081572 S    
C24   O60   1.418540 S    
C141  H175  1.107391 S    
C51   C55   1.414694 A    
Ba3   Ba4   4.716832 S    
C128  H104  1.109285 S    
C25   H73   1.108392 S    
O53   C109  1.413504 S    
C114  H49   1.109029 S    
C36   C56   1.398819 A    
C27   H75   1.109055 S    
P9    O33   1.543028 D    
C41   C45   1.428361 A    
O24   P15   1.753579 S    
C63   H115  1.081376 S    
C20   H28   1.117108 S    
C94   C98   1.433474 A    
C43   C47   1.427270 A    
C126  H97   1.112185 S    
C33   O81   1.361238 S    
O86   C142  1.406311 S    
C137  H162  1.097405 S    
C40   C44   1.429606 A    
C29   H9    1.114882 S    
C143  H179  1.107932 S    
O82   C138  1.385742 S    
C33   C37   1.395089 A    
C104  O80   1.359112 S    
C116  H56   1.110531 S    
C35   C39   1.401063 A    
C76   C80   1.407217 A    
O63   C119  1.410204 S    
O62   C118  1.410247 S    
C109  H31   1.107576 S    
C109  H30   1.109564 S    
C131  H141  1.109299 S    
C29   O65   1.414130 S    
C44   H124  1.076268 S    
C30   O66   1.412478 S    
C117  H61   1.112807 S    
C105  H13   1.109230 S    
O81   C137  1.401039 S    
O15   P16   1.538652 D    
Ba1   O46   3.026669 S    
P8    O47   1.590507 S    
C15   C19   1.537022 S    
Ba3   O48   3.026669 S    
C120  H71   1.113180 S    
C115  H52   1.110055 S    
C130  H138  1.107292 S    
C26   O62   1.412932 S    
C9    H189  1.109606 S    
P10   O30   1.818698 S    
O22   P13   1.753767 S    
C121  H79   1.111493 S    
C129  H133  1.109335 S    
C85   C101  1.382763 A    
P6    Ba2   3.458567 S    
C111  H37   1.107954 S    
C132  H143  1.108485 S    
O42   C6    1.404175 S    
C103  O79   1.323930 S    
C140  H170  1.112085 S    
P11   O35   1.543341 D    
C114  H48   1.104454 S    
O11   P16   1.790614 S    
C12   H108  1.110779 S    
O56   C112  1.410333 S    
O73   C129  1.410931 S    
C134  H148  1.112906 S    
C142  H177  1.108076 S    
P1    O1    1.593718 D    
C141  H173  1.108414 S    
P3    O3    1.593718 D    
P4    O20   1.766079 S    
C51   O75   1.381388 S    
P1    Ba1   3.457006 S    
O59   C115  1.415781 S    
O9    Ba1   2.870137 S    
C127  H100  1.109084 S    
C108  H22   1.110406 S    
C46   C78   1.520281 S    
P1    C37   1.890921 S    
C90   C94   1.427264 A    
P3    C39   1.903786 S    
C144  H183  1.108181 S    
O26   Ba2   2.850384 S    
C82   H130  1.083144 S    
C125  H94   1.113156 S    
O75   C131  1.410375 S    
C75   H7    1.082195 S    
O14   P13   1.536436 D    
C34   O82   1.349043 S    
C143  H181  1.108468 S    
C41   H121  1.081598 S    
O5    Ba2   2.872796 S    
C52   C56   1.416643 A    
C43   H123  1.081571 S    
O71   C127  1.409238 S    
C76   H8    1.082859 S    
Ba2   O45   3.040626 S    
C111  H36   1.107086 S    
Ba1   Ba2   4.716832 S    
O17   C21   1.420219 S    
O23   P16   1.761093 S    
C125  H95   1.109339 S    
C57   H117  1.081894 S    
C22   H42   1.110778 S    
C16   C20   1.535503 S    
C138  H166  1.080297 S    
P1    O5    1.584890 S    
C72   C74   1.416029 A    
C66   C70   1.414479 A    
O55   C111  1.412348 S    
C21   C25   1.537193 S    
O11   Ba3   2.870137 S    
C36   C40   1.396851 A    
O8    Ba3   2.837250 S    
C30   H10   1.115556 S    
C18   H26   1.118181 S    
C2    H158  1.110384 S    
C20   O56   1.417866 S    
O38   C13   1.404809 S    
C89   C101  1.383952 A    
C122  H80   1.110474 S    
C92   C96   1.426497 A    
O25   Ba1   2.871260 S    
C122  H82   1.092452 S    
C1    C29   1.547584 S    
O20   C24   1.421598 S    
C90   C102  1.399810 A    
C28   H60   1.107943 S    
C107  H20   1.113163 S    
C32   H12   1.115520 S    
C140  H172  1.079935 S    
C16   H196  1.093441 S    
C50   O74   1.386407 S    
P2    Ba2   3.476921 S    
C113  H45   1.111728 S    
O10   Ba2   2.811192 S    
C105  H14   1.113189 S    
O60   C116  1.408688 S    
C3    O71   1.416613 S    
C65   C69   1.414380 A    
O58   C114  1.409044 S    
P2    C38   1.944301 S    
P7    Ba3   3.479061 S    
O4    Ba4   2.868558 S    
C121  H78   1.108703 S    
C68   C72   1.413766 A    
O28   Ba4   2.850384 S    
C14   H198  1.109306 S    
C32   O68   1.412308 S    
C34   C54   1.398340 A    
O6    Ba1   2.837250 S    
P7    C92   1.913093 S    
C26   H74   1.112073 S    
P5    O25   1.572335 D    
C67   C99   1.513728 S    
C105  H15   1.112015 S    
C110  H33   1.111982 S    
P5    C90   1.909843 S    
O21   C29   1.402916 S    
O49   C105  1.411511 S    
C9    H1    1.106071 S    
O23   C31   1.415866 S    
C131  H140  1.110023 S    
C92   C104  1.402758 A    
C11   H3    1.110764 S    
O18   C22   1.421363 S    
C81   C85   1.406916 A    
C133  H146  1.114245 S    
C7    H187  1.118555 S    
C96   C100  1.433247 A    
C139  H167  1.106891 S    
O69   C125  1.410015 S    
C14   C18   1.538125 S    
C81   C97   1.427756 A    
C136  H155  1.090836 S    
C93   H109  1.080674 S    
C69   H125  1.082543 S    
C73   C77   1.408915 A    
C1    H89   1.116657 S    
C119  H67   1.112852 S    
C118  H66   1.109191 S    
C15   H195  1.102452 S    
C126  H96   1.113090 S    
P1    O17   1.759769 S    
O2    Ba2   2.868558 S    
C66   C98   1.513827 S    
C17   O49   1.420677 S    
C124  H86   1.110498 S    
P3    O19   1.758887 S    
C138  H164  1.111801 S    
C18   O50   1.422005 S    
P6    O45   1.590507 S    
P4    O4    1.572643 D    
C135  H151  1.097380 S    
C106  H17   1.109070 S    
O85   C141  1.408331 S    
P8    O40   1.753883 S    
C123  H83   1.112579 S    
C13   H197  1.110648 S    
C10   H190  1.109405 S    
O66   C122  1.407938 S    
C134  H149  1.096204 S    
C20   O52   1.422679 S    
C57   C63   1.408987 A    
C107  H19   1.108021 S    
O1    Ba1   2.847977 S    
Ba4   O48   2.836675 S    
O9    P14   1.799594 S    
C45   C49   1.430513 A    
C112  H39   1.112280 S    
C19   O55   1.422981 S    
C24   C28   1.537592 S    
C11   H191  1.107918 S    
O52   C108  1.415285 S    
C128  H103  1.112185 S    
O83   C139  1.401898 S    
C65   C97   1.514304 S    
C17   O53   1.423837 S    
C4    C32   1.548582 S    
P4    C40   1.944157 S    
P11   O43   1.749101 S    
C68   C100  1.513106 S    
O19   C23   1.420344 S    
C88   C104  1.403117 A    
C137  H163  1.092900 S    
P2    O2    1.572643 D    
C143  H180  1.109201 S    
P5    O37   1.749985 S    
C7    C11   1.531951 S    
C116  H55   1.108876 S    
C58   H118  1.079911 S    
P7    O39   1.752709 S    
C70   C76   1.415265 A    
C49   O73   1.383490 S    
C12   H192  1.109489 S    
C142  H176  1.110031 S    
O54   C110  1.411235 S    
O65   C121  1.408924 S    
P12   O36   1.543060 D    
O32   Ba4   2.869743 S    
C3    C31   1.539571 S    
P9    C86   1.875417 S    
C50   C54   1.416432 A    
C91   C95   1.419108 A    
P8    C91   1.921436 S    
Ba1   O45   2.872108 S    
C23   O59   1.421911 S    
C119  H69   1.109224 S    
Ba3   O47   2.872108 S    
C112  H38   1.112740 S    
C130  H137  1.108558 S    
C1    O69   1.414339 S    
C2    O70   1.414179 S    
C42   C46   1.436452 A    
O39   C16   1.395733 S    
C109  H29   1.110511 S    
C129  H134  1.111536 S    
C124  H88   1.091722 S    
C117  H63   1.109222 S    
P2    O6    1.579686 S    
C135  H153  1.089817 S    
C117  H62   1.113099 S    
C1    H157  1.109777 S    
O10   P13   1.825367 S    
C132  H142  1.116341 S    
C34   C38   1.397133 A    
C71   C73   1.412686 A    
O88   C144  1.406174 S    
C16   H200  1.109217 S    
C83   H131  1.082320 S    
C123  H85   1.097125 S    
C58   C64   1.413580 A    
C119  H68   1.113093 S    
C59   C61   1.408413 A    
C62   C66   1.404826 A    
C39   C43   1.416642 A    
O12   P15   1.824673 S    
P9    O41   1.749634 S    
P10   O34   1.543151 D    
C37   C41   1.418445 A    
C8    O88   1.415937 S    
C129  H135  1.111780 S    
C60   H120  1.079689 S    
C35   O83   1.361019 S    
O72   C128  1.409953 S    
O77   C133  1.374078 S    
P8    Ba4   3.458567 S    
C23   H43   1.110164 S    
C114  H50   1.110769 S    
C59   H119  1.081467 S    
O74   C130  1.413603 S    
C52   O76   1.386925 S    
C61   H113  1.082086 S    
C83   C99   1.427489 A    
O21   P14   1.754670 S    
C4    O72   1.414229 S    
C144  H182  1.110037 S    
C126  H98   1.109289 S    
C73   H5    1.082275 S    
C137  H161  1.109907 S    
C87   C103  1.382524 A    
P5    Ba1   3.479061 S    
C48   C52   1.429457 A    
