data_mof_unit_32400.cif
_audit_creation_date              2012-12-11T14:55:55-0500
_audit_creation_method            fapswitch 2.2
_symmetry_space_group_name_H-M    P1
_symmetry_Int_Tables_number       1
_space_group_crystal_system       triclinic
_cell_length_a                    8.346546
_cell_length_b                    15.106183
_cell_length_c                    19.112565
_cell_angle_alpha                 100.35517
_cell_angle_beta                  92.387695
_cell_angle_gamma                 98.978458
_cell_volume                      2335.46705562

loop_
_atom_site_label
_atom_site_type_symbol
_atom_type_description
_atom_site_fract_x
_atom_site_fract_y
_atom_site_fract_z
_atom_type_partial_charge
Ba1   Ba    Ba6+2 0.854510 0.539840 0.465770 1.611622
Ba2   Ba    Ba6+2 0.335330 0.460240 0.534240 1.617821
C1    C     C_3   0.644220 0.873175 0.297278 -0.389665
C2    C     C_R   0.022950 0.532729 0.726328 0.062578
C3    C     C_R   0.855520 0.418483 0.807479 -0.162534
C4    C     C_3   0.182975 0.758680 0.281721 0.332615
C5    C     C_R   0.786955 0.426731 0.741566 0.000177
C6    C     C_R   0.344125 0.570790 0.186717 -0.168661
C7    C     C_R   0.408792 0.569788 0.254734 0.025733
C8    C     C_R   0.134625 0.447052 0.199475 -0.165858
C9    C     C_R   0.168525 0.468518 0.274682 0.079732
C10   C     C_R   0.985573 0.484830 0.843509 0.004425
C11   C     C_R   0.879252 0.475621 0.698303 -0.243348
C12   C     C_3   0.642582 0.783112 0.322415 0.396616
C13   C     C_R   0.210370 0.504590 0.153828 0.007419
C14   C     C_R   0.308179 0.531902 0.302077 -0.171812
C15   C     C_R   0.761433 0.434175 0.956555 -0.082663
C16   C     C_3   0.079678 0.721512 0.211445 -0.163610
C17   C     C_R   0.658269 0.397153 0.002863 -0.074041
C18   C     C_R   0.708334 0.410823 0.074120 -0.072124
C19   C     C_R   0.864118 0.456043 0.097006 -0.084737
C20   C     C_R   0.984718 0.471276 0.048811 0.020221
C21   C     C_R   0.930331 0.463566 0.974909 0.033649
C22   C     C_R   0.152867 0.497074 0.073845 -0.015235
C23   C     C_3   0.423385 0.273191 0.303411 0.327835
C24   C     C_R   0.264465 0.517143 0.021241 0.034742
C25   C     C_R   0.209665 0.511238 0.947798 0.015473
C26   C     C_R   0.041671 0.486948 0.922902 -0.018712
C27   C     C_R   0.434353 0.541246 0.038730 -0.082696
C28   C     C_3   0.252585 0.746786 0.631070 0.313736
C29   C     C_R   0.539145 0.577659 0.992800 -0.080553
C30   C     C_R   0.487771 0.567222 0.921973 -0.067806
C31   C     C_R   0.329598 0.525715 0.899370 -0.078369
C32   C     C_R   0.758282 0.238202 0.528944 -0.273471
C33   C     C_R   0.847441 0.181044 0.557608 -0.001837
C34   C     C_3   0.372994 0.206141 0.231050 0.377859
C35   C     C_R   0.781686 0.088086 0.552169 -0.139031
C36   C     C_R   0.629090 0.050139 0.513559 0.011424
C37   C     C_R   0.545952 0.110553 0.483329 -0.122814
C38   C     C_R   0.609703 0.202861 0.491118 0.053279
C39   C     C_R   0.401599 0.913918 0.466971 -0.140697
C40   C     C_3   0.279711 0.850292 0.653181 -0.393432
C41   C     C_R   0.334931 0.821649 0.459527 0.001840
C42   C     C_R   0.578410 0.793336 0.518161 0.054127
C43   C     C_R   0.648149 0.885446 0.525132 -0.130410
C44   C     C_R   0.559532 0.949055 0.501644 0.011217
C45   C     C_3   0.060516 0.266820 0.727717 0.357845
C46   C     C_R   0.420725 0.764197 0.488748 -0.270588
C47   C     C_3   0.964202 0.246652 0.368920 0.278509
C48   C     C_3   0.003277 0.150043 0.346741 -0.210612
C49   C     C_3   0.727251 0.664547 0.680139 0.332638
C50   C     C_3   0.724295 0.686319 0.761353 -0.226653
C51   C     C_3   0.921634 0.081554 0.388535 -0.512020
C52   C     C_3   0.863116 0.761629 0.796005 -0.400888
C53   C     C_3   0.536005 0.357562 0.290118 -0.371708
C54   C     C_3   0.262683 0.052300 0.184301 0.299820
C55   C     C_3   0.083560 0.030058 0.155414 -0.195736
C56   C     C_3   0.095153 0.241202 0.799669 -0.371751
C57   C     C_3   0.063592 0.979026 0.078138 -0.502808
C58   C     C_3   0.274056 0.247427 0.178739 -0.481522
C59   C     C_3   0.360106 0.559373 0.380013 -0.224564
C60   C     C_3   0.018839 0.796482 0.179838 -0.365880
C61   C     C_3   0.521198 0.218784 0.684391 0.373375
C62   C     C_3   0.473495 0.126948 0.706512 -0.367306
C63   C     C_R   0.060676 0.547542 0.801198 -0.154764
H1    H     H_    0.721297 0.795053 0.372632 0.080552
H2    H     H_    0.629615 0.605246 0.660711 0.068219
H3    H     H_    0.769998 0.903402 0.289254 0.115682
H4    H     H_    0.734138 0.623799 0.783039 0.065317
H5    H     H_    0.606165 0.707356 0.775597 0.122028
H6    H     H_    0.515258 0.758882 0.333504 -0.123797
H7    H     H_    0.593716 0.921706 0.337720 0.080613
H8    H     H_    0.313341 0.293505 0.328000 0.025425
H9    H     H_    0.487740 0.191811 0.206720 0.027160
H10   H     H_    0.569399 0.862069 0.246081 0.104334
H11   H     H_    0.153569 0.687454 0.171660 0.052440
H12   H     H_    0.361248 0.872029 0.702765 0.120595
H13   H     H_    0.123737 0.337683 0.729035 0.067948
H14   H     H_    0.927133 0.262808 0.718981 -0.057301
H15   H     H_    0.227649 0.243742 0.810257 0.155776
H16   H     H_    0.052529 0.289532 0.842872 0.070492
H17   H     H_    0.031046 0.171154 0.800165 0.107283
H18   H     H_    0.654596 0.229192 0.679261 -0.081477
H19   H     H_    0.457224 0.216615 0.631791 0.084005
H20   H     H_    0.507066 0.071978 0.665737 0.072241
H21   H     H_    0.340454 0.112714 0.711619 0.153523
H22   H     H_    0.231820 0.700708 0.297726 -0.033324
H23   H     H_    0.336544 0.882919 0.610832 0.072093
H24   H     H_    0.538235 0.127008 0.758481 0.103863
H25   H     H_    0.153499 0.604635 0.824688 0.062640
H26   H     H_    0.801986 0.361370 0.830291 0.067760
H27   H     H_    0.401894 0.623701 0.160557 0.064369
H28   H     H_    0.043712 0.388244 0.177867 0.062953
H29   H     H_    0.833901 0.473585 0.644072 0.062747
H30   H     H_    0.700676 0.444373 0.908992 0.081271
H31   H     H_    0.532396 0.369477 0.985437 0.077822
H32   H     H_    0.622253 0.393639 0.112424 0.073546
H33   H     H_    0.287098 0.809879 0.272965 -0.002033
H34   H     H_    0.161582 0.873879 0.662807 0.126224
H35   H     H_    0.886499 0.480106 0.152892 0.128083
H36   H     H_    0.492934 0.528111 0.085841 0.081675
H37   H     H_    0.665998 0.602605 0.009996 0.078211
H38   H     H_    0.574085 0.584087 0.883778 0.085366
H39   H     H_    0.303361 0.503418 0.843527 0.131637
H40   H     H_    0.324810 0.955899 0.446846 0.075601
H41   H     H_    0.855070 0.046928 0.575650 0.071794
H42   H     H_    0.769229 0.905656 0.550490 0.083693
H43   H     H_    0.434601 0.087844 0.450256 0.081032
H44   H     H_    0.360648 0.697216 0.492640 0.028523
H45   H     H_    0.832871 0.243734 0.376859 0.026512
H46   H     H_    0.975527 0.670283 0.219926 0.165722
H47   H     H_    0.809903 0.309134 0.531577 0.068004
H48   H     H_    0.371644 0.724629 0.622188 0.016366
H49   H     H_    0.170269 0.726817 0.581631 0.056598
H50   H     H_    0.949946 0.013086 0.366652 0.158254
H51   H     H_    0.971712 0.099428 0.444279 0.164070
H52   H     H_    0.787940 0.078769 0.384863 0.138522
H53   H     H_    0.982018 0.739742 0.785562 0.142656
H54   H     H_    0.857480 0.825288 0.775280 0.157155
H55   H     H_    0.853307 0.776036 0.854577 0.110594
H56   H     H_    0.036460 0.280514 0.419359 0.068271
H57   H     H_    0.471913 0.397306 0.258719 0.021315
H58   H     H_    0.581334 0.403847 0.340677 0.166700
H59   H     H_    0.639250 0.336575 0.260219 0.128522
H60   H     H_    0.297238 0.991145 0.201679 0.053874
H61   H     H_    0.343269 0.066185 0.141026 0.011152
H62   H     H_    0.012249 0.988715 0.189520 0.102279
H63   H     H_    0.031110 0.093595 0.157815 0.131216
H64   H     H_    0.117985 0.024557 0.042686 0.135953
H65   H     H_    0.932278 0.957072 0.061389 0.142240
H66   H     H_    0.123831 0.917884 0.071882 0.131790
H67   H     H_    0.963908 0.124136 0.289461 0.150386
H68   H     H_    0.244439 0.199866 0.126885 0.114200
H69   H     H_    0.158894 0.261792 0.201264 0.147843
H70   H     H_    0.343489 0.310016 0.165336 0.084113
H71   H     H_    0.271710 0.570335 0.418070 0.161892
H72   H     H_    0.433191 0.511167 0.397755 0.128707
H73   H     H_    0.418384 0.630939 0.388761 0.037564
H74   H     H_    0.943351 0.833562 0.217108 0.173800
H75   H     H_    0.124690 0.844585 0.168741 0.096917
H76   H     H_    0.944584 0.766407 0.129140 0.116027
H77   H     H_    0.136585 0.152979 0.354061 0.174199
H78   H     H_    0.845651 0.646095 0.665220 -0.000266
O1    O     O_2   0.872980 0.435970 0.325550 -0.465440
O2    O     O_2   0.177681 0.183904 0.541259 -0.485731
O3    O     O_3   0.117856 0.205704 0.674315 -0.592654
O4    O     O_3   0.121550 0.444190 0.414290 -0.514301
O5    O     O_3   0.581680 0.612000 0.537440 -0.508564
O6    O     O_2   0.334450 0.276040 0.463130 -0.468634
O7    O     O_3   0.508197 0.227766 0.347561 -0.633493
O8    O     O_2   0.476063 0.465169 0.757542 -0.509006
O9    O     O_3   0.476646 0.288083 0.735709 -0.592516
O10   O     O_3   0.664480 0.604250 0.370890 -0.475558
O11   O     O_2   0.734702 0.547304 0.240711 -0.508884
O12   O     O_3   0.701850 0.740974 0.651637 -0.638546
O13   O     O_3   0.001520 0.291094 0.311865 -0.653479
O14   O     O_3   0.702130 0.721094 0.269836 -0.593145
O15   O     O_2   0.855250 0.723990 0.536920 -0.451962
O16   O     O_3   0.087370 0.653760 0.407230 -0.489881
O17   O     O_2   0.002006 0.815126 0.461045 -0.476237
O18   O     O_3   0.282260 0.124145 0.244663 -0.645189
O19   O     O_3   0.088504 0.800967 0.332803 -0.582839
O20   O     O_2   0.316730 0.564060 0.674500 -0.472161
O21   O     O_3   0.068160 0.555880 0.585710 -0.494077
O22   O     O_3   0.525240 0.395830 0.629120 -0.467978
O23   O     O_3   0.182263 0.709124 0.686193 -0.641490
O24   O     O_3   0.608030 0.388080 0.462570 -0.495777
O25   O     O_3   0.102340 0.346310 0.592780 -0.480441
P1    P     P_3+3 0.039940 0.410170 0.336360 0.954927
P2    P     P_3+3 0.679300 0.712470 0.558210 0.973124
P3    P     P_3+3 0.130572 0.773443 0.416130 0.962362
P4    P     P_3+3 0.149780 0.589910 0.663640 0.969292
P5    P     P_3+3 0.059864 0.228465 0.591265 0.944342
P6    P     P_3+3 0.627627 0.610439 0.281724 0.946874
P7    P     P_3+3 0.513209 0.273521 0.439730 0.938275
P8    P     P_3+3 0.568043 0.392994 0.717630 0.933628

loop_
_geom_bond_atom_site_label_1
_geom_bond_atom_site_label_2
_ccdc_geom_bond_type
C42   C46   A    
C57   H65   S    
O23   P4    S    
C52   H55   S    
C31   H39   S    
C32   H47   S    
C12   H6    S    
Ba1   P2    S    
C47   O13   S    
C1    H3    S    
C45   H14   S    
C63   H25   S    
C55   H63   S    
C43   C44   A    
C25   C31   A    
O22   P8    S    
C57   H66   S    
C24   C25   A    
C15   C21   A    
O16   P3    S    
C10   C26   S    
C32   C38   A    
C4    H33   S    
C19   C20   A    
Ba1   O15   S    
C33   C35   A    
C7    C14   A    
C22   C24   A    
C32   C33   A    
C8    C13   A    
C56   H17   S    
C36   C37   A    
C51   H52   S    
C59   H73   S    
C55   C57   S    
Ba1   O24   S    
Ba2   O5    S    
O3    P5    S    
O13   P1    S    
C54   C55   S    
Ba1   Ba2   S    
C2    C11   A    
C50   H4    S    
C18   H32   S    
C4    O19   S    
Ba1   O21   S    
C6    C7    A    
C58   H69   S    
O5    P2    S    
C39   C44   A    
C15   H30   S    
C54   H61   S    
C60   H74   S    
C1    H10   S    
C41   C46   A    
C51   H51   S    
C56   H15   S    
O14   P6    S    
Ba2   O6    S    
O7    P7    S    
C45   O3    S    
C52   H54   S    
C39   C41   A    
O25   P5    S    
C62   H24   S    
C62   H21   S    
C50   C52   S    
C37   H43   S    
C4    C16   S    
C53   H58   S    
C48   C51   S    
C36   C44   S    
O19   P3    S    
C12   O14   S    
C49   C50   S    
C33   P5    S    
C29   H37   S    
Ba1   O16   S    
C50   H5    S    
C16   H46   S    
C28   O23   S    
C3    C10   A    
C56   H16   S    
Ba2   O21   S    
C37   C38   A    
C3    C5    A    
C19   H35   S    
C41   P3    S    
O15   P2    D    
C8    H28   S    
Ba2   O4    S    
C54   H60   S    
O10   P6    S    
C4    H22   S    
C61   H18   S    
C23   O7    S    
O6    P7    D    
C35   C36   A    
C58   H68   S    
C9    C14   A    
C29   C30   A    
C58   H70   S    
C47   H56   S    
C5    P8    S    
C12   H1    S    
C30   H38   S    
C27   H36   S    
C7    P6    S    
C49   H2    S    
C21   C26   A    
C48   H67   S    
Ba1   O10   S    
O20   P4    D    
Ba2   O22   S    
C3    H26   S    
C1    C12   S    
C39   H40   S    
C40   H12   S    
C6    H27   S    
C13   C22   S    
O2    P5    D    
C9    P1    S    
C6    C13   A    
C52   H53   S    
C34   O18   S    
C20   C22   A    
Ba1   O4    S    
C40   H23   S    
C14   C59   S    
C60   H76   S    
Ba2   O25   S    
C62   H20   S    
C42   C43   A    
O24   P7    S    
C28   H49   S    
C53   H59   S    
C57   H64   S    
C16   H11   S    
O8    P8    D    
C2    P4    S    
C16   C60   S    
C23   C53   S    
C34   C58   S    
Ba2   O20   S    
C55   H62   S    
C38   P7    S    
C49   H78   S    
C10   C63   A    
C11   H29   S    
C61   H19   S    
C30   C31   A    
C17   C18   A    
C1    H7    S    
C35   H41   S    
C27   C29   A    
Ba1   O1    S    
C49   O12   S    
C45   C56   S    
O12   P2    S    
C59   H72   S    
C2    C63   A    
C54   O18   S    
Ba1   P1    S    
C15   C17   A    
O17   P3    D    
C46   H44   S    
C23   H8    S    
C42   P2    S    
C61   O9    S    
C53   H57   S    
O21   P4    S    
C8    C9    A    
C23   C34   S    
C43   H42   S    
C61   C62   S    
O9    P8    S    
C51   H50   S    
C5    C11   A    
O11   P6    D    
C18   C19   A    
C24   C27   A    
C47   C48   S    
C25   C26   A    
O1    P1    D    
C20   C21   A    
C28   C40   S    
Ba1   O5    S    
C45   H13   S    
C60   H75   S    
C40   H34   S    
O4    P1    S    
Ba2   O24   S    
C34   H9    S    
C17   H31   S    
C48   H77   S    
C59   H71   S    
Ba2   P4    S    
C47   H45   S    
C28   H48   S    
