data_mof_unit_54962.cif
_audit_creation_date              2012-12-10T18:03:58-0500
_audit_creation_method            fapswitch 2.2
_symmetry_space_group_name_H-M    P1
_symmetry_Int_Tables_number       1
_space_group_crystal_system       triclinic
_cell_length_a                    10.835243
_cell_length_b                    9.597416
_cell_length_c                    10.99615
_cell_angle_alpha                 90.001478
_cell_angle_beta                  92.242501
_cell_angle_gamma                 89.991503
_cell_volume                      1142.61757832

loop_
_atom_site_label
_atom_site_type_symbol
_atom_type_description
_atom_site_fract_x
_atom_site_fract_y
_atom_site_fract_z
_atom_type_partial_charge
C1    C     C_R   0.262659 0.499537 0.507338 0.780824
C2    C     C_R   0.737349 0.499516 0.492687 0.780979
C3    C     C_R   0.406801 0.072363 0.440374 0.088089
C4    C     C_R   0.593184 0.072336 0.559651 0.087793
C5    C     C_R   0.405939 0.924364 0.444874 0.112953
C6    C     C_R   0.594051 0.924336 0.555141 0.112950
C7    C     C_R   0.500550 0.499098 0.262867 0.791751
C8    C     C_R   0.499428 0.499101 0.737132 0.791727
C9    C     C_R   0.498964 0.614638 0.061531 -0.031649
C10   C     C_R   0.500972 0.614640 0.938475 -0.031561
C11   C     C_R   0.500866 0.493483 0.130117 -0.138711
C12   C     C_R   0.499067 0.493488 0.869880 -0.138679
C13   C     C_R   0.502259 0.365257 0.064374 -0.077416
C14   C     C_R   0.497621 0.365261 0.935613 -0.077431
C15   C     C_3   0.499295 0.769596 0.928377 -0.161053
C16   C     C_3   0.500668 0.769592 0.071644 -0.160912
C17   C     C_R   0.062215 0.370867 0.520892 -0.015992
C18   C     C_R   0.937860 0.370759 0.479727 -0.015955
C19   C     C_R   0.871763 0.497687 0.486612 -0.174954
C20   C     C_R   0.128259 0.497750 0.513455 -0.174811
C21   C     C_R   0.936174 0.623902 0.497391 -0.131969
C22   C     C_R   0.063799 0.623911 0.502173 -0.131924
Cu1   Cu    Cu3+1 0.500000 0.640660 0.500000 1.018998
Cu2   Cu    Cu3+1 0.500000 0.359340 0.500000 0.938024
H1    H     H_    0.888271 0.722965 0.498461 0.197297
H2    H     H_    0.111664 0.722963 0.500679 0.197238
H3    H     H_    0.331310 0.866305 0.401004 0.163800
H4    H     H_    0.668671 0.866252 0.599025 0.163912
N1    N     N_R   0.500000 0.852070 0.500000 -0.190795
N2    N     N_R   0.500000 0.147940 0.500000 -0.254046
O1    O     O_R   0.319640 0.618740 0.499990 -0.572151
O2    O     O_R   0.680360 0.618740 0.500010 -0.572160
O3    O     O_R   0.319620 0.381170 0.499990 -0.634792
O4    O     O_R   0.680380 0.381170 0.500010 -0.634816
O5    O     O_R   0.499990 0.618810 0.319660 -0.546336
O6    O     O_R   0.500010 0.618810 0.680340 -0.546267
O7    O     O_R   0.499960 0.381240 0.319650 -0.611294
O8    O     O_R   0.500040 0.381240 0.680350 -0.611408
C23   C     C_1   0.510914 0.231711 0.125480 0.271628
N3    N     N_1   0.518120 0.124960 0.173631 -0.247369
C24   C     C_1   0.488900 0.231726 0.874492 0.271614
N4    N     N_1   0.481641 0.124988 0.826323 -0.247322
C25   C     C_1   0.613268 0.822671 0.875248 0.309494
N5    N     N_1   0.703585 0.863843 0.835558 -0.256869
C26   C     C_1   0.386705 0.822725 0.124783 0.309540
N6    N     N_1   0.296398 0.863946 0.164482 -0.257198
C27   C     C_2   0.380801 0.816031 0.861836 0.432909
H5    H     H_    0.292092 0.796669 0.901084 0.076848
O9    O     O_2   0.382039 0.868760 0.760863 -0.516337
C28   C     C_2   0.619173 0.815960 0.138184 0.432831
H6    H     H_    0.707881 0.796453 0.098971 0.076747
O10   O     O_2   0.617938 0.868806 0.239114 -0.516452
C29   C     C_2   0.114413 0.249504 0.591386 0.485665
H7    H     H_    0.205201 0.254511 0.635840 0.075090
O11   O     O_2   0.052970 0.145687 0.610030 -0.442189
C30   C     C_2   0.885736 0.249036 0.409697 0.485847
H8    H     H_    0.795262 0.254174 0.364595 0.074812
O12   O     O_2   0.946887 0.144671 0.392255 -0.442102
C31   C     C_2   0.307416 0.140102 0.365581 0.397811
H9    H     H_    0.320894 0.239839 0.323345 0.125691
O13   O     O_2   0.208119 0.082250 0.346964 -0.507145
C32   C     C_2   0.692521 0.140044 0.634516 0.397912
H10   H     H_    0.679076 0.239859 0.676625 0.125726
O14   O     O_2   0.791743 0.082069 0.653346 -0.506436

loop_
_geom_bond_atom_site_label_1
_geom_bond_atom_site_label_2
_ccdc_geom_bond_type
C16   C26   S    
C3    N2    A    
C28   O10   D    
C25   N5    T    
C32   H10   S    
C15   C27   S    
C11   C13   A    
C24   N4    T    
Cu2   O8    S    
Cu2   O3    S    
C18   C30   S    
C8    C12   S    
C4    N2    A    
Cu1   O2    S    
C2    O4    A    
C32   O14   D    
Cu2   O7    S    
C7    O7    A    
C17   C29   S    
C1    O3    A    
C31   H9    S    
C27   O9    D    
C5    H3    S    
C29   H7    S    
C7    C11   S    
C9    C11   A    
C8    O8    A    
C14   C24   S    
Cu1   N1    S    
C4    C6    A    
C19   C21   A    
C9    C16   S    
C30   O12   D    
C17   C18   A    
C5    N1    A    
C10   C15   S    
C29   O11   D    
C8    O6    A    
C10   C12   A    
Cu1   O5    S    
Cu2   N2    S    
C31   O13   D    
C13   C23   S    
C20   C22   A    
Cu1   Cu2   S    
C15   C25   S    
C15   C16   S    
C4    C32   S    
C12   C14   A    
C1    O1    A    
C6    N1    A    
C30   H8    S    
C2    O2    A    
Cu1   O6    S    
C9    C10   A    
C23   N3    T    
C21   H1    S    
Cu2   O4    S    
C18   C19   A    
C1    C20   S    
C22   H2    S    
C13   C14   A    
C28   H6    S    
C2    C19   S    
C21   C22   A    
C7    O5    A    
C17   C20   A    
C6    H4    S    
C27   H5    S    
C16   C28   S    
C26   N6    T    
C3    C5    A    
Cu1   O1    S    
C3    C31   S    
