data_mof_unit_66835.cif
_audit_creation_date              2012-12-11T14:31:16-0500
_audit_creation_method            fapswitch 2.2
_symmetry_space_group_name_H-M    P1
_symmetry_Int_Tables_number       1
_space_group_crystal_system       triclinic
_cell_length_a                    8.297279
_cell_length_b                    15.125285
_cell_length_c                    15.285629
_cell_angle_alpha                 98.815376
_cell_angle_beta                  99.843334
_cell_angle_gamma                 98.408021
_cell_volume                      1838.23966976

loop_
_atom_site_label
_atom_site_type_symbol
_atom_type_description
_atom_site_fract_x
_atom_site_fract_y
_atom_site_fract_z
_atom_type_partial_charge
Ba1   Ba    Ba6+2 0.154730 0.543770 0.458180 1.626050
Ba2   Ba    Ba6+2 0.655430 0.456220 0.541750 1.616028
C1    C     C_3   0.491269 0.862920 0.187911 -0.396796
C2    C     C_R   0.111154 0.074473 0.537468 -0.037164
C3    C     C_R   0.967075 0.889415 0.534894 -0.022529
C4    C     C_3   0.897653 0.782497 0.196995 0.375376
C5    C     C_R   0.131310 0.925332 0.578742 -0.043578
C6    C     C_R   0.202921 0.014514 0.577482 -0.125647
C7    C     C_R   0.895945 0.794891 0.526390 0.059547
C8    C     C_R   0.728934 0.766238 0.484768 -0.295395
C9    C     C_R   0.919523 0.195324 0.455707 -0.000421
C10   C     C_R   0.842840 0.102476 0.455708 -0.023731
C11   C     C_R   0.941211 0.043057 0.497386 0.007962
C12   C     C_3   0.438235 0.782117 0.231717 0.407548
C13   C     C_R   0.673687 0.063705 0.416002 0.083618
C14   C     C_R   0.603105 0.979633 0.430782 -0.088748
C15   C     C_R   0.699629 0.919482 0.462798 -0.063353
C16   C     C_3   0.977306 0.848604 0.142225 -0.167153
C17   C     C_R   0.869749 0.950564 0.498071 0.011762
C18   C     C_R   0.630214 0.827383 0.454811 -0.012448
C19   C     C_R   0.093762 0.220129 0.488648 -0.223445
C20   C     C_R   0.236753 0.466451 0.764088 -0.257204
C21   C     C_R   0.135420 0.438947 0.822515 -0.011128
C22   C     C_R   0.193852 0.463520 0.915451 -0.138894
C23   C     C_3   0.611016 0.734646 0.685870 0.315358
C24   C     C_R   0.364393 0.496543 0.952232 0.019562
C25   C     C_R   0.462698 0.527301 0.891224 -0.129001
C26   C     C_R   0.394762 0.517794 0.798975 0.035124
C27   C     C_R   0.594099 0.556668 0.090586 -0.148913
C28   C     C_3   0.837916 0.290420 0.248639 0.318179
C29   C     C_R   0.660587 0.569869 0.182415 -0.022738
C30   C     C_R   0.412834 0.477257 0.207231 0.039864
C31   C     C_R   0.351990 0.455546 0.111946 0.001638
C32   C     C_R   0.435398 0.503172 0.052614 0.035939
C33   C     C_R   0.565577 0.535413 0.240792 -0.255427
C34   C     C_3   0.716047 0.829556 0.723067 -0.199330
C35   C     C_3   0.857947 0.198645 0.196007 -0.202479
C36   C     C_3   0.140515 0.695891 0.746944 0.337568
C37   C     C_3   0.265979 0.762070 0.823293 -0.157349
C38   C     C_3   0.354092 0.258661 0.249536 0.230424
C39   C     C_3   0.267846 0.163204 0.201290 -0.434081
C40   C     C_3   0.334520 0.704847 0.158736 -0.253755
C41   C     C_3   0.705164 0.150245 0.125122 -0.447545
C42   C     C_3   0.026927 0.631275 0.785920 -0.294764
C43   C     C_3   0.187049 0.823485 0.886611 -0.422393
C44   C     C_3   0.614423 0.902011 0.749508 -0.428085
C45   C     C_3   0.928409 0.219666 0.791944 0.383960
C46   C     C_3   0.872882 0.918545 0.114498 -0.515475
C47   C     C_3   0.899044 0.175338 0.692183 -0.313794
C48   C     C_3   0.936812 0.179256 0.947868 -0.449378
C49   C     C_3   0.444080 0.287948 0.833793 -0.251391
C50   C     C_3   0.401241 0.120686 0.904929 -0.465585
C51   C     C_3   0.909855 0.830659 0.294378 -0.292797
C52   C     C_3   0.567265 0.096011 0.342888 -0.371762
C53   C     C_3   0.187049 0.305061 0.468005 -0.233454
C54   C     C_3   0.211237 0.376252 0.075183 -0.415121
C55   C     C_3   0.783292 0.353592 0.185183 -0.259953
C56   C     C_3   0.878288 0.146317 0.846541 -0.172105
C57   C     C_3   0.365325 0.201928 0.763981 0.422209
C58   C     C_3   0.325796 0.114978 0.805110 -0.183353
C59   C     C_R   0.185594 0.164471 0.536330 -0.001781
H1    H     H_    0.961353 0.211206 0.159939 0.112758
H2    H     H_    0.061983 0.248790 0.817540 -0.028733
H3    H     H_    0.931501 0.084601 0.827596 0.066259
H4    H     H_    0.189602 0.095291 0.796467 0.068912
H5    H     H_    0.367204 0.057083 0.766374 0.113241
H6    H     H_    0.333509 0.034807 0.606648 0.093411
H7    H     H_    0.470785 0.958308 0.406855 0.107043
H8    H     H_    0.102606 0.458346 0.957241 0.086136
H9    H     H_    0.590507 0.560188 0.912590 0.076918
H10   H     H_    0.617522 0.547509 0.312385 0.071963
H11   H     H_    0.100507 0.885080 0.181582 0.126381
H12   H     H_    0.211165 0.656272 0.704801 0.009961
H13   H     H_    0.958188 0.323469 0.288663 0.095105
H14   H     H_    0.290306 0.646296 0.189429 0.141066
H15   H     H_    0.226939 0.727630 0.120818 0.129053
H16   H     H_    0.410127 0.683125 0.109162 0.028748
H17   H     H_    0.720481 0.080014 0.099203 0.127516
H18   H     H_    0.592639 0.147243 0.154004 0.147201
H19   H     H_    0.688453 0.186680 0.067545 0.124001
H20   H     H_    0.891623 0.153341 0.244336 0.073433
H21   H     H_    0.973746 0.570887 0.732723 0.133670
H22   H     H_    0.096167 0.610618 0.845745 0.037795
H23   H     H_    0.345096 0.723733 0.863977 0.080883
H24   H     H_    0.925559 0.664257 0.807619 0.135064
H25   H     H_    0.346363 0.806250 0.791264 0.120256
H26   H     H_    0.112348 0.865383 0.848364 0.148854
H27   H     H_    0.107486 0.782743 0.922779 0.117513
H28   H     H_    0.286771 0.870094 0.937839 0.110692
H29   H     H_    0.431519 0.254254 0.313371 0.117798
H30   H     H_    0.431417 0.289666 0.206077 0.018366
H31   H     H_    0.357366 0.117221 0.192846 0.085383
H32   H     H_    0.199482 0.165187 0.132823 0.111628
H33   H     H_    0.552168 0.758348 0.262119 -0.066130
H34   H     H_    0.383797 0.895625 0.165737 0.114875
H35   H     H_    0.812249 0.826557 0.782234 0.130231
H36   H     H_    0.686580 0.970036 0.750789 0.118565
H37   H     H_    0.496425 0.893555 0.699749 0.112473
H38   H     H_    0.589584 0.899971 0.818270 0.135822
H39   H     H_    0.587210 0.913718 0.236637 0.097839
H40   H     H_    0.839386 0.958379 0.173726 0.139092
H41   H     H_    0.945915 0.966795 0.081874 0.138451
H42   H     H_    0.759525 0.884443 0.064340 0.137059
H43   H     H_    0.947741 0.224347 0.652105 0.075909
H44   H     H_    0.964136 0.116532 0.684186 0.034335
H45   H     H_    0.180737 0.133555 0.241093 0.118768
H46   H     H_    0.764714 0.150491 0.664922 0.169902
H47   H     H_    0.741043 0.125731 0.830956 0.132808
H48   H     H_    0.892784 0.124959 0.983844 0.125390
H49   H     H_    0.074397 0.193327 0.965014 0.118911
H50   H     H_    0.887510 0.241448 0.970564 0.147359
H51   H     H_    0.244980 0.214880 0.728706 -0.095388
H52   H     H_    0.358001 0.304996 0.879202 0.026506
H53   H     H_    0.563105 0.279772 0.874664 0.137611
H54   H     H_    0.471271 0.345369 0.798416 0.125367
H55   H     H_    0.363844 0.054379 0.925090 0.130631
H56   H     H_    0.543034 0.840440 0.127907 0.080374
H57   H     H_    0.356196 0.173525 0.948464 0.126041
H58   H     H_    0.538542 0.135347 0.916321 0.136860
H59   H     H_    0.849622 0.783162 0.332147 0.063069
H60   H     H_    0.041746 0.853712 0.328866 0.158170
H61   H     H_    0.847163 0.890391 0.296883 0.046344
H62   H     H_    0.208583 0.884614 0.612891 0.100445
H63   H     H_    0.486246 0.038286 0.293972 0.074300
H64   H     H_    0.480439 0.135373 0.371094 0.148423
H65   H     H_    0.644188 0.128322 0.301667 0.132028
H66   H     H_    0.673324 0.695655 0.478312 0.070237
H67   H     H_    0.691583 0.692897 0.653289 0.025047
H68   H     H_    0.127697 0.320676 0.404935 0.093605
H69   H     H_    0.194390 0.363991 0.522449 0.129947
H70   H     H_    0.310742 0.295440 0.454257 0.136389
H71   H     H_    0.671092 0.589171 0.050690 0.058479
H72   H     H_    0.090484 0.398772 0.075622 0.133376
H73   H     H_    0.220715 0.341727 0.007560 0.098133
H74   H     H_    0.214624 0.321741 0.114200 0.116732
H75   H     H_    0.765867 0.756292 0.163335 -0.023111
H76   H     H_    0.187186 0.455425 0.692288 0.057393
H77   H     H_    0.998898 0.808689 0.079218 0.102872
H78   H     H_    0.502915 0.738787 0.633520 0.032302
H79   H     H_    0.656636 0.327598 0.144427 0.062668
H80   H     H_    0.781634 0.419541 0.226999 0.108236
H81   H     H_    0.870249 0.362907 0.138705 0.089448
H82   H     H_    0.781282 0.851524 0.670733 0.058558
O1    O     O_2   0.174080 0.723060 0.553930 -0.467139
O2    O     O_2   0.810206 0.454695 0.815986 -0.473714
O3    O     O_3   0.828273 0.286293 0.803421 -0.568107
O4    O     O_3   0.901570 0.609580 0.550840 -0.487995
O5    O     O_3   0.408220 0.452130 0.390170 -0.479079
O6    O     O_2   0.675490 0.547140 0.721820 -0.449379
O7    O     O_3   0.555643 0.697021 0.756466 -0.663497
O8    O     O_2   0.526441 0.181102 0.543796 -0.480553
O9    O     O_3   0.474120 0.186239 0.704253 -0.588098
O10   O     O_3   0.370350 0.665080 0.388270 -0.466564
O11   O     O_2   0.294375 0.819651 0.458193 -0.482034
O12   O     O_3   0.232320 0.308199 0.270046 -0.659474
O13   O     O_3   0.043272 0.746522 0.697721 -0.656920
O14   O     O_3   0.340637 0.809536 0.294440 -0.580159
O15   O     O_2   0.134790 0.452800 0.278150 -0.447124
O16   O     O_3   0.937650 0.618620 0.340860 -0.455311
O17   O     O_2   0.976636 0.541068 0.183138 -0.479537
O18   O     O_3   0.989960 0.711679 0.197457 -0.578937
O19   O     O_2   0.636200 0.276890 0.446040 -0.447715
O20   O     O_3   0.908720 0.390410 0.449080 -0.486648
O21   O     O_3   0.439930 0.334910 0.611650 -0.473561
O22   O     O_3   0.720728 0.279249 0.303567 -0.651415
O23   O     O_3   0.402060 0.547860 0.609750 -0.487000
O24   O     O_3   0.872630 0.381370 0.659060 -0.467327
P1    P     P_3+3 0.004200 0.709230 0.580350 0.969151
P2    P     P_3+3 0.305000 0.425570 0.290900 0.968396
P3    P     P_3+3 0.884799 0.613540 0.224573 0.955468
P4    P     P_3+3 0.806080 0.290760 0.419570 0.967895
P5    P     P_3+3 0.915806 0.388898 0.776382 0.961558
P6    P     P_3+3 0.411500 0.781726 0.399906 0.968008
P7    P     P_3+3 0.503598 0.578387 0.723930 0.927430
P8    P     P_3+3 0.402601 0.215604 0.599313 0.950088

loop_
_geom_bond_atom_site_label_1
_geom_bond_atom_site_label_2
_ccdc_geom_bond_type
O22   P4    S    
C30   P2    S    
C9    P4    S    
O16   P3    S    
O3    P5    S    
C59   P8    S    
C36   O13   S    
C2    C6    A    
C42   H22   S    
Ba2   O19   S    
C47   H43   S    
C35   H1    S    
C51   H59   S    
C5    C6    A    
C47   H46   S    
C57   O9    S    
C41   H17   S    
C36   C42   S    
C52   H65   S    
C20   H76   S    
C40   H14   S    
C49   H52   S    
C55   H81   S    
O1    P1    D    
Ba1   O15   S    
C23   H78   S    
C34   H82   S    
C22   C24   A    
C37   H23   S    
O6    P7    D    
C42   H21   S    
C51   H61   S    
C45   H2    S    
C36   C37   S    
C28   H13   S    
C27   H71   S    
O13   P1    S    
C41   H18   S    
C13   C14   A    
C28   C55   S    
O10   P6    S    
C48   H49   S    
C15   C18   A    
O21   P8    S    
Ba1   Ba2   S    
C2    C11   A    
C16   H77   S    
C34   H35   S    
C4    H75   S    
C1    H56   S    
C57   H51   S    
O9    P8    S    
C1    H39   S    
C24   C32   S    
C39   H32   S    
C21   P5    S    
C28   C35   S    
C8    C18   A    
C14   C15   A    
C53   H68   S    
C21   C22   A    
C10   C13   A    
C38   O12   S    
C34   C44   S    
C14   H7    S    
O20   P4    S    
C7    C8    A    
Ba2   O23   S    
C19   C59   A    
Ba2   P4    S    
C37   C43   S    
Ba2   O6    S    
C44   H37   S    
C45   O3    S    
C33   H10   S    
C57   C58   S    
C20   C26   A    
C16   H11   S    
C35   H20   S    
C22   H8    S    
C54   H72   S    
C50   H55   S    
C56   H3    S    
C4    C16   S    
C52   H64   S    
O23   P7    S    
C49   H53   S    
O8    P8    D    
C39   H45   S    
O19   P4    D    
C12   O14   S    
C48   C56   S    
C30   C33   A    
Ba1   O16   S    
C43   H27   S    
C45   C47   S    
Ba2   O21   S    
C3    C5    A    
C11   C17   A    
C47   H44   S    
Ba1   P1    S    
Ba2   O4    S    
C46   H42   S    
C27   C32   A    
C9    C19   A    
C48   H48   S    
C49   H54   S    
C55   H79   S    
C23   O7    S    
C35   C41   S    
C13   C52   S    
C3    C7    A    
O12   P2    S    
C18   P6    S    
C4    O18   S    
C53   H69   S    
C46   H41   S    
O5    P2    S    
C24   C25   A    
Ba1   O10   S    
C25   H9    S    
C1    C12   S    
C6    H6    S    
O18   P3    S    
C38   C39   S    
O7    P7    S    
C44   H36   S    
C58   H4    S    
C53   H70   S    
C29   C33   A    
Ba1   O4    S    
C49   C57   S    
C4    C51   S    
C8    H66   S    
C54   H74   S    
C43   H28   S    
C19   C53   S    
C52   H63   S    
O11   P6    D    
C43   H26   S    
C23   H67   S    
C7    P1    S    
C28   O22   S    
C5    H62   S    
C16   C46   S    
Ba2   O20   S    
C54   H73   S    
C9    C10   A    
O15   P2    D    
O24   P5    S    
C3    C17   A    
C29   P3    S    
C55   H80   S    
C40   H15   S    
C12   C40   S    
C30   C31   A    
C44   H38   S    
C41   H19   S    
C27   C29   A    
Ba1   O1    S    
C51   H60   S    
C45   C56   S    
C26   P7    S    
Ba1   O23   S    
C31   C54   S    
C46   H40   S    
C2    C59   A    
Ba1   P2    S    
C48   H50   S    
C15   C17   A    
C31   C32   A    
C56   H47   S    
C38   H30   S    
O2    P5    D    
O4    P1    S    
C23   C34   S    
C58   H5    S    
C50   H58   S    
C39   H31   S    
C10   C11   A    
Ba1   O20   S    
C40   H16   S    
C50   C58   S    
C25   C26   A    
O17   P3    D    
C20   C21   A    
Ba1   O5    S    
C1    H34   S    
C37   H25   S    
C38   H29   S    
Ba2   O5    S    
Ba2   O24   S    
C12   H33   S    
C42   H24   S    
O14   P6    S    
C36   H12   S    
C50   H57   S    
