data_mof_unit_61956.cif
_audit_creation_date              2012-12-10T18:15:12-0500
_audit_creation_method            fapswitch 2.2
_symmetry_space_group_name_H-M    P1
_symmetry_Int_Tables_number       1
_space_group_crystal_system       triclinic
_cell_length_a                    18.326709
_cell_length_b                    18.325678
_cell_length_c                    39.812942
_cell_angle_alpha                 90.100436
_cell_angle_beta                  90.006082
_cell_angle_gamma                 90.100753
_cell_volume                      13371.1101099

loop_
_atom_site_label
_atom_site_type_symbol
_atom_type_description
_atom_site_fract_x
_atom_site_fract_y
_atom_site_fract_z
_atom_type_partial_charge
C1    C     C_R   0.950919 0.537589 0.431745 -0.040548
C2    C     C_R   0.536631 0.944005 0.069093 -0.022931
C3    C     C_R   0.308810 0.745558 0.772822 -0.052084
C4    C     C_R   0.270087 0.324051 0.246546 -0.062518
C5    C     C_R   0.729701 0.675726 0.751875 -0.062509
C6    C     C_R   0.248940 0.805250 0.274758 -0.053884
C7    C     C_R   0.731128 0.214669 0.719665 -0.056337
C8    C     C_R   0.196164 0.696089 0.250010 -0.092803
C9    C     C_R   0.803803 0.303903 0.749992 -0.098591
C10   C     C_R   0.303827 0.196182 0.249984 -0.104954
C11   C     C_R   0.696099 0.803783 0.749972 -0.108933
C12   C     C_R   0.803803 0.304203 0.249726 -0.098013
C13   C     C_R   0.973706 0.441691 0.932148 -0.047665
C14   C     C_R   0.196122 0.696198 0.750031 -0.095688
C15   C     C_R   0.696147 0.803817 0.249930 -0.106956
C16   C     C_R   0.303793 0.196091 0.750027 -0.107128
C17   C     C_R   0.196198 0.303835 0.749927 -0.106010
C18   C     C_R   0.803818 0.696145 0.249975 -0.107857
C19   C     C_R   0.303948 0.803877 0.749976 -0.096796
C20   C     C_R   0.695545 0.197059 0.249781 -0.102603
C21   C     C_R   0.803830 0.696205 0.750077 -0.106226
C22   C     C_R   0.196174 0.303843 0.249972 -0.107574
C23   C     C_R   0.696176 0.196085 0.750009 -0.094764
C24   C     C_R   0.954449 0.554886 0.069817 -0.051201
C25   C     C_R   0.303674 0.804084 0.249949 -0.093710
C26   C     C_R   0.999816 0.496769 0.377949 -0.098092
C27   C     C_R   0.000245 0.501738 0.621507 -0.114470
C28   C     C_R   0.498594 0.998933 0.377902 -0.084246
C29   C     C_R   0.496477 0.999506 0.621920 -0.097449
C30   C     C_R   0.499728 0.000622 0.878077 -0.119766
C31   C     C_R   0.500305 0.999236 0.122248 -0.110227
C32   C     C_R   0.001759 0.500387 0.878498 -0.114478
C33   C     C_R   0.996692 0.499690 0.122051 -0.097822
C34   C     C_1   0.899146 0.580737 0.450833 0.179994
C35   C     C_R   0.551052 0.957745 0.931126 -0.049670
C36   C     C_1   0.128869 0.549137 0.550673 0.177006
C37   C     C_1   0.374032 0.939164 0.447915 0.180115
C38   C     C_1   0.401398 0.100967 0.552240 0.179391
C39   C     C_1   0.108379 0.410424 0.447733 0.179652
C40   C     C_1   0.879240 0.446546 0.548998 0.179272
C41   C     C_1   0.614354 0.062714 0.450449 0.179362
C42   C     C_1   0.584916 0.903268 0.548832 0.179267
C43   C     C_1   0.395493 0.085956 0.949479 0.232660
C44   C     C_1   0.570901 0.884683 0.050908 0.227809
C45   C     C_1   0.947031 0.379298 0.950905 0.179065
C46   C     C_R   0.462722 0.054791 0.069414 -0.048847
C47   C     C_1   0.910411 0.608327 0.052291 0.179607
C48   C     C_1   0.603734 0.913876 0.949186 0.178043
C49   C     C_1   0.426463 0.113141 0.051489 0.179650
C50   C     C_1   0.048960 0.629201 0.949440 0.176920
C51   C     C_1   0.080826 0.399163 0.049154 0.180428
C52   C     C_1   0.361023 0.749455 0.199418 0.191952
C53   C     C_1   0.677041 0.213231 0.811330 0.200820
C54   C     C_1   0.099956 0.209648 0.258123 0.192588
C55   C     C_1   0.900474 0.791383 0.745703 0.206959
C56   C     C_1   0.694236 0.196349 0.187177 0.208987
C57   C     C_R   0.023273 0.565271 0.931416 -0.050611
C58   C     C_1   0.241596 0.868855 0.703564 0.188783
C59   C     C_1   0.899997 0.790489 0.258129 0.204208
C60   C     C_1   0.099481 0.208947 0.744745 0.200917
C61   C     C_1   0.208779 0.099455 0.745004 0.200471
C62   C     C_1   0.790364 0.900042 0.258203 0.196338
C63   C     C_1   0.129238 0.760445 0.704710 0.178470
C64   C     C_1   0.802702 0.306702 0.187157 0.206092
C65   C     C_1   0.790948 0.900519 0.744899 0.203340
C66   C     C_1   0.209452 0.099983 0.257892 0.204544
C67   C     C_1   0.785701 0.324421 0.811139 0.204114
C68   C     C_R   0.037633 0.450899 0.068249 -0.041081
C69   C     C_1   0.250354 0.639018 0.199310 0.193725
C70   C     C_1   0.824044 0.285578 0.688842 0.203925
C71   C     C_1   0.138706 0.750861 0.300480 0.190400
C72   C     C_1   0.599460 0.708746 0.754774 0.201039
C73   C     C_1   0.400020 0.290354 0.241716 0.195382
C74   C     C_1   0.260482 0.629590 0.795404 0.178189
C75   C     C_1   0.806280 0.303904 0.312296 0.204671
C76   C     C_1   0.400502 0.290940 0.755327 0.200953
C77   C     C_1   0.599990 0.709519 0.241651 0.200347
C78   C     C_1   0.709643 0.599937 0.241605 0.192616
C79   C     C_R   0.947767 0.537129 0.396433 0.099075
C80   C     C_1   0.291360 0.400477 0.754517 0.207578
C81   C     C_1   0.690945 0.202124 0.312325 0.222220
C82   C     C_1   0.369085 0.741813 0.796422 0.191138
C83   C     C_1   0.290475 0.400027 0.241890 0.204310
C84   C     C_1   0.708948 0.599461 0.755049 0.200905
C85   C     C_1   0.246780 0.863694 0.299388 0.179889
C86   C     C_1   0.713063 0.176710 0.688684 0.202647
C87   C     C_3   0.823618 0.545565 0.376292 -0.657987
C88   C     C_3   0.118503 0.631965 0.629764 -0.690437
C89   C     C_3   0.390737 0.853356 0.373565 -0.679266
C90   C     C_R   0.063165 0.526244 0.603970 0.115183
C91   C     C_3   0.337584 0.067227 0.635069 -0.717736
C92   C     C_3   0.075498 0.341131 0.365607 -0.725207
C93   C     C_3   0.818467 0.507665 0.623419 -0.663237
C94   C     C_3   0.671258 0.002712 0.368930 -0.755431
C95   C     C_3   0.556935 0.826835 0.623715 -0.675172
C96   C     C_3   0.323932 0.066361 0.876178 -0.679350
C97   C     C_3   0.653219 0.895346 0.124428 -0.686665
C98   C     C_3   0.008196 0.318601 0.876497 -0.662677
C99   C     C_3   0.841006 0.575312 0.134303 -0.726384
C100  C     C_3   0.573696 0.842828 0.867647 -0.714579
C101  C     C_R   0.439343 0.966620 0.394963 0.087871
C102  C     C_3   0.469276 0.170160 0.133845 -0.736668
C103  C     C_3   0.131689 0.618938 0.870373 -0.690192
C104  C     C_3   0.045538 0.323541 0.123609 -0.658388
C105  C     C_R   0.065024 0.523311 0.568643 -0.050820
C106  C     C_R   0.450881 0.049754 0.605060 0.116577
C107  C     C_R   0.052915 0.454561 0.394847 0.118192
C108  C     C_R   0.938697 0.476657 0.603122 0.104769
C109  C     C_R   0.556783 0.030202 0.396117 0.113031
C110  C     C_R   0.539454 0.949792 0.603336 0.099891
C111  C     C_R   0.448081 0.042928 0.895998 0.114029
C112  C     C_R   0.538432 0.944388 0.104428 0.107921
C113  C     C_R   0.976875 0.438787 0.896836 0.104961
C114  C     C_R   0.954474 0.552789 0.105162 0.118966
C115  C     C_R   0.550963 0.957590 0.895711 0.129838
C116  C     C_R   0.436030 0.970015 0.430321 -0.037897
C117  C     C_R   0.462369 0.054357 0.104811 0.132114
C118  C     C_R   0.026144 0.563387 0.896086 0.115112
C119  C     C_R   0.037102 0.447684 0.103557 0.099204
C120  C     C_R   0.004143 0.496055 0.448455 -0.020310
C121  C     C_R   0.004450 0.496866 0.550770 -0.018614
C122  C     C_R   0.493431 0.002556 0.448497 -0.020372
C123  C     C_R   0.493257 0.002206 0.551216 -0.020569
C124  C     C_R   0.499334 0.999496 0.948849 -0.038824
C125  C     C_R   0.499599 0.999505 0.051624 -0.039566
C126  C     C_R   0.997023 0.504640 0.949237 -0.018527
C127  C     C_R   0.449310 0.050808 0.569648 -0.049787
C128  C     C_R   0.996132 0.504158 0.051550 -0.020293
C129  C     C_1   0.005781 0.495563 0.484564 0.015333
C130  C     C_1   0.005836 0.495764 0.514651 0.015440
C131  C     C_1   0.491728 0.003290 0.484763 0.014633
C132  C     C_1   0.491783 0.003251 0.514949 0.016025
C133  C     C_1   0.499322 0.999434 0.985139 0.007724
C134  C     C_1   0.499339 0.999514 0.015338 0.006782
C135  C     C_1   0.995965 0.506027 0.985357 0.015608
C136  C     C_1   0.995738 0.505901 0.015444 0.015170
C137  C     C_R   0.499601 0.999849 0.340910 0.878223
C138  C     C_R   0.054944 0.454460 0.430196 -0.051180
C139  C     C_R   0.499827 0.999862 0.659013 0.861972
C140  C     C_R   0.999922 0.499708 0.340940 0.859999
C141  C     C_R   0.999972 0.500520 0.658872 0.842915
C142  C     C_R   0.000519 0.500027 0.841131 0.842901
C143  C     C_R   0.999686 0.499868 0.159060 0.859962
C144  C     C_R   0.499950 0.000561 0.840973 0.827871
C145  C     C_R   0.500053 0.999478 0.159147 0.829796
C146  C     C_R   0.360004 0.140003 0.250003 0.809394
C147  C     C_R   0.639945 0.859955 0.750008 0.810575
C148  C     C_R   0.859948 0.360206 0.249860 0.813048
C149  C     C_R   0.941575 0.473424 0.567808 -0.047990
C150  C     C_R   0.139958 0.639976 0.750014 0.816873
C151  C     C_R   0.639962 0.860001 0.249971 0.806144
C152  C     C_R   0.359974 0.139929 0.749992 0.805529
C153  C     C_R   0.139978 0.639902 0.249994 0.817757
C154  C     C_R   0.860024 0.360065 0.749997 0.819318
C155  C     C_R   0.360070 0.860054 0.749987 0.821697
C156  C     C_R   0.639835 0.140238 0.249929 0.813445
C157  C     C_R   0.860022 0.640034 0.750009 0.806820
C158  C     C_R   0.139997 0.360009 0.249987 0.809645
C159  C     C_R   0.639969 0.139931 0.750004 0.811955
C160  C     C_R   0.553991 0.032120 0.431509 -0.047928
C161  C     C_R   0.359971 0.860153 0.250020 0.821460
C162  C     C_R   0.140017 0.360038 0.749993 0.806043
C163  C     C_R   0.860008 0.639968 0.249998 0.808794
C164  C     C_R   0.304426 0.749690 0.224930 -0.052011
C165  C     C_R   0.714835 0.231212 0.780344 -0.055568
C166  C     C_R   0.175939 0.229959 0.253387 -0.063595
C167  C     C_R   0.824202 0.770376 0.748329 -0.066289
C168  C     C_R   0.723215 0.222894 0.218923 -0.056142
C169  C     C_R   0.245472 0.808690 0.727170 -0.052030
C170  C     C_R   0.824021 0.770076 0.253426 -0.063474
C171  C     C_R   0.538737 0.952260 0.567956 -0.039629
C172  C     C_R   0.175737 0.229700 0.748021 -0.062608
C173  C     C_R   0.229654 0.175711 0.748068 -0.067330
C174  C     C_R   0.770039 0.824048 0.253418 -0.062090
C175  C     C_R   0.190914 0.754964 0.727419 -0.051531
C176  C     C_R   0.777023 0.277101 0.218896 -0.056127
C177  C     C_R   0.770210 0.824263 0.748165 -0.062087
C178  C     C_R   0.229898 0.175974 0.253358 -0.063400
C179  C     C_R   0.768614 0.285544 0.780302 -0.055485
C180  C     C_R   0.250249 0.695559 0.224894 -0.052589
C181  C     C_R   0.785359 0.268550 0.719690 -0.055763
C182  C     C_R   0.447917 0.041806 0.931329 -0.031168
C183  C     C_R   0.195287 0.750614 0.274964 -0.052225
C184  C     C_R   0.675715 0.729638 0.751823 -0.068247
C185  C     C_R   0.324054 0.270065 0.246528 -0.060487
C186  C     C_R   0.255003 0.691073 0.772631 -0.051824
C187  C     C_R   0.776269 0.278407 0.280519 -0.056674
C188  C     C_R   0.324257 0.270207 0.751946 -0.061907
C189  C     C_R   0.675954 0.729897 0.246420 -0.063557
C190  C     C_R   0.729938 0.675921 0.246433 -0.063960
C191  C     C_R   0.270365 0.324204 0.751781 -0.065792
C192  C     C_R   0.721010 0.225955 0.280515 -0.065142
H1    H     H_    0.891216 0.632971 0.387728 0.229390
H2    H     H_    0.348852 0.831282 0.356173 0.240109
H3    H     H_    0.383396 0.827313 0.398513 0.228384
H4    H     H_    0.445401 0.838907 0.363561 0.260109
H5    H     H_    0.399933 0.149633 0.613685 0.239864
H6    H     H_    0.308637 0.107024 0.651351 0.238179
H7    H     H_    0.347193 0.016862 0.649895 0.233014
H8    H     H_    0.302508 0.054138 0.613090 0.240461
H9    H     H_    0.155136 0.408505 0.386115 0.239557
H10   H     H_    0.116322 0.313641 0.349339 0.237267
H11   H     H_    0.024300 0.347532 0.350969 0.229784
H12   H     H_    0.788606 0.578609 0.359414 0.234726
H13   H     H_    0.064830 0.306308 0.387904 0.239486
H14   H     H_    0.854353 0.403552 0.611642 0.241094
H15   H     H_    0.774154 0.486809 0.639836 0.239543
H16   H     H_    0.795082 0.520885 0.598422 0.221355
H17   H     H_    0.840923 0.558247 0.634903 0.246110
H18   H     H_    0.643317 0.102082 0.390016 0.253703
H19   H     H_    0.715611 0.028336 0.354024 0.244807
H20   H     H_    0.645061 0.960031 0.353174 0.235773
H21   H     H_    0.695465 0.977014 0.391602 0.244563
H22   H     H_    0.639134 0.900216 0.611847 0.230657
H23   H     H_    0.796846 0.541849 0.401256 0.224375
H24   H     H_    0.592602 0.794543 0.640612 0.235685
H25   H     H_    0.554801 0.799437 0.598830 0.224955
H26   H     H_    0.501177 0.828034 0.634638 0.258720
H27   H     H_    0.418985 0.116992 0.857914 0.227708
H28   H     H_    0.311919 0.049174 0.849987 0.253900
H29   H     H_    0.287275 0.112262 0.882869 0.235580
H30   H     H_    0.312095 0.019872 0.893271 0.233410
H31   H     H_    0.550900 0.870774 0.143998 0.224166
H32   H     H_    0.666935 0.944332 0.139632 0.258209
H33   H     H_    0.678342 0.900734 0.099183 0.240476
H34   H     H_    0.828588 0.489876 0.365470 0.263508
H35   H     H_    0.676852 0.846563 0.136816 0.231605
H36   H     H_    0.904002 0.354211 0.888233 0.240837
H37   H     H_    0.987446 0.274200 0.860044 0.239345
H38   H     H_    0.021516 0.295291 0.901489 0.221517
H39   H     H_    0.058697 0.341183 0.865055 0.246299
H40   H     H_    0.908372 0.654996 0.113953 0.238896
H41   H     H_    0.813483 0.616121 0.150579 0.236242
H42   H     H_    0.847412 0.524106 0.148900 0.230053
H43   H     H_    0.806214 0.564642 0.111958 0.240182
H44   H     H_    0.653114 0.910688 0.887980 0.238308
H45   H     H_    0.174458 0.540974 0.612429 0.236304
H46   H     H_    0.614766 0.814437 0.851848 0.237956
H47   H     H_    0.522891 0.848842 0.852691 0.235773
H48   H     H_    0.562312 0.809030 0.890203 0.238209
H49   H     H_    0.375805 0.125879 0.112524 0.238587
H50   H     H_    0.436266 0.207997 0.149458 0.235887
H51   H     H_    0.490260 0.200293 0.111645 0.244947
H52   H     H_    0.515888 0.150782 0.149231 0.242543
H53   H     H_    0.040611 0.674708 0.887705 0.236214
H54   H     H_    0.148102 0.665589 0.854279 0.241035
H55   H     H_    0.143090 0.567545 0.856514 0.234656
H56   H     H_    0.165136 0.648514 0.645893 0.241020
H57   H     H_    0.164513 0.620271 0.893837 0.231331
H58   H     H_    0.132941 0.391129 0.112298 0.229831
H59   H     H_    0.078606 0.288513 0.140468 0.234907
H60   H     H_    0.041770 0.296784 0.098617 0.224516
H61   H     H_    0.989874 0.328520 0.134412 0.263243
H62   H     H_    0.067103 0.643272 0.643596 0.234532
H63   H     H_    0.119734 0.664749 0.606316 0.231544
H64   H     H_    0.330955 0.946814 0.383502 0.241657
N1    N     N_1   0.857855 0.615132 0.466091 -0.189066
N2    N     N_1   0.598203 0.837106 0.036510 -0.171371
N3    N     N_1   0.925786 0.329550 0.965891 -0.185667
N4    N     N_1   0.875262 0.650957 0.038286 -0.181640
N5    N     N_1   0.645991 0.878846 0.963486 -0.175379
N6    N     N_1   0.397569 0.159977 0.037313 -0.174597
N7    N     N_1   0.069457 0.680179 0.963840 -0.186307
N8    N     N_1   0.115258 0.357900 0.033891 -0.186076
N9    N     N_1   0.406174 0.749363 0.179095 -0.196592
N10   N     N_1   0.646896 0.198873 0.836000 -0.192929
N11   N     N_1   0.039424 0.193522 0.261908 -0.184566
N12   N     N_1   0.179777 0.569745 0.536318 -0.185643
N13   N     N_1   0.961203 0.808219 0.743676 -0.168538
N14   N     N_1   0.671231 0.175238 0.161881 -0.197123
N15   N     N_1   0.238585 0.916769 0.684720 -0.204686
N16   N     N_1   0.960518 0.806732 0.261873 -0.173831
N17   N     N_1   0.038750 0.192441 0.742127 -0.180565
N18   N     N_1   0.192100 0.038730 0.742597 -0.172040
N19   N     N_1   0.806503 0.960581 0.262027 -0.185860
N20   N     N_1   0.080009 0.765062 0.686640 -0.206960
N21   N     N_1   0.823137 0.330310 0.161896 -0.203340
N22   N     N_1   0.807440 0.961244 0.742285 -0.179242
N23   N     N_1   0.324541 0.914540 0.461978 -0.186365
N24   N     N_1   0.193160 0.039452 0.261491 -0.171367
N25   N     N_1   0.799176 0.355534 0.835690 -0.202052
N26   N     N_1   0.250360 0.593911 0.178928 -0.191774
N27   N     N_1   0.855000 0.299009 0.664283 -0.201714
N28   N     N_1   0.093577 0.750983 0.320812 -0.193248
N29   N     N_1   0.538736 0.692055 0.757092 -0.172013
N30   N     N_1   0.460537 0.306460 0.237865 -0.184638
N31   N     N_1   0.265087 0.580519 0.813529 -0.206588
N32   N     N_1   0.830183 0.324154 0.337568 -0.203845
N33   N     N_1   0.461220 0.307427 0.758033 -0.180150
N34   N     N_1   0.363132 0.140976 0.538328 -0.183364
N35   N     N_1   0.539477 0.693308 0.237852 -0.176013
N36   N     N_1   0.693530 0.539401 0.237747 -0.184385
N37   N     N_1   0.308186 0.461209 0.756632 -0.168562
N38   N     N_1   0.666782 0.184060 0.337795 -0.186479
N39   N     N_1   0.417094 0.738938 0.815259 -0.202667
N40   N     N_1   0.306693 0.460549 0.238182 -0.174760
N41   N     N_1   0.692443 0.538724 0.757585 -0.180452
N42   N     N_1   0.244865 0.910468 0.318933 -0.196307
N43   N     N_1   0.698640 0.146437 0.664017 -0.189113
N44   N     N_2   0.894578 0.579855 0.379266 -0.298196
N45   N     N_1   0.151003 0.375279 0.461749 -0.182668
N46   N     N_2   0.124103 0.555091 0.621970 -0.275908
N47   N     N_2   0.382814 0.931758 0.376242 -0.306422
N48   N     N_2   0.406018 0.098410 0.623978 -0.284199
N49   N     N_2   0.103390 0.411506 0.376047 -0.279975
N50   N     N_2   0.874672 0.452659 0.620243 -0.274555
N51   N     N_2   0.618831 0.057801 0.378649 -0.289032
N52   N     N_2   0.586078 0.899976 0.620485 -0.299520
N53   N     N_2   0.399057 0.090519 0.878833 -0.299165
N54   N     N_2   0.574883 0.886801 0.121769 -0.299649
N55   N     N_2   0.953037 0.374658 0.879670 -0.274520
N56   N     N_1   0.829538 0.425140 0.533970 -0.184133
N57   N     N_2   0.911378 0.603235 0.123966 -0.280113
N58   N     N_2   0.601679 0.913517 0.877570 -0.281228
N59   N     N_2   0.424334 0.109417 0.123183 -0.292594
N60   N     N_2   0.054820 0.624372 0.878137 -0.276000
N61   N     N_2   0.079830 0.394500 0.120719 -0.298182
N62   N     N_1   0.662521 0.087086 0.465584 -0.182440
N63   N     N_1   0.621767 0.864199 0.533545 -0.190105
N64   N     N_1   0.353406 0.121191 0.963830 -0.175353
O1    O     O_3   0.500000 1.000000 0.250000 -0.500293
O2    O     O_R   0.500000 0.939240 0.675070 -0.634279
O3    O     O_R   0.939240 0.500000 0.324930 -0.627571
O4    O     O_R   0.060760 0.500000 0.675070 -0.614818
O5    O     O_R   0.000000 0.439240 0.824930 -0.620302
O6    O     O_R   1.000000 0.560760 0.175070 -0.617755
O7    O     O_R   0.560760 0.000000 0.824930 -0.606781
O8    O     O_R   0.439240 1.000000 0.175070 -0.616243
O9    O     O_R   1.000000 0.560760 0.824930 -0.615089
O10   O     O_R   0.000000 0.439240 0.175070 -0.628201
O11   O     O_R   0.439240 0.000000 0.824930 -0.649228
O12   O     O_3   0.500000 0.000000 0.750000 -0.500317
O13   O     O_R   0.560760 1.000000 0.175070 -0.647754
O14   O     O_R   0.414510 0.146130 0.269710 -0.633783
O15   O     O_R   0.585490 0.853870 0.730290 -0.634451
O16   O     O_R   0.853870 0.414510 0.269710 -0.634630
O17   O     O_R   0.146130 0.585490 0.730290 -0.630469
O18   O     O_R   0.585490 0.853870 0.269710 -0.637633
O19   O     O_R   0.414510 0.146130 0.730290 -0.628373
O20   O     O_R   0.146130 0.585490 0.269710 -0.631615
O21   O     O_R   0.853870 0.414510 0.730290 -0.628796
O22   O     O_R   0.414510 0.853870 0.730290 -0.635664
O23   O     O_3   1.000000 0.500000 0.250000 -0.503371
O24   O     O_R   0.585490 0.146130 0.269710 -0.628516
O25   O     O_R   0.853870 0.585490 0.730290 -0.639931
O26   O     O_R   0.146130 0.414510 0.269710 -0.630807
O27   O     O_R   0.585490 0.146130 0.730290 -0.630808
O28   O     O_R   0.414510 0.853870 0.269710 -0.632643
O29   O     O_R   0.146130 0.414510 0.730290 -0.632705
O30   O     O_R   0.853870 0.585490 0.269710 -0.632874
O31   O     O_R   0.914510 0.646130 0.769710 -0.632722
O32   O     O_R   0.085490 0.353870 0.230290 -0.632981
O33   O     O_R   0.353870 0.914510 0.769710 -0.632335
O34   O     O_3   0.000000 0.500000 0.750000 -0.502140
O35   O     O_R   0.646130 0.085490 0.230290 -0.631728
O36   O     O_R   0.085490 0.353870 0.769710 -0.639732
O37   O     O_R   0.914510 0.646130 0.230290 -0.631177
O38   O     O_R   0.646130 0.085490 0.769710 -0.631316
O39   O     O_R   0.353870 0.914510 0.230290 -0.631294
O40   O     O_R   0.914510 0.353870 0.230290 -0.635328
O41   O     O_R   0.085490 0.646130 0.769710 -0.630714
O42   O     O_R   0.353870 0.085490 0.230290 -0.630299
O43   O     O_R   0.646130 0.914510 0.769710 -0.629631
O44   O     O_R   0.085490 0.646130 0.230290 -0.630376
O45   O     O_R   0.500000 0.939240 0.324930 -0.643927
O46   O     O_R   0.914510 0.353870 0.769710 -0.628603
O47   O     O_R   0.646130 0.914510 0.230290 -0.637686
O48   O     O_R   0.353870 0.085490 0.769710 -0.644816
O49   O     O_R   0.500000 0.060760 0.675070 -0.613848
O50   O     O_R   0.060760 0.500000 0.324930 -0.618148
O51   O     O_R   0.939240 0.500000 0.675070 -0.620623
O52   O     O_R   0.500000 0.060760 0.324930 -0.622228
Zn1   Zn    Zn3+2 0.413200 1.000000 0.222070 1.005077
Zn2   Zn    Zn3+2 0.086800 0.500000 0.277930 1.004463
Zn3   Zn    Zn3+2 0.500000 0.913200 0.722070 0.988926
Zn4   Zn    Zn3+2 0.500000 0.086800 0.277930 1.010114
Zn5   Zn    Zn3+2 0.086800 0.500000 0.722070 0.998406
Zn6   Zn    Zn3+2 0.913200 0.500000 0.277930 0.989980
Zn7   Zn    Zn3+2 0.500000 0.086800 0.722070 1.005012
Zn8   Zn    Zn3+2 0.500000 0.913200 0.277930 0.986608
Zn9   Zn    Zn3+2 0.586800 1.000000 0.777930 1.005055
Zn10  Zn    Zn3+2 0.000000 0.413200 0.222070 0.989814
Zn11  Zn    Zn3+2 0.000000 0.586800 0.777930 0.998430
Zn12  Zn    Zn3+2 0.586800 1.000000 0.222070 0.981160
Zn13  Zn    Zn3+2 0.413200 1.000000 0.777930 0.973518
Zn14  Zn    Zn3+2 0.000000 0.586800 0.222070 1.004635
Zn15  Zn    Zn3+2 0.000000 0.413200 0.777930 0.992452
Zn16  Zn    Zn3+2 0.913200 0.500000 0.722070 0.992422

loop_
_geom_bond_atom_site_label_1
_geom_bond_atom_site_label_2
_ccdc_geom_bond_type
C16   C173  A    
C150  O17   A    
C19   C155  S    
C56   N14   T    
C15   C151  S    
C17   C191  A    
C33   C114  A    
O25   Zn16  S    
C124  C133  S    
C188  C191  A    
C71   N28   T    
C35   C124  A    
O28   Zn8   S    
C68   C119  A    
C139  O49   A    
C6    C25   A    
C92   N49   S    
C25   C164  A    
C86   N43   T    
O6    Zn14  S    
C10   C185  A    
C100  H47   S    
C75   N32   T    
C31   C112  A    
C35   C115  A    
C144  O11   A    
C68   C128  A    
C32   C142  S    
C76   C188  S    
C96   N53   S    
C110  C171  A    
C108  N50   S    
C36   N12   T    
C114  N57   S    
C29   C139  S    
C50   N7    T    
C18   C170  A    
C28   C137  S    
C71   C183  S    
C88   N46   S    
C72   C184  S    
C16   C188  A    
C96   H28   S    
C106  C127  A    
C111  C182  A    
C103  H55   S    
C119  N61   S    
C46   C117  A    
C1    C120  A    
C60   C172  S    
C124  C182  A    
C14   C175  A    
C18   C163  S    
C8    C180  A    
C70   C181  S    
C47   N4    T    
C6    C85   S    
C23   C165  A    
O50   Zn2   S    
C144  O7    A    
C140  O50   A    
C1    C79   A    
C102  H52   S    
C87   H12   S    
H58   N61   S    
C170  C174  A    
C161  O28   A    
C18   C190  A    
C50   C57   S    
C72   N29   T    
C90   C105  A    
C40   N56   T    
C49   N6    T    
C54   N11   T    
C146  O14   A    
C107  C138  A    
C128  C136  S    
O33   Zn13  S    
C13   C45   S    
O10   Zn10  S    
C41   N62   T    
C99   H41   S    
C156  O35   A    
C95   H25   S    
C121  C149  A    
C142  O5    A    
H1    N44   S    
C44   N2    T    
C31   C145  S    
O31   Zn11  S    
O40   Zn10  S    
C96   H29   S    
C163  O30   A    
C65   N22   T    
C137  O52   A    
C57   C118  A    
O34   Zn5   S    
C24   C114  A    
C104  H60   S    
C123  C132  S    
C121  C130  S    
C67   N25   T    
O36   Zn15  S    
C37   C116  S    
C113  N55   S    
C145  O8    A    
C104  N61   S    
C27   C108  A    
O23   Zn14  S    
C69   C180  S    
C7    C86   S    
C89   H3    S    
C48   N5    T    
O12   Zn13  S    
H36   N55   S    
C106  N48   S    
C92   H13   S    
C27   C141  S    
H14   N50   S    
C73   N30   T    
C25   C161  S    
C141  O4    A    
C23   C159  S    
O34   Zn15  S    
C61   N18   T    
C100  H46   S    
C55   N13   T    
C151  O18   A    
O48   Zn13  S    
C64   C176  S    
C5    C184  A    
C9    C179  A    
C158  O26   A    
C52   N9    T    
C15   C189  A    
C39   C138  S    
C97   N54   S    
C95   H24   S    
O18   Zn8   S    
C1    C34   S    
C88   H63   S    
O12   Zn3   S    
C7    C181  A    
C120  C129  S    
C103  H57   S    
C58   C169  S    
O23   Zn2   S    
C5    C84   S    
C12   C187  A    
C104  H61   S    
O17   Zn5   S    
C22   C166  A    
O8    Zn1   S    
C81   N38   T    
C88   H56   S    
C41   C160  S    
C4    C22   A    
C83   N40   T    
C123  C127  A    
C69   N26   T    
C139  O2    A    
C87   H34   S    
C5    C21   A    
C3    C19   A    
C8    C153  S    
C187  C192  A    
O13   Zn12  S    
C10   C146  S    
C91   H8    S    
C8    C183  A    
O34   Zn11  S    
C165  C179  A    
O3    Zn6   S    
C122  C131  S    
C92   H10   S    
C84   N41   T    
C117  N59   S    
C168  C176  A    
C118  N60   S    
C87   H23   S    
O12   Zn7   S    
C11   C184  A    
H18   N51   S    
C9    C154  S    
O23   Zn6   S    
C73   C185  S    
C146  O42   A    
O45   Zn8   S    
O35   Zn12  S    
H5    N48   S    
C109  N51   S    
C110  N52   S    
C77   C189  S    
C147  O15   A    
C65   C177  S    
C74   N31   T    
C7    C23   A    
O1    Zn4   S    
C59   N16   T    
C100  H48   S    
C159  O27   A    
C9    C181  A    
C42   C171  S    
C89   N47   S    
C2    C125  A    
C80   N37   T    
C98   N55   S    
C24   C128  A    
C143  O6    A    
C93   H16   S    
O11   Zn13  S    
C163  O37   A    
C125  C134  S    
C97   H33   S    
C93   N50   S    
C3    C186  A    
C150  O41   A    
C151  O47   A    
C46   C125  A    
C55   C167  S    
O38   Zn9   S    
H22   N52   S    
C17   C172  A    
C135  C136  T    
C33   C143  S    
C94   H20   S    
C46   C49   S    
C2    C112  A    
C116  C122  A    
C154  O21   A    
C87   N44   S    
O29   Zn5   S    
C129  C130  T    
C26   C140  S    
C82   N39   T    
H27   N53   S    
C70   N27   T    
H49   N59   S    
C30   C144  S    
O1    Zn8   S    
C115  N58   S    
C91   H6    S    
C28   C101  A    
H31   N54   S    
O22   Zn3   S    
C166  C178  A    
C32   C113  A    
O44   Zn14  S    
C164  C180  A    
C30   C115  A    
O37   Zn14  S    
O27   Zn7   S    
O12   Zn9   S    
O39   Zn1   S    
C54   C166  S    
C35   C48   S    
C152  O19   A    
O51   Zn16  S    
O41   Zn11  S    
C29   C110  A    
C99   N57   S    
O43   Zn9   S    
C99   H42   S    
C88   H62   S    
C22   C158  S    
C58   N15   T    
O52   Zn4   S    
C4    C185  A    
C156  O24   A    
C162  O36   A    
C155  O22   A    
C90   N46   S    
C100  N58   S    
C102  N59   S    
C14   C150  S    
C169  C175  A    
O32   Zn10  S    
O46   Zn15  S    
C16   C152  S    
C63   C175  S    
C37   N23   T    
C13   C126  A    
O30   Zn6   S    
C53   C165  S    
C97   H35   S    
C126  C135  S    
C96   H30   S    
O2    Zn3   S    
C137  O45   A    
C133  C134  T    
C140  O3    A    
C131  C132  T    
C159  O38   A    
C95   N52   S    
C157  O31   A    
C11   C177  A    
C94   H21   S    
C112  N54   S    
C15   C174  A    
C36   C105  S    
C75   C187  S    
C32   C118  A    
H53   N60   S    
O4    Zn5   S    
C20   C192  A    
C26   C79   A    
C21   C167  A    
C97   H32   S    
C39   N45   T    
C6    C183  A    
H9    N49   S    
C145  O13   A    
O21   Zn16  S    
C67   C179  S    
C11   C147  S    
C4    C83   S    
C89   H2    S    
C42   N63   T    
C40   C149  S    
C62   N19   T    
C189  C190  A    
C27   C90   A    
C98   H39   S    
C63   N20   T    
C111  N53   S    
C34   N1    T    
O34   Zn16  S    
C101  C116  A    
O1    Zn1   S    
C102  H51   S    
C161  O39   A    
O23   Zn10  S    
C123  C171  A    
C74   C186  S    
C148  O40   A    
O14   Zn4   S    
C78   C190  S    
C95   H26   S    
C38   C127  S    
O16   Zn6   S    
C107  N49   S    
H40   N57   S    
C66   C178  S    
O26   Zn2   S    
C14   C186  A    
C53   N10   T    
C62   C174  S    
C38   N34   T    
C143  O10   A    
C31   C117  A    
H64   N47   S    
C153  O44   A    
O15   Zn3   S    
C66   N24   T    
O24   Zn4   S    
C59   C170  S    
C162  O29   A    
C91   H7    S    
C157  O25   A    
C94   H19   S    
C104  H59   S    
C98   H38   S    
C45   N3    T    
C20   C168  A    
C103  H54   S    
C60   N17   T    
C10   C178  A    
O1    Zn12  S    
C61   C173  S    
C2    C44   S    
C57   C126  A    
H45   N46   S    
C158  O32   A    
O9    Zn11  S    
C89   H4    S    
C103  N60   S    
C147  O43   A    
C153  O20   A    
C81   C192  S    
C98   H37   S    
C99   H43   S    
C154  O46   A    
C85   N42   T    
O49   Zn7   S    
C64   N21   T    
O5    Zn15  S    
C56   C168  S    
C3    C82   S    
C105  C121  A    
C92   H11   S    
C76   N33   T    
C102  H50   S    
H44   N58   S    
C52   C164  S    
C91   N48   S    
C33   C119  A    
O42   Zn1   S    
C93   H17   S    
C29   C106  A    
C148  O16   A    
C93   H15   S    
C142  O9    A    
C172  C173  A    
C20   C156  S    
C167  C177  A    
C24   C47   S    
C21   C157  S    
O7    Zn9   S    
C19   C169  A    
C152  O48   A    
C26   C107  A    
C77   N35   T    
C79   N44   S    
C78   N36   T    
C28   C109  A    
C51   N8    T    
C43   C182  S    
C12   C176  A    
C30   C111  A    
C94   N51   S    
C12   C148  S    
C141  O51   A    
C80   C191  S    
C43   N64   T    
C51   C68   S    
C101  N47   S    
C17   C162  S    
C108  C149  A    
C120  C138  A    
O20   Zn2   S    
O47   Zn12  S    
C122  C160  A    
C155  O33   A    
O19   Zn7   S    
C109  C160  A    
C13   C113  A    
