data_mof_unit_20303.cif
_audit_creation_date              2013-03-05T16:09:51-0500
_audit_creation_method            fapswitch 2.2
_symmetry_space_group_name_H-M    P1
_symmetry_Int_Tables_number       1
_space_group_crystal_system       triclinic
_cell_length_a                    6.957471
_cell_length_b                    13.379597
_cell_length_c                    14.706991
_cell_angle_alpha                 99.065483
_cell_angle_beta                  90.296084
_cell_angle_gamma                 89.896713
_cell_volume                      1351.92708596

loop_
_atom_site_label
_atom_site_type_symbol
_atom_site_description
_atom_site_fract_x
_atom_site_fract_y
_atom_site_fract_z
_atom_type_partial_charge
O1    O     O_R   0.354890 0.151580 0.148210 -0.601103
O2    O     O_R   0.645110 0.848420 0.851790 -0.601103
O3    O     O_R   0.682370 0.152980 0.336770 -0.537726
O4    O     O_R   0.317630 0.847020 0.663230 -0.537726
O5    O     O_R   0.854980 0.348430 0.351800 -0.576839
O6    O     O_R   0.145020 0.651570 0.648200 -0.576839
C1    C     C_R   0.514516 0.131511 0.365798 1.192936
C2    C     C_R   0.485484 0.868489 0.634202 1.192935
O7    O     O_R   0.684450 0.139580 0.148000 -0.585949
O8    O     O_R   0.315550 0.860420 0.852000 -0.585949
O9    O     O_R   0.857080 0.334940 0.161680 -0.609224
O10   O     O_R   0.142920 0.665060 0.838320 -0.609224
C3    C     C_R   0.515415 0.112674 0.114100 0.989232
C4    C     C_R   0.484585 0.887326 0.885900 0.989232
O11   O     O_R   0.352790 0.165070 0.338330 -0.576529
O12   O     O_R   0.647210 0.834930 0.661670 -0.576529
O13   O     O_3   0.522170 0.314120 0.254710 -0.299850
O14   O     O_3   0.477830 0.685880 0.745290 -0.299850
V1    V     V_3+5 0.796120 0.238110 0.249130 1.293343
V2    V     V_3+5 0.203880 0.761890 0.750870 1.293343
O15   O     O_R   0.186930 0.347040 0.163240 -0.607330
O16   O     O_R   0.813070 0.652960 0.836760 -0.607330
C5    C     C_R   0.017670 0.368739 0.133598 0.903546
C6    C     C_R   0.982330 0.631261 0.866402 0.903546
O17   O     O_R   0.184850 0.360440 0.352010 -0.593033
O18   O     O_R   0.815150 0.639560 0.647990 -0.593032
C7    C     C_R   0.015995 0.387250 0.385966 1.040532
C8    C     C_R   0.984005 0.612750 0.614034 1.040532
V3    V     V_3+5 0.296410 0.261900 0.250880 1.248122
V4    V     V_3+5 0.703590 0.738100 0.749120 1.248122
O19   O     O_3   0.020490 0.185890 0.245290 -0.231692
O20   O     O_3   0.979510 0.814110 0.754710 -0.231692
C9    C     C_1   0.005339 0.466887 0.466342 -0.153806
C10   C     C_1   0.994661 0.533113 0.533658 -0.153806
C11   C     C_3   0.179139 0.527179 0.980820 -0.107999
C12   C     C_3   0.820861 0.472821 0.019180 -0.107999
C13   C     C_3   0.083954 0.548092 0.077011 -0.105803
C14   C     C_3   0.916046 0.451908 0.922989 -0.105803
H1    H     H_    0.153149 0.587524 0.140881 0.154723
H2    H     H_    0.846851 0.412476 0.859119 0.154723
C15   C     C_3   0.007194 0.438831 0.062666 -0.108561
C16   C     C_3   0.992806 0.561169 0.937334 -0.108561
C17   C     C_3   0.102358 0.417141 0.967230 -0.110112
C18   C     C_3   0.897642 0.582859 0.032770 -0.110112
C19   C     C_3   0.322723 0.023726 0.475785 0.210581
C20   C     C_3   0.677277 0.976274 0.524215 0.210581
C21   C     C_3   0.406477 0.915588 0.465185 0.192006
C22   C     C_3   0.593523 0.084412 0.534815 0.192006
C23   C     C_3   0.491461 0.937838 0.564187 -0.585727
C24   C     C_3   0.508539 0.062162 0.435813 -0.585727
C25   C     C_3   0.407587 0.046651 0.574069 0.194181
C26   C     C_3   0.592412 0.953349 0.425931 0.194181
C27   C     C_1   0.504801 0.033100 0.033691 -0.185553
C28   C     C_1   0.495199 0.966900 0.966309 -0.185553
H3    H     H_    0.327289 0.549604 0.964887 0.126205
H4    H     H_    0.672711 0.450396 0.035113 0.126205
H5    H     H_    0.187000 0.348454 0.940494 0.142663
H6    H     H_    0.813000 0.651546 0.059506 0.142663
N1    N     N_R   0.309020 0.823147 0.423272 0.295702
O21   O     O_R   0.251790 0.813298 0.338025 -0.297135
O22   O     O_R   0.296862 0.746353 0.467206 -0.372487
N2    N     N_R   0.690980 0.176853 0.576728 0.295702
O23   O     O_R   0.748210 0.186702 0.661975 -0.297135
O24   O     O_R   0.703137 0.253647 0.532794 -0.372487
N3    N     N_R   0.131859 0.051211 0.447232 0.266671
O25   O     O_R   0.062035 0.005113 0.369754 -0.308398
O26   O     O_R   0.061157 0.138740 0.482191 -0.328429
N4    N     N_R   0.868141 0.948789 0.552767 0.266671
O27   O     O_R   0.937965 0.994887 0.630246 -0.308398
O28   O     O_R   0.938843 0.861259 0.517809 -0.328429
N5    N     N_R   0.311514 0.101930 0.654627 0.297266
O29   O     O_R   0.254680 0.194499 0.654243 -0.296312
O30   O     O_R   0.300836 0.063510 0.730320 -0.368110
N6    N     N_R   0.688486 0.898070 0.345373 0.297266
O31   O     O_R   0.745320 0.805501 0.345757 -0.296312
O32   O     O_R   0.699164 0.936490 0.269680 -0.368110

loop_
_geom_bond_atom_site_label_1
_geom_bond_atom_site_label_2
_geom_bond_distance
_ccdc_geom_bond_type
V4    O20   2.169180 S    
C6    C16   1.510070 S    
O4    C2    1.293688 A    
V1    O19   1.706681 S    
C21   C23   1.553498 S    
C27   C28   1.222286 T    
C7    C9    1.463510 S    
C20   C23   1.544966 S    
O9    V1    2.011255 S    
C26   N6    1.458685 S    
N6    O32   1.300133 A    
C11   C13   1.549989 S    
C14   C16   1.539883 S    
O3    C1    1.293687 A    
C19   C25   1.544075 S    
O12   V4    2.001115 S    
C20   C26   1.544075 S    
O13   V3    1.717302 S    
O9    C5    1.299570 A    
C11   C16   1.541901 S    
O7    C3    1.303908 A    
N2    O24   1.300171 A    
O5    C7    1.300485 A    
O7    V1    1.981797 S    
C22   C25   1.537544 S    
O6    C8    1.300486 A    
C18   H6    1.110207 S    
N4    O27   1.299501 A    
C23   C25   1.553175 S    
C24   C26   1.553175 S    
O3    V1    2.015293 S    
O14   V4    1.717301 S    
C11   C17   1.549799 S    
C22   C24   1.553498 S    
C8    C10   1.463510 S    
N1    O21   1.300271 A    
C2    O12   1.296738 A    
C15   C17   1.540501 S    
C12   C15   1.541901 S    
C16   C18   1.540501 S    
O11   V3    2.001114 S    
C3    C27   1.462896 S    
C19   C21   1.544033 S    
O17   V3    1.985728 S    
C20   C22   1.544033 S    
N1    O22   1.300171 A    
N6    O31   1.300300 A    
C11   H3    1.110469 S    
O8    C4    1.303908 A    
O8    V2    1.981797 S    
N5    O30   1.300133 A    
N3    O26   1.299466 A    
O15   V3    1.997139 S    
C20   N4    1.454681 S    
N2    O23   1.300271 A    
C12   H4    1.110469 S    
C22   N2    1.458738 S    
O10   V2    2.011253 S    
O1    V3    1.981432 S    
C9    C10   1.222646 T    
N4    O28   1.299466 A    
C4    C28   1.462895 S    
O18   V4    1.985728 S    
O15   C5    1.301719 A    
C19   N3    1.454681 S    
O16   C6    1.301720 A    
C12   C18   1.549799 S    
O1    C3    1.300531 A    
V2    O20   1.706682 S    
O16   V4    1.997136 S    
C1    C24   1.491515 S    
C25   N5    1.458685 S    
C21   C26   1.537544 S    
O5    V1    1.979858 S    
O17   C7    1.306263 A    
O6    V2    1.979858 S    
O10   C6    1.299571 A    
O18   C8    1.306263 A    
C5    C15   1.510070 S    
O2    V4    1.981433 S    
C13   C18   1.550646 S    
C12   C14   1.549989 S    
N5    O29   1.300300 A    
V3    O19   2.169180 S    
C14   H2    1.110195 S    
C19   C24   1.544966 S    
C1    O11   1.296738 A    
O13   V1    2.154566 S    
O14   V2    2.154565 S    
C13   C15   1.539883 S    
O2    C4    1.300531 A    
C17   H5    1.110207 S    
C21   N1    1.458738 S    
O4    V2    2.015292 S    
C14   C17   1.550646 S    
C13   H1    1.110195 S    
N3    O25   1.299501 A    
C2    C23   1.491515 S    
