data_mof_unit_64738.cif
_audit_creation_date              2012-12-10T18:53:53-0500
_audit_creation_method            fapswitch 2.2
_symmetry_space_group_name_H-M    P1
_symmetry_Int_Tables_number       1
_space_group_crystal_system       triclinic
_cell_length_a                    19.452016
_cell_length_b                    19.340973
_cell_length_c                    19.400422
_cell_angle_alpha                 84.771151
_cell_angle_beta                  95.079726
_cell_angle_gamma                 90.105541
_cell_volume                      7239.78151259

loop_
_atom_site_label
_atom_site_type_symbol
_atom_type_description
_atom_site_fract_x
_atom_site_fract_y
_atom_site_fract_z
_atom_type_partial_charge
Br1   Br    Br    0.642216 0.742224 0.463655 -0.548844
Br2   Br    Br    0.264112 0.517371 0.637616 -0.554812
Br3   Br    Br    0.662305 0.479775 0.766600 -0.495387
Br4   Br    Br    0.350193 0.923180 0.460500 -0.504548
C1    C     C_R   0.311919 0.492603 0.492729 0.537702
C2    C     C_2   0.500212 0.983936 0.449081 -0.088744
C3    C     C_2   0.496882 0.015565 0.507201 -0.101714
C4    C     C_R   0.688153 0.508292 0.506918 0.524319
C5    C     C_R   0.508762 0.235565 0.510351 0.037114
C6    C     C_R   0.762957 0.515172 0.505146 0.043685
C7    C     C_R   0.796996 0.478406 0.459001 -0.122980
C8    C     C_R   0.867615 0.485282 0.455700 -0.106734
C9    C     C_R   0.905549 0.528439 0.499136 0.039310
C10   C     C_R   0.871559 0.566880 0.543759 -0.108149
C11   C     C_R   0.800555 0.560098 0.547046 -0.091203
C12   C     C_R   0.498666 0.908052 0.452909 0.019020
C13   C     C_R   0.134718 0.490419 0.557155 0.045244
C14   C     C_R   0.206726 0.496801 0.555111 0.148866
C15   C     C_R   0.195511 0.479401 0.430825 -0.023925
C16   C     C_R   0.508860 0.491626 0.688798 0.541850
C17   C     C_R   0.124224 0.475405 0.432942 -0.119942
C18   C     C_R   0.093884 0.481180 0.494674 0.002328
C19   C     C_2   0.980842 0.532450 0.500032 -0.138914
C20   C     C_2   0.018785 0.476784 0.491369 -0.144989
C21   C     C_R   0.236945 0.490544 0.492296 0.058061
C22   C     C_R   0.486125 0.510125 0.235161 0.059979
C23   C     C_R   0.436054 0.873750 0.462767 0.160852
C24   C     C_R   0.478998 0.447058 0.202849 -0.004884
C25   C     C_R   0.474804 0.450427 0.130139 -0.092357
C26   C     C_R   0.475284 0.514226 0.090239 0.002983
C27   C     C_R   0.479180 0.575933 0.121937 -0.103804
C28   C     C_R   0.491478 0.507881 0.311114 0.487669
C29   C     C_R   0.486145 0.575075 0.194309 0.001136
C30   C     C_R   0.450026 0.482835 0.867169 -0.118877
C31   C     C_R   0.449520 0.486552 0.795367 -0.143409
C32   C     C_R   0.575139 0.482811 0.805637 0.156637
C33   C     C_R   0.575199 0.477555 0.877816 -0.076700
C34   C     C_R   0.435222 0.801960 0.474869 -0.127310
C35   C     C_R   0.512916 0.478847 0.908591 0.004604
C36   C     C_2   0.472939 0.516799 0.014548 -0.138692
C37   C     C_2   0.514094 0.475728 0.984221 -0.136336
C38   C     C_R   0.511772 0.487550 0.764208 0.053237
C39   C     C_R   0.508106 0.311503 0.508494 0.499968
C40   C     C_R   0.492749 0.688269 0.490306 0.539103
C41   C     C_R   0.496333 0.763643 0.478412 0.010996
C42   C     C_R   0.559272 0.796927 0.465996 0.147809
C43   C     C_R   0.560686 0.869892 0.452668 0.014328
C44   C     C_3   0.225225 0.469218 0.362782 -0.269240
C45   C     C_R   0.542290 0.130801 0.462224 -0.112027
C46   C     C_3   0.221481 0.536427 0.314841 -0.408365
C47   C     C_3   0.102962 0.489291 0.626227 -0.250833
C48   C     C_3   0.111985 0.417988 0.666800 -0.409600
C49   C     C_3   0.475191 0.377516 0.246652 -0.263698
C50   C     C_3   0.453043 0.315009 0.207171 -0.457906
C51   C     C_3   0.495467 0.644164 0.225511 -0.275577
C52   C     C_3   0.568834 0.652642 0.258784 -0.406332
C53   C     C_3   0.628202 0.906894 0.440539 -0.251113
C54   C     C_3   0.668467 0.919702 0.509310 -0.407179
C55   C     C_R   0.545137 0.202567 0.463201 -0.124816
C56   C     C_R   0.471195 0.195506 0.557917 -0.117059
C57   C     C_R   0.468622 0.123680 0.557097 -0.102784
C58   C     C_R   0.502713 0.091109 0.508251 0.041218
H1    H     H_    0.438709 0.093636 0.593589 0.125182
H2    H     H_    0.400495 0.489528 0.763976 0.168557
H3    H     H_    0.552069 0.442346 0.015547 0.128360
H4    H     H_    0.479593 0.624824 0.089823 0.113350
H5    H     H_    0.401379 0.482399 0.890399 0.129200
H6    H     H_    0.440595 0.555891 0.983495 0.132859
H7    H     H_    0.470519 0.403769 0.103399 0.123523
H8    H     H_    0.443160 0.219650 0.595261 0.142397
H9    H     H_    0.623799 0.473596 0.909890 0.142925
H10   H     H_    0.487760 0.984787 0.555294 0.144412
H11   H     H_    0.571379 0.106639 0.425760 0.100488
H12   H     H_    0.769109 0.444444 0.425080 0.137345
H13   H     H_    0.386763 0.775912 0.482672 0.162722
H14   H     H_    0.507242 0.012722 0.399557 0.122915
H15   H     H_    0.166942 0.553385 0.302158 0.149875
H16   H     H_    0.250802 0.578126 0.339915 0.188791
H17   H     H_    0.244208 0.527815 0.265773 0.139148
H18   H     H_    0.279474 0.450476 0.371036 0.148347
H19   H     H_    0.195858 0.428288 0.336340 0.136535
H20   H     H_    0.085591 0.377895 0.636681 0.154132
H21   H     H_    0.167450 0.404053 0.677689 0.197970
H22   H     H_    0.088803 0.418477 0.717039 0.145858
H23   H     H_    0.995134 0.427884 0.479543 0.126806
H24   H     H_    0.126199 0.529863 0.657739 0.189728
H25   H     H_    0.047131 0.501499 0.619742 0.145861
H26   H     H_    0.402729 0.325530 0.176228 0.157587
H27   H     H_    0.492985 0.302073 0.172813 0.148139
H28   H     H_    0.446962 0.269158 0.244932 0.148657
H29   H     H_    0.526549 0.365382 0.274875 0.177108
H30   H     H_    0.437362 0.382410 0.285700 0.144368
H31   H     H_    0.574402 0.705141 0.277443 0.162333
H32   H     H_    0.580641 0.613755 0.303895 0.169103
H33   H     H_    0.606749 0.647003 0.220045 0.155770
H34   H     H_    0.900219 0.600808 0.577177 0.115279
H35   H     H_    0.485261 0.688037 0.184697 0.133538
H36   H     H_    0.457401 0.650464 0.263769 0.184579
H37   H     H_    0.637972 0.953063 0.539136 0.153098
H38   H     H_    0.680734 0.869851 0.541058 0.200524
H39   H     H_    0.717563 0.946437 0.498991 0.142937
H40   H     H_    0.660406 0.876626 0.409481 0.191640
H41   H     H_    0.619141 0.957393 0.409032 0.124622
H42   H     H_    0.775262 0.589689 0.582417 0.164726
H43   H     H_    0.006283 0.580202 0.513323 0.134900
H44   H     H_    0.892305 0.456961 0.418953 0.107757
H45   H     H_    0.575046 0.232196 0.426444 0.131805
H46   H     H_    0.091853 0.467381 0.385891 0.121677
O1    O     O_3   0.500000 0.500000 0.500000 -0.455193
O2    O     O_R   0.467830 0.341070 0.546160 -0.547114
O3    O     O_R   0.450560 0.655630 0.450550 -0.547154
O4    O     O_R   0.545840 0.347670 0.467560 -0.553393
O5    O     O_R   0.535760 0.655640 0.535740 -0.490190
O6    O     O_R   0.545870 0.536170 0.656040 -0.498148
O7    O     O_R   0.450550 0.545430 0.340370 -0.557343
O8    O     O_R   0.347960 0.451240 0.536460 -0.506099
O9    O     O_R   0.655630 0.467150 0.467130 -0.553205
O10   O     O_R   0.340780 0.536140 0.450970 -0.548977
O11   O     O_R   0.655640 0.545460 0.545430 -0.506111
O12   O     O_R   0.467850 0.451260 0.656340 -0.530267
O13   O     O_R   0.535740 0.467130 0.347260 -0.557365
Zn1   Zn    Zn3+2 0.558310 0.558310 0.558290 1.024292
Zn2   Zn    Zn3+2 0.446830 0.436990 0.558720 0.974074
Zn3   Zn    Zn3+2 0.558290 0.446420 0.446420 0.923462
Zn4   Zn    Zn3+2 0.436570 0.558290 0.436570 0.933060

loop_
_geom_bond_atom_site_label_1
_geom_bond_atom_site_label_2
_ccdc_geom_bond_type
C29   C51   S    
C27   H4    S    
C8    H44   S    
C51   C52   S    
C22   C28   S    
O8    Zn2   S    
C52   H33   S    
C32   C38   A    
C46   H17   S    
C13   C47   S    
C35   C37   S    
C49   C50   S    
C52   H32   S    
C53   H40   S    
Br1   C42   S    
C32   C33   A    
C15   C17   A    
O9    Zn3   S    
C50   H28   S    
C6    C11   A    
C26   C27   A    
O1    Zn1   S    
Br2   C14   S    
C23   C34   A    
C19   H43   S    
C44   H19   S    
C9    C19   S    
C48   H22   S    
C30   C31   A    
C57   H1    S    
C31   C38   A    
O13   Zn3   S    
O5    Zn1   S    
C34   C41   A    
O3    Zn4   S    
C19   C20   D    
C27   C29   A    
C31   H2    S    
C39   O2    A    
C11   H42   S    
C20   H23   S    
O12   Zn2   S    
C12   C23   A    
C44   C46   S    
O4    Zn3   S    
C9    C10   A    
C14   C21   A    
C46   H16   S    
C47   H24   S    
C10   H34   S    
C4    O9    A    
C25   H7    S    
C34   H13   S    
C52   H31   S    
C53   H41   S    
C5    C39   S    
C47   C48   S    
C54   H38   S    
C50   H27   S    
C47   H25   S    
C3    H10   S    
C12   C43   A    
C15   C44   S    
O1    Zn2   S    
C37   H3    S    
C41   C42   A    
C55   H45   S    
C30   C35   A    
C56   C57   A    
C5    C55   A    
C48   H21   S    
C3    C58   S    
C49   H29   S    
C25   C26   A    
O2    Zn2   S    
C43   C53   S    
C22   C29   A    
C56   H8    S    
C7    C8    A    
C51   H35   S    
C49   H30   S    
C13   C14   A    
C26   C36   S    
C54   H39   S    
C48   H20   S    
C1    C21   S    
O1    Zn4   S    
C36   C37   D    
O10   Zn4   S    
C40   O5    A    
C33   H9    S    
C1    O8    A    
C45   H11   S    
C39   O4    A    
C46   H15   S    
C16   O12   A    
Br4   C23   S    
C40   C41   S    
O11   Zn1   S    
C42   C43   A    
C24   C25   A    
C45   C58   A    
C28   O13   A    
C54   H37   S    
C7    H12   S    
C45   C55   A    
C30   H5    S    
C16   C38   S    
C24   C49   S    
O1    Zn3   S    
C2    H14   S    
C2    C3    D    
C22   C24   A    
C13   C18   A    
O7    Zn4   S    
C1    O10   A    
C5    C56   A    
C44   H18   S    
C33   C35   A    
C50   H26   S    
C53   C54   S    
Br3   C32   S    
C51   H36   S    
C18   C20   S    
C28   O7    A    
C57   C58   A    
C15   C21   A    
C16   O6    A    
C17   H46   S    
C6    C7    A    
C2    C12   S    
O6    Zn1   S    
C40   O3    A    
C8    C9    A    
C4    C6    S    
C36   H6    S    
C10   C11   A    
C17   C18   A    
C4    O11   A    
