data_mof_unit_20120.cif
_audit_creation_date              2013-03-05T15:41:17-0500
_audit_creation_method            fapswitch 2.2
_symmetry_space_group_name_H-M    P1
_symmetry_Int_Tables_number       1
_space_group_crystal_system       triclinic
_cell_length_a                    16.676879
_cell_length_b                    16.879959
_cell_length_c                    16.901104
_cell_angle_alpha                 65.879741
_cell_angle_beta                  65.929049
_cell_angle_gamma                 65.937885
_cell_volume                      3795.24499413

loop_
_atom_site_label
_atom_site_type_symbol
_atom_site_description
_atom_site_fract_x
_atom_site_fract_y
_atom_site_fract_z
_atom_type_partial_charge
O1    O     O_R   0.982940 0.138950 0.510160 -0.648112
O2    O     O_R   0.017060 0.861050 0.489840 -0.633712
O3    O     O_R   0.138950 0.510160 0.982940 -0.649247
O4    O     O_R   0.861050 0.489840 0.017060 -0.644370
O5    O     O_R   0.510160 0.982940 0.138950 -0.648301
O6    O     O_R   0.489840 0.017060 0.861050 -0.655134
O7    O     O_R   0.489840 0.861050 0.017060 -0.646878
O8    O     O_R   0.510160 0.138950 0.982940 -0.650290
O9    O     O_R   0.017060 0.489840 0.861050 -0.652069
O10   O     O_R   0.982940 0.510160 0.138950 -0.630774
O11   O     O_R   0.861050 0.017060 0.489840 -0.648747
O12   O     O_R   0.138950 0.982940 0.510160 -0.649091
C1    C     C_R   0.326426 0.949473 0.459155 0.005294
C2    C     C_R   0.668858 0.065081 0.539328 -0.035017
C3    C     C_R   0.949263 0.460860 0.323172 0.006878
C4    C     C_R   0.016236 0.557506 0.678995 -0.043048
C5    C     C_R   0.462655 0.326939 0.939002 -0.003621
C6    C     C_R   0.563224 0.683403 0.004576 -0.044153
C7    C     C_R   0.538074 0.057304 0.674207 -0.006866
C8    C     C_R   0.433912 0.001163 0.314564 -0.043076
C9    C     C_R   0.674886 0.539236 0.049713 0.003292
C10   C     C_R   0.330005 0.460606 0.937081 -0.037525
C11   C     C_R   0.049551 0.677405 0.538271 0.001503
C12   C     C_R   0.998511 0.317058 0.432964 -0.046816
O13   O     O_R   0.867700 0.025880 0.612340 -0.543583
O14   O     O_R   0.132300 0.974120 0.387660 -0.600073
O15   O     O_R   0.025880 0.612340 0.867700 -0.562302
O16   O     O_R   0.974120 0.387660 0.132300 -0.597927
O17   O     O_R   0.612340 0.867700 0.025880 -0.552227
O18   O     O_R   0.387660 0.132300 0.974120 -0.603639
O19   O     O_R   0.387660 0.974120 0.132300 -0.551596
O20   O     O_R   0.612340 0.025880 0.867700 -0.600321
O21   O     O_R   0.132300 0.387660 0.974120 -0.546323
O22   O     O_R   0.867700 0.612340 0.025880 -0.599004
O23   O     O_R   0.974120 0.132300 0.387660 -0.567713
O24   O     O_R   0.025880 0.867700 0.612340 -0.594791
C13   C     C_R   0.976520 0.177513 0.431628 0.970969
C14   C     C_R   0.038158 0.820839 0.561619 0.909462
C15   C     C_R   0.179643 0.438208 0.961319 0.975627
C16   C     C_R   0.820401 0.560752 0.039663 0.893227
C17   C     C_R   0.431347 0.977132 0.177358 0.998079
C18   C     C_R   0.561968 0.038367 0.820495 0.907749
C19   C     C_R   0.568064 0.822036 0.024470 1.000190
C20   C     C_R   0.438202 0.179654 0.960957 0.901191
C21   C     C_R   0.026106 0.567087 0.821706 0.967335
C22   C     C_R   0.960980 0.438622 0.179212 0.905930
C23   C     C_R   0.820264 0.038594 0.561873 0.976528
C24   C     C_R   0.179666 0.960796 0.438862 0.890307
C25   C     C_R   0.403344 0.982044 0.409629 -0.018414
C26   C     C_R   0.581457 0.051720 0.585008 -0.016133
C27   C     C_R   0.979666 0.412281 0.400778 -0.019017
C28   C     C_R   0.028503 0.594685 0.584687 -0.016758
C29   C     C_R   0.418717 0.415096 0.947503 -0.016147
C30   C     C_R   0.596178 0.588610 0.020220 -0.019790
C31   C     C_R   0.279753 0.939428 0.410594 -0.246240
C32   C     C_R   0.719570 0.064681 0.590321 -0.176959
C33   C     C_R   0.939838 0.410735 0.278033 -0.248075
C34   C     C_R   0.034856 0.601015 0.724741 -0.168434
C35   C     C_R   0.410923 0.279344 0.934624 -0.242915
C36   C     C_R   0.603400 0.726048 0.030848 -0.174019
C37   C     C_R   0.589202 0.063513 0.721268 -0.240776
C38   C     C_R   0.394969 0.972796 0.272425 -0.175738
C39   C     C_R   0.720404 0.588005 0.061456 -0.246927
C40   C     C_R   0.280126 0.410156 0.934987 -0.178336
C41   C     C_R   0.058984 0.722110 0.588979 -0.247151
C42   C     C_R   0.971330 0.273384 0.394790 -0.166266
Zn1   Zn    Zn3+2 0.004880 0.004880 0.583590 0.960605
Zn2   Zn    Zn3+2 0.995120 0.995120 0.416410 0.949385
Zn3   Zn    Zn3+2 0.004880 0.583590 0.004880 0.952690
Zn4   Zn    Zn3+2 0.995120 0.416410 0.995120 0.955015
Zn5   Zn    Zn3+2 0.583590 0.004880 0.004880 0.956971
Zn6   Zn    Zn3+2 0.416410 0.995120 0.995120 0.953264
C43   C     C_R   0.442881 0.063921 0.710026 0.216722
C44   C     C_R   0.504771 0.044290 0.266685 0.178711
C45   C     C_R   0.060515 0.711764 0.442950 0.212330
C46   C     C_R   0.042520 0.270145 0.502885 0.198722
C47   C     C_R   0.705813 0.443556 0.064931 0.224532
C48   C     C_R   0.296441 0.555795 0.924590 0.175440
C49   C     C_R   0.299454 0.926930 0.555070 0.221873
C50   C     C_R   0.698991 0.086160 0.443426 0.183775
C51   C     C_R   0.559017 0.293219 0.926058 0.220922
C52   C     C_R   0.490174 0.731113 0.964605 0.195758
C53   C     C_R   0.929130 0.557329 0.293696 0.217784
C54   C     C_R   0.989565 0.476109 0.721607 0.181479
C55   C     C_R   0.324154 0.933645 0.323387 0.349210
C56   C     C_R   0.675145 0.077444 0.675052 0.335367
C57   C     C_R   0.933530 0.323397 0.323217 0.349576
C58   C     C_R   0.067171 0.676180 0.675749 0.342669
C59   C     C_R   0.324937 0.325686 0.920817 0.341267
C60   C     C_R   0.675134 0.675099 0.068548 0.346349
C61   C     C_R   0.660392 0.060431 0.399511 0.016662
C62   C     C_R   0.330039 0.962978 0.597280 0.008832
C63   C     C_R   0.014248 0.418450 0.668873 0.018776
C64   C     C_R   0.964172 0.599930 0.324994 0.014594
C65   C     C_R   0.430717 0.684361 0.976941 0.022888
C66   C     C_R   0.600705 0.326915 0.959743 0.006119
C67   C     C_R   0.564460 0.034051 0.312316 0.025066
C68   C     C_R   0.405457 0.025897 0.676829 0.010744
C69   C     C_R   0.334036 0.595558 0.955348 0.022174
C70   C     C_R   0.676633 0.404773 0.024239 0.010932
C71   C     C_R   0.029562 0.316678 0.562725 0.020915
C72   C     C_R   0.021464 0.680644 0.404337 0.013007
C73   C     C_R   0.703829 0.053132 0.309309 0.185527
C74   C     C_R   0.284495 0.970077 0.687185 0.179636
C75   C     C_R   0.031872 0.323279 0.704910 0.178133
C76   C     C_R   0.972595 0.689831 0.280459 0.186556
C77   C     C_R   0.336626 0.726676 0.982692 0.174405
C78   C     C_R   0.688887 0.280201 0.974875 0.188749
C79   C     C_R   0.656240 0.036045 0.267469 0.187672
C80   C     C_R   0.322638 0.001015 0.726908 0.186689
C81   C     C_R   0.287050 0.680621 0.973994 0.184686
C82   C     C_R   0.726858 0.319643 0.006486 0.191927
C83   C     C_R   0.037911 0.272198 0.652307 0.183676
C84   C     C_R   0.998596 0.730892 0.321622 0.188216
C85   C     C_R   0.530205 0.022673 0.405553 -0.035310
C86   C     C_R   0.450481 0.017356 0.588634 -0.041722
C87   C     C_R   0.012264 0.411371 0.529016 -0.040613
C88   C     C_R   0.009157 0.594048 0.448824 -0.042030
C89   C     C_R   0.421349 0.548140 0.969035 -0.039008
C90   C     C_R   0.594142 0.453421 0.000855 -0.046012
C91   C     C_R   0.576720 0.037765 0.449026 -0.041383
C92   C     C_R   0.409256 0.992944 0.547048 -0.047045
C93   C     C_R   0.467688 0.591851 0.983584 -0.035097
C94   C     C_R   0.553039 0.412369 0.975602 -0.044113
C95   C     C_R   0.014316 0.459646 0.578446 -0.035073
C96   C     C_R   0.988844 0.551077 0.406006 -0.043799
C97   C     C_R   0.447717 0.998853 0.454385 0.022707
C98   C     C_R   0.535742 0.036713 0.540448 0.024357
C99   C     C_R   0.993703 0.458352 0.445026 0.023430
C100  C     C_R   0.016936 0.549713 0.537226 0.024122
C101  C     C_R   0.464870 0.458943 0.962869 0.023133
C102  C     C_R   0.552552 0.544222 0.002016 0.023506
O25   O     O_3   0.295731 0.894836 0.285316 -0.732124
H1    H     H_    0.264727 0.850375 0.334742 0.327417
O26   O     O_3   0.718775 0.100332 0.712911 -0.729289
H2    H     H_    0.671604 0.145452 0.743830 0.328862
O27   O     O_3   0.895259 0.284390 0.295097 -0.749286
H3    H     H_    0.849882 0.333400 0.264631 0.326324
O28   O     O_3   0.102868 0.706394 0.715230 -0.745431
H4    H     H_    0.149393 0.735456 0.666543 0.326267
O29   O     O_3   0.281559 0.288157 0.897051 -0.731903
H5    H     H_    0.329129 0.254226 0.854413 0.329157
O30   O     O_3   0.703904 0.713392 0.106714 -0.733347
H6    H     H_    0.734505 0.663801 0.151268 0.327589
C103  C     C_3   0.278749 0.998851 0.825448 -0.923401
H7    H     H_    0.252730 0.939232 0.864167 0.254392
H8    H     H_    0.328100 0.990213 0.858318 0.243503
H9    H     H_    0.221351 0.061505 0.831951 0.242420
C104  C     C_3   0.707083 0.005732 0.182746 -0.913075
H10   H     H_    0.765678 0.944421 0.194925 0.238707
H11   H     H_    0.664986 0.985550 0.161902 0.260461
H12   H     H_    0.732518 0.060681 0.127091 0.243713
C105  C     C_3   0.988562 0.831651 0.284071 -0.915027
H13   H     H_    0.929918 0.868407 0.255036 0.246835
H14   H     H_    0.971826 0.861778 0.338232 0.251976
H15   H     H_    0.052377 0.844056 0.230857 0.240514
C106  C     C_3   0.047123 0.172203 0.694179 -0.924372
H16   H     H_    0.017427 0.153718 0.768832 0.245607
H17   H     H_    0.008940 0.150882 0.669610 0.254609
H18   H     H_    0.121036 0.134897 0.677200 0.254981
C107  C     C_3   0.825671 0.276672 0.008732 -0.920864
H19   H     H_    0.868347 0.249916 0.950083 0.236920
H20   H     H_    0.857604 0.326304 0.000983 0.247449
H21   H     H_    0.830043 0.221019 0.072486 0.245530
C108  C     C_3   0.183383 0.715299 0.997935 -0.917975
H22   H     H_    0.155110 0.733172 0.062192 0.248118
H23   H     H_    0.161824 0.775671 0.942916 0.238995
H24   H     H_    0.151833 0.662737 0.012003 0.252319
C109  C     C_3   0.191075 0.953199 0.737803 -0.925716
H25   H     H_    0.148852 0.990678 0.788797 0.246660
H26   H     H_    0.149321 0.978702 0.690779 0.247844
H27   H     H_    0.199347 0.879935 0.773313 0.250667
C110  C     C_3   0.802405 0.056209 0.261147 -0.906139
H28   H     H_    0.837367 0.026378 0.204174 0.239433
H29   H     H_    0.804350 0.127520 0.231913 0.241147
H30   H     H_    0.844509 0.017096 0.309002 0.247508
C111  C     C_3   0.740553 0.186531 0.962088 -0.914518
H31   H     H_    0.794687 0.148126 0.996654 0.239246
H32   H     H_    0.693089 0.144401 0.991336 0.239714
H33   H     H_    0.775215 0.192067 0.889219 0.251490
C112  C     C_3   0.285950 0.806091 0.022243 -0.886988
H34   H     H_    0.266812 0.779256 0.097266 0.244589
H35   H     H_    0.327645 0.851653 0.001967 0.250272
H36   H     H_    0.222162 0.848135 0.002715 0.233968
C113  C     C_3   0.964533 0.738349 0.184963 -0.912632
H37   H     H_    0.003264 0.789121 0.147458 0.241998
H38   H     H_    0.995143 0.689664 0.144665 0.248436
H39   H     H_    0.891649 0.774203 0.186660 0.247765
C114  C     C_3   0.058083 0.274896 0.792472 -0.892906
H40   H     H_    0.123950 0.220606 0.781582 0.244438
H41   H     H_    0.069228 0.320283 0.816919 0.261647
H42   H     H_    0.004456 0.244372 0.846019 0.227341
C115  C     C_3   0.379168 0.142812 0.748155 -0.861768
H43   H     H_    0.351206 0.121179 0.822700 0.264202
H44   H     H_    0.415480 0.193147 0.729646 0.211542
H45   H     H_    0.320555 0.179109 0.718834 0.237644
C116  C     C_3   0.495712 0.126514 0.184451 -0.802875
H46   H     H_    0.554798 0.116603 0.124152 0.262225
H47   H     H_    0.431320 0.143687 0.168280 0.222049
H48   H     H_    0.492745 0.186597 0.198537 0.218800
C117  C     C_3   0.139288 0.751828 0.380971 -0.841856
H49   H     H_    0.115600 0.825604 0.348615 0.266671
H50   H     H_    0.185998 0.739787 0.418960 0.206418
H51   H     H_    0.180913 0.718110 0.326625 0.232026
C118  C     C_3   0.128983 0.191628 0.489267 -0.824689
H52   H     H_    0.120510 0.126783 0.540458 0.268864
H53   H     H_    0.150002 0.183024 0.421175 0.222374
H54   H     H_    0.186771 0.205009 0.493641 0.225018
C119  C     C_3   0.740708 0.383587 0.146718 -0.887879
H55   H     H_    0.816368 0.357472 0.128625 0.267547
H56   H     H_    0.717402 0.421363 0.196467 0.215539
H57   H     H_    0.712339 0.324785 0.182097 0.235338
C120  C     C_3   0.249392 0.616624 0.850842 -0.785196
H58   H     H_    0.253824 0.577715 0.809018 0.230761
H59   H     H_    0.176138 0.651126 0.877969 0.274777
H60   H     H_    0.284388 0.669484 0.804149 0.215035
C121  C     C_3   0.265317 0.843961 0.608977 -0.889782
H61   H     H_    0.190019 0.862483 0.638805 0.267604
H62   H     H_    0.283678 0.800655 0.565723 0.214033
H63   H     H_    0.298848 0.801073 0.663533 0.236586
C122  C     C_3   0.743847 0.162360 0.390434 -0.808888
H64   H     H_    0.734730 0.201303 0.434431 0.227967
H65   H     H_    0.818336 0.137020 0.358896 0.287888
H66   H     H_    0.710588 0.211860 0.337117 0.222375
C123  C     C_3   0.616517 0.253665 0.847482 -0.873229
H67   H     H_    0.646642 0.179478 0.870913 0.267577
H68   H     H_    0.574845 0.267532 0.803572 0.208887
H69   H     H_    0.672104 0.286226 0.803472 0.239207
C124  C     C_3   0.502527 0.808520 0.878073 -0.821696
H70   H     H_    0.449304 0.872401 0.886098 0.259342
H71   H     H_    0.570793 0.819225 0.856056 0.222621
H72   H     H_    0.498304 0.793210 0.822109 0.223721
C125  C     C_3   0.848018 0.612861 0.255941 -0.869162
H73   H     H_    0.869865 0.644103 0.181868 0.269296
H74   H     H_    0.804730 0.570294 0.270336 0.207642
H75   H     H_    0.803149 0.667071 0.289276 0.241136
C126  C     C_3   0.902841 0.472603 0.800313 -0.786810
H76   H     H_    0.917547 0.415404 0.859943 0.253443
H77   H     H_    0.869941 0.536857 0.819220 0.230726
H78   H     H_    0.851630 0.462848 0.781544 0.218942

loop_
_geom_bond_atom_site_label_1
_geom_bond_atom_site_label_2
_geom_bond_distance
_ccdc_geom_bond_type
C24   C31   1.464162 S    
C2    C32   1.429415 A    
C1    C49   1.419714 A    
O9    C21   1.238983 A    
C108  H22   1.107631 S    
C68   C80   1.424536 A    
C43   C115  1.518751 S    
C93   C102  1.404817 A    
C116  H48   1.111081 S    
C71   C83   1.425860 A    
C109  H25   1.107333 S    
O11   C23   1.249603 A    
C54   C126  1.516846 S    
O13   Zn1   2.041612 S    
C4    C54   1.425693 A    
O12   C24   1.243612 A    
C1    C31   1.432023 A    
C89   C93   1.403681 A    
C119  H57   1.110701 S    
O4    Zn4   2.027901 S    
C107  H19   1.105143 S    
C27   C99   1.409059 A    
O24   Zn1   2.068488 S    
O26   H2    0.986584 S    
O19   C17   1.275848 A    
C112  H34   1.110458 S    
C46   C118  1.519518 S    
C121  H63   1.109909 S    
O6    Zn6   2.047350 S    
C82   C107  1.515564 S    
C120  H60   1.110393 S    
O16   C22   1.295636 A    
O21   C15   1.287380 A    
C16   C39   1.462929 S    
C51   C123  1.514166 S    
C76   C84   1.427483 A    
O22   C16   1.295838 A    
C40   C59   1.383138 A    
C75   C83   1.423622 A    
O3    Zn3   2.027901 S    
C123  H67   1.105157 S    
C86   C92   1.413636 A    
C122  H66   1.110065 S    
O2    Zn2   2.048259 S    
C104  H11   1.108114 S    
C9    C30   1.402906 A    
C49   C121  1.516503 S    
C20   C35   1.471567 S    
O30   H6    0.988999 S    
C73   C110  1.520294 S    
C123  H69   1.110672 S    
C85   C97   1.410273 A    
C47   C70   1.427980 A    
C116  H47   1.110270 S    
C35   C59   1.389870 A    
C92   C97   1.406806 A    
C114  H41   1.108907 S    
C63   C75   1.414015 A    
C50   C122  1.520777 S    
C32   C56   1.379334 A    
C95   C100  1.400829 A    
C106  H16   1.108639 S    
C64   C76   1.429397 A    
O4    C16   1.240595 A    
C115  H44   1.111005 S    
O10   C22   1.241418 A    
C45   C72   1.425400 A    
C89   C101  1.407122 A    
C44   C116  1.518078 S    
C81   C108  1.514255 S    
O7    C19   1.231454 A    
C67   C85   1.397925 A    
C80   C103  1.512759 S    
C87   C99   1.406401 A    
C125  H73   1.105970 S    
O13   C23   1.289085 A    
C84   C105  1.515207 S    
C60   O30   1.382109 S    
C72   C88   1.401661 A    
C47   C119  1.518637 S    
O15   C21   1.291650 A    
C12   C27   1.411095 A    
C64   C96   1.408565 A    
C66   C78   1.430461 A    
O3    C15   1.248001 A    
C106  H17   1.110021 S    
C122  H65   1.105965 S    
O5    Zn5   2.047350 S    
C126  H76   1.105125 S    
O17   C19   1.278046 A    
C3    C33   1.434035 A    
O18   C20   1.284520 A    
C116  H46   1.106036 S    
C17   C38   1.449124 S    
C57   O27   1.382983 S    
C8    C25   1.409875 A    
C6    C52   1.419753 A    
C48   C120  1.522596 S    
C107  H21   1.108956 S    
C107  H20   1.104489 S    
C103  H7    1.102488 S    
O20   Zn5   2.071481 S    
C118  H53   1.111031 S    
C45   C117  1.517684 S    
C43   C68   1.422303 A    
C25   C97   1.415475 A    
C38   C55   1.383746 A    
C21   C34   1.463214 S    
C74   C109  1.521781 S    
C15   C40   1.465345 S    
C103  H8    1.102798 S    
C53   C125  1.515547 S    
C7    C43   1.423335 A    
O9    Zn4   2.050045 S    
C10   C48   1.423169 A    
C91   C98   1.407445 A    
C4    C28   1.413301 A    
C104  H12   1.098786 S    
C61   C73   1.429669 A    
C42   C57   1.388088 A    
C51   C66   1.428614 A    
C66   C94   1.411237 A    
C12   C46   1.425122 A    
C113  H39   1.109223 S    
C3    C53   1.428334 A    
O12   Zn1   2.028142 S    
C96   C99   1.409911 A    
C111  H32   1.108676 S    
C121  H61   1.105008 S    
C110  H28   1.104359 S    
C53   C64   1.429744 A    
C10   C40   1.429926 A    
C78   C82   1.428351 A    
C94   C101  1.415492 A    
C34   C58   1.385923 A    
O14   Zn2   2.041612 S    
C31   C55   1.377896 A    
C114  H42   1.103980 S    
C79   C104  1.511874 S    
C58   O28   1.381861 S    
C124  H70   1.099928 S    
C88   C100  1.405090 A    
C62   C92   1.414541 A    
C122  H64   1.110829 S    
C67   C79   1.411803 A    
O2    C14   1.239624 A    
C68   C86   1.407417 A    
C3    C27   1.405080 A    
O22   Zn3   2.041639 S    
C14   C41   1.463216 S    
C120  H58   1.110746 S    
C48   C69   1.417044 A    
C111  H33   1.108543 S    
C69   C81   1.423359 A    
C13   C42   1.456119 S    
C119  H55   1.105340 S    
C8    C44   1.421700 A    
C4    C34   1.442040 A    
C105  H15   1.110105 S    
C72   C84   1.421702 A    
C125  H74   1.110621 S    
C18   C37   1.467313 S    
C49   C62   1.429713 A    
C110  H29   1.107611 S    
C65   C77   1.414287 A    
O21   Zn4   2.041641 S    
C5    C35   1.435644 A    
C70   C90   1.407153 A    
C10   C29   1.408935 A    
C19   C36   1.454184 S    
C118  H52   1.104092 S    
C6    C36   1.435785 A    
O19   Zn6   2.071482 S    
C52   C124  1.516737 S    
C77   C112  1.518488 S    
C70   C82   1.422124 A    
C106  H18   1.106559 S    
C36   C60   1.382642 A    
C2    C50   1.419971 A    
C126  H77   1.111081 S    
C22   C33   1.465539 S    
C86   C98   1.417230 A    
O25   H1    0.990010 S    
C117  H51   1.111055 S    
C1    C25   1.404094 A    
C105  H14   1.109389 S    
C117  H50   1.110211 S    
C5    C29   1.404165 A    
O7    Zn6   2.045324 S    
C103  H9    1.109283 S    
O11   Zn2   2.028142 S    
C41   C58   1.384955 A    
C109  H26   1.108683 S    
C118  H54   1.111073 S    
C65   C93   1.399744 A    
C46   C71   1.420929 A    
O5    C17   1.231089 A    
C119  H56   1.110932 S    
O8    Zn5   2.045323 S    
C52   C65   1.408709 A    
C112  H36   1.106149 S    
O23   C13   1.284129 A    
C90   C102  1.406157 A    
C77   C81   1.423428 A    
O16   Zn4   2.071282 S    
C29   C101  1.411510 A    
O8    C20   1.238107 A    
C76   C113  1.516783 S    
C11   C45   1.431007 A    
O15   Zn3   2.071282 S    
O18   Zn6   2.068717 S    
O28   H4    0.989657 S    
O14   C24   1.295013 A    
C110  H30   1.109913 S    
C108  H24   1.107596 S    
O1    Zn1   2.048259 S    
O1    C13   1.244904 A    
C121  H62   1.110946 S    
C30   C102  1.414528 A    
O27   H3    0.990660 S    
C113  H37   1.107669 S    
C117  H49   1.106529 S    
C6    C30   1.409937 A    
C73   C79   1.422778 A    
C28   C100  1.414304 A    
C11   C41   1.436672 A    
C50   C61   1.426535 A    
O24   C14   1.296703 A    
C120  H59   1.105875 S    
C71   C87   1.405886 A    
C124  H71   1.111058 S    
C104  H10   1.110678 S    
C115  H45   1.111337 S    
C74   C80   1.426134 A    
C7    C26   1.405669 A    
C11   C28   1.402886 A    
C2    C26   1.406841 A    
O23   Zn2   2.068487 S    
C7    C37   1.436960 A    
C59   O29   1.380088 S    
C39   C60   1.382310 A    
C123  H68   1.111136 S    
C75   C114  1.515554 S    
C78   C111  1.518411 S    
C5    C51   1.422477 A    
C54   C63   1.412123 A    
C8    C38   1.437993 A    
C114  H40   1.110115 S    
C125  H75   1.110757 S    
C63   C95   1.396392 A    
C9    C39   1.435020 A    
C113  H38   1.109764 S    
C37   C56   1.389645 A    
C62   C74   1.425926 A    
C69   C89   1.409780 A    
C124  H72   1.111453 S    
O10   Zn3   2.050045 S    
C33   C57   1.381473 A    
C56   O26   1.378107 S    
C112  H35   1.103957 S    
C26   C98   1.412209 A    
C12   C42   1.437029 A    
C108  H23   1.109915 S    
C111  H31   1.104558 S    
C61   C91   1.419472 A    
C126  H78   1.111512 S    
C9    C47   1.424815 A    
C85   C91   1.409099 A    
O20   C18   1.285111 A    
C23   C32   1.468488 S    
C109  H27   1.109246 S    
C88   C96   1.412057 A    
C83   C106  1.508117 S    
C105  H13   1.109086 S    
O29   H5    0.988527 S    
C87   C95   1.402001 A    
C44   C67   1.411563 A    
C90   C94   1.414198 A    
C55   O25   1.383593 S    
C115  H43   1.105312 S    
O17   Zn5   2.068715 S    
O6    C18   1.234831 A    
