data_mof_unit_68447.cif
_audit_creation_date              2013-03-05T15:58:41-0500
_audit_creation_method            fapswitch 2.2
_symmetry_space_group_name_H-M    P1
_symmetry_Int_Tables_number       1
_space_group_crystal_system       triclinic
_cell_length_a                    8.291958
_cell_length_b                    12.864119
_cell_length_c                    15.207423
_cell_angle_alpha                 96.34957
_cell_angle_beta                  98.458333
_cell_angle_gamma                 97.985536
_cell_volume                      1574.67373614

loop_
_atom_site_label
_atom_site_type_symbol
_atom_site_description
_atom_site_fract_x
_atom_site_fract_y
_atom_site_fract_z
_atom_type_partial_charge
P1    P     P_3+3 0.998770 0.403620 0.291990 0.458972
O1    O     O_2   0.827930 0.435360 0.277760 -0.396174
O2    O     O_3   0.100310 0.439010 0.391180 -0.366401
O3    O     O_3   0.625610 0.634200 0.333270 -0.348251
O4    O     O_2   0.669435 0.536914 0.181904 -0.412459
O5    O     O_3   0.994706 0.267497 0.259947 -0.619725
O6    O     O_3   0.663973 0.737499 0.182585 -0.517582
H1    H     H_    0.648420 0.876154 0.258296 0.091952
C1    C     C_3   0.547475 0.876594 0.118337 -1.146571
H2    H     H_    0.528355 0.958125 0.137794 0.240490
H3    H     H_    0.655956 0.880177 0.083287 0.281056
P2    P     P_3+3 0.687370 0.751000 0.571300 0.441777
P3    P     P_3+3 0.100646 0.825416 0.373639 0.423892
O7    O     O_2   0.857120 0.766320 0.543890 -0.377765
O8    O     O_3   0.056570 0.691100 0.379020 -0.390025
O9    O     O_2   0.983147 0.876125 0.429556 -0.373674
O10   O     O_3   0.734414 0.779045 0.687644 -0.595057
O11   O     O_3   0.021610 0.837947 0.262170 -0.529978
C2    C     C_3   0.046388 0.749656 0.204873 0.573764
H4    H     H_    0.963361 0.677666 0.214155 0.159868
H5    H     H_    0.176274 0.736377 0.218456 -0.011283
C3    C     C_3   0.007779 0.767498 0.106663 -1.075660
H6    H     H_    0.881475 0.786047 0.090263 0.294148
H7    H     H_    0.095628 0.831949 0.089998 0.262876
C4    C     C_3   0.258663 0.773363 0.647897 0.421158
H8    H     H_    0.351584 0.734836 0.616231 0.090445
H9    H     H_    0.140834 0.760927 0.600613 0.144767
C5    C     C_3   0.320621 0.890805 0.670158 -0.980684
H10   H     H_    0.446806 0.899547 0.709561 0.249334
H11   H     H_    0.324535 0.928092 0.607934 0.248382
H12   H     H_    0.239096 0.930134 0.711112 0.287701
Ba1   Ba    Ba6+2 0.843760 0.550230 0.455610 1.532145
C6    C     C_3   0.843700 0.202715 0.257389 0.601534
H13   H     H_    0.740818 0.241262 0.229315 0.057628
C7    C     C_3   0.834563 0.093995 0.198334 -0.629405
H14   H     H_    0.732915 0.086970 0.142478 0.187138
H15   H     H_    0.799639 0.027747 0.236005 0.207398
C8    C     C_3   0.772662 0.688948 0.724587 0.474726
H16   H     H_    0.866016 0.653741 0.691082 0.097614
H17   H     H_    0.659982 0.629459 0.718620 0.131191
C9    C     C_3   0.842534 0.722351 0.823261 -1.088143
H18   H     H_    0.966628 0.770266 0.829519 0.286197
H19   H     H_    0.854993 0.652911 0.858578 0.235518
H20   H     H_    0.759109 0.768922 0.855872 0.274963
P4    P     P_3+3 0.190950 0.596470 0.708020 0.448886
O12   O     O_2   0.361790 0.564680 0.722290 -0.375363
O13   O     O_3   0.089410 0.561080 0.608830 -0.411748
O14   O     O_3   0.564100 0.365890 0.666740 -0.337981
O15   O     O_3   0.236213 0.734212 0.728077 -0.568392
P5    P     P_3+3 0.081580 0.172549 0.628614 0.430529
O16   O     O_3   0.601940 0.368260 0.453780 -0.390122
O17   O     O_3   0.133140 0.308990 0.620990 -0.398429
O18   O     O_2   0.198550 0.116940 0.575421 -0.356391
O19   O     O_3   0.147607 0.154114 0.739711 -0.536781
Ba2   Ba    Ba6+2 0.346080 0.449860 0.544400 1.539910
P6    P     P_3+3 0.573091 0.621890 0.217209 0.418324
C10   C     C_3   0.574513 0.820273 0.201215 0.515430
H21   H     H_    0.452518 0.795558 0.220826 0.011712
H22   H     H_    0.435737 0.836457 0.071254 0.270785
O20   O     O_3   0.587770 0.631830 0.546230 -0.411870
C11   C     C_3   0.434231 0.310895 0.279528 0.360895
H23   H     H_    0.352559 0.351427 0.318934 0.108377
H24   H     H_    0.552861 0.364045 0.286298 0.142178
C12   C     C_3   0.352007 0.296329 0.180912 -0.602405
H25   H     H_    0.218118 0.272137 0.175348 0.214384
H26   H     H_    0.365819 0.373815 0.155741 0.186771
P7    P     P_3+3 0.506208 0.234863 0.426897 0.407515
O21   O     O_2   0.332600 0.233710 0.456170 -0.373584
O22   O     O_3   0.461579 0.213715 0.309992 -0.634026
H27   H     H_    0.018575 0.695955 0.062129 0.238598
C13   C     C_3   0.152139 0.250656 0.793922 0.563148
H28   H     H_    0.242968 0.312419 0.776127 0.187345
H29   H     H_    0.029982 0.276883 0.786198 -0.031347
C14   C     C_3   0.205262 0.240019 0.891559 -1.050593
H30   H     H_    0.235121 0.319840 0.931457 0.231692
H31   H     H_    0.104676 0.194414 0.917535 0.250008
H32   H     H_    0.314213 0.198910 0.898844 0.305289
P8    P     P_3+3 0.612774 0.379441 0.780980 0.434692
C15   C     C_3   0.701139 0.199590 0.794958 0.318513
H33   H     H_    0.796668 0.227291 0.855148 0.048677
O23   O     O_2   0.484476 0.439423 0.819656 -0.408120
O24   O     O_3   0.563164 0.250097 0.802721 -0.523441
H34   H     H_    0.754498 0.216420 0.734171 0.064053
C16   C     C_3   0.647699 0.080369 0.786482 -0.507987
H35   H     H_    0.591330 0.055356 0.715213 0.208314
H36   H     H_    0.551991 0.059886 0.828497 0.232010
C17   C     C_R   0.350321 0.578058 0.174092 0.142700
H37   H     H_    0.311235 0.548277 0.306623 0.173248
H38   H     H_    0.482964 0.667008 0.041486 0.201318
C18   C     C_R   0.103699 0.475997 0.208531 0.306106
C19   C     C_R   0.931446 0.472942 0.766051 -0.522492
C20   C     C_R   0.829525 0.439525 0.825614 0.138726
C21   C     C_R   0.887429 0.455066 0.918509 -0.012711
C22   C     C_R   0.052693 0.500348 0.954199 0.019677
C23   C     C_R   0.149299 0.546413 0.892358 -0.022383
C24   C     C_R   0.120888 0.508301 0.049744 0.064653
C25   C     C_R   0.279440 0.569156 0.081386 0.029752
C26   C     C_R   0.363445 0.619765 0.019965 -0.282920
C27   C     C_R   0.302107 0.607651 0.928245 -0.100502
C28   C     C_R   0.041257 0.456292 0.115119 -0.321959
C29   C     C_R   0.256932 0.538795 0.236454 -0.504140
C30   C     C_R   0.086985 0.532696 0.796848 0.244660
H39   H     H_    0.935186 0.395509 0.095943 0.164647
H40   H     H_    0.883023 0.459808 0.694980 0.177873
H41   H     H_    0.376855 0.647471 0.885700 0.170597
C31   C     C_R   0.755093 0.180363 0.548191 -0.400804
C32   C     C_R   0.422829 0.810485 0.460325 -0.467795
C33   C     C_R   0.384953 0.986876 0.431689 -0.243423
C34   C     C_R   0.322396 0.878549 0.422461 0.186654
C35   C     C_R   0.578741 0.848900 0.513042 0.289691
C36   C     C_R   0.642048 0.959955 0.523965 -0.041392
C37   C     C_R   0.543907 0.029062 0.481154 -0.049776
C38   C     C_R   0.606010 0.139397 0.491284 0.279712
C39   C     C_R   0.859471 0.114029 0.584171 0.147330
C40   C     C_R   0.801051 0.004228 0.574158 -0.218628
H42   H     H_    0.305415 0.038180 0.403266 0.172185
H43   H     H_    0.882556 0.954732 0.604166 0.188903
H44   H     H_    0.799460 0.264636 0.556186 0.161787
H45   H     H_    0.374398 0.726917 0.453381 0.165484
N1    N     N_2   0.822479 0.183319 0.346684 -0.133770
H46   H     H_    0.721594 0.126839 0.346428 0.113353
C41   C     C_3   0.966967 0.167013 0.405564 -0.714783
H47   H     H_    0.946629 0.088267 0.428647 0.223276
H48   H     H_    0.998671 0.233819 0.460212 0.272124
H49   H     H_    0.075168 0.168436 0.373409 0.249055
C42   C     C_3   0.986563 0.069860 0.157862 -0.267775
C43   C     C_3   0.131044 0.061238 0.230244 -0.078767
C44   C     C_3   0.264522 0.005022 0.196567 -1.007951
H50   H     H_    0.251901 0.922362 0.208418 0.280751
H51   H     H_    0.266034 0.009102 0.124331 0.258333
H52   H     H_    0.386177 0.038061 0.236957 0.267532
H53   H     H_    0.187848 0.141437 0.259047 0.237935
H54   H     H_    0.086595 0.022131 0.284982 0.218474
H55   H     H_    0.950485 0.992636 0.114087 0.220492
H56   H     H_    0.022138 0.130715 0.115007 0.174048
C45   C     C_3   0.418571 0.216676 0.119599 -0.274537
C46   C     C_3   0.544181 0.271148 0.070310 -0.236901
C47   C     C_3   0.621037 0.189575 0.016842 -1.079974
H57   H     H_    0.757060 0.204310 0.038365 0.258376
H58   H     H_    0.568799 0.106302 0.021442 0.274601
H59   H     H_    0.593111 0.197507 0.945975 0.301062
H60   H     H_    0.480581 0.319854 0.025040 0.211673
H61   H     H_    0.641831 0.325889 0.117847 0.229511
H62   H     H_    0.477388 0.159646 0.157144 0.229653
H63   H     H_    0.314524 0.172012 0.069084 0.196670
C48   C     C_3   0.792272 0.020168 0.808944 -0.398841
C49   C     C_3   0.850200 0.023962 0.910040 -0.224848
C50   C     C_3   0.009280 0.976368 0.929922 -0.923601
H64   H     H_    0.981419 0.897891 0.952597 0.264834
H65   H     H_    0.073173 0.968054 0.870800 0.291801
H66   H     H_    0.096768 0.027872 0.984709 0.234571
H67   H     H_    0.873286 0.106546 0.942793 0.192789
H68   H     H_    0.751360 0.980474 0.940251 0.199360
H69   H     H_    0.749983 0.936639 0.781363 0.261105
H70   H     H_    0.895479 0.050455 0.775365 0.236204
N2    N     N_2   0.770601 0.438703 0.975764 -0.123133
H71   H     H_    0.687778 0.370994 0.955091 0.210143
C51   C     C_3   0.693342 0.529514 0.996809 -0.768455
H72   H     H_    0.579562 0.501833 0.022381 0.254417
H73   H     H_    0.660132 0.569438 0.937247 0.243337
H74   H     H_    0.777156 0.587132 0.048306 0.273826

loop_
_geom_bond_atom_site_label_1
_geom_bond_atom_site_label_2
_geom_bond_distance
_ccdc_geom_bond_type
O14   Ba2   2.809635 S    
C8    H17   1.108106 S    
C46   H60   1.106830 S    
C12   C45   1.523541 S    
C21   C22   1.414661 A    
P2    Ba1   3.470462 S    
C11   C12   1.533168 S    
C32   C34   1.401710 A    
C9    H18   1.108957 S    
O4    P6    1.536376 D    
C2    H4    1.109912 S    
C50   H66   1.107233 S    
C19   H40   1.082141 S    
C44   H50   1.091408 S    
P2    C35   1.873381 S    
C39   C40   1.411943 A    
O8    Ba1   2.817343 S    
C18   C29   1.388370 A    
P4    O12   1.520276 D    
C4    C5    1.510324 S    
P5    O19   1.750146 S    
C14   H31   1.099141 S    
P3    O11   1.758410 S    
C31   C39   1.394928 A    
C5    H10   1.111062 S    
C7    H15   1.107508 S    
C50   H65   1.111349 S    
O11   C2    1.410702 S    
C8    H16   1.107410 S    
C23   C27   1.395726 A    
C25   C26   1.407629 A    
C33   C34   1.401854 A    
O1    Ba1   2.910940 S    
P1    O1    1.519988 D    
O14   P8    1.708405 S    
C11   H24   1.101576 S    
C43   H53   1.087397 S    
P3    C34   1.880516 S    
C51   H74   1.101848 S    
C6    C7    1.562384 S    
C17   C29   1.402673 A    
O2    Ba2   2.837953 S    
C48   H70   1.106744 S    
C49   C50   1.534357 S    
C40   H43   1.078669 S    
C14   H32   1.106509 S    
O12   Ba2   2.911370 S    
P5    O17   1.768620 S    
P5    C39   1.884542 S    
C1    H2    1.097316 S    
Ba1   Ba2   4.589635 S    
O16   Ba2   2.942969 S    
C45   H63   1.110981 S    
O17   Ba2   2.817986 S    
C11   H23   1.112648 S    
C46   H61   1.109456 S    
Ba2   O20   2.857022 S    
O3    P6    1.738621 S    
C51   H73   1.108553 S    
C9    H19   1.101146 S    
C22   C23   1.445772 A    
O6    P6    1.742266 S    
C18   C28   1.420503 A    
C37   C38   1.424336 A    
N1    C41   1.441170 S    
Ba2   O21   2.930653 S    
P4    O13   1.599843 S    
C27   H41   1.080850 S    
P5    O18   1.549972 D    
C14   H30   1.109589 S    
O19   C13   1.405311 S    
C31   C38   1.399362 A    
P7    O21   1.566764 D    
C2    C3    1.530145 S    
C50   H64   1.107741 S    
C8    C9    1.518050 S    
P4    C30   1.905841 S    
C19   C20   1.389194 A    
C13   H29   1.105601 S    
P6    C17   1.852712 S    
P8    C20   1.851350 S    
C4    H8    1.110703 S    
C28   H39   1.073804 S    
C35   C36   1.434434 A    
P1    O2    1.599842 S    
C7    H14   1.091489 S    
C12   H26   1.104003 S    
P2    O10   1.740510 S    
C7    C42   1.535721 S    
C5    H12   1.118044 S    
Ba1   O16   2.857656 S    
H1    C10   1.108565 S    
C15   O24   1.405102 S    
P8    O24   1.737408 S    
C48   H69   1.098107 S    
P4    O15   1.742304 S    
C24   C25   1.420365 A    
C6    H13   1.101438 S    
O16   P7    1.764339 S    
C16   H35   1.108483 S    
C22   C24   1.466545 A    
C1    H3    1.109205 S    
P4    Ba2   3.461307 S    
O3    Ba1   2.810280 S    
C47   H58   1.112032 S    
P2    O7    1.519052 D    
C42   H56   1.108981 S    
P3    O8    1.729266 S    
C51   H72   1.101525 S    
Ba1   O13   2.837364 S    
C3    H7    1.102381 S    
Ba1   O20   2.943874 S    
C19   C30   1.393133 A    
C41   H48   1.101499 S    
C43   C44   1.522327 S    
P1    C18   1.896289 S    
N1    H46   1.028218 S    
O13   Ba2   2.947228 S    
C48   C49   1.535050 S    
C11   O22   1.415929 S    
N2    H71   1.019244 S    
C36   C37   1.431640 A    
C2    H5    1.106916 S    
C21   N2    1.404591 S    
H37   C29   1.082093 S    
C43   H54   1.101466 S    
O7    Ba1   2.930385 S    
C45   C46   1.510214 S    
C47   H59   1.087628 S    
C44   H51   1.107372 S    
C13   C14   1.512171 S    
C23   C30   1.450850 A    
C16   C48   1.532817 S    
C4    H9    1.105299 S    
C46   C47   1.522496 S    
C32   H45   1.081926 S    
O5    C6    1.397291 S    
H38   C26   1.073257 S    
C32   C35   1.410058 A    
C12   H25   1.098687 S    
C33   H42   1.075889 S    
C41   H49   1.082080 S    
C5    H11   1.109799 S    
C49   H67   1.100806 S    
P7    C38   1.860579 S    
C13   H28   1.101364 S    
C45   H62   1.101019 S    
C15   H34   1.111370 S    
P8    O23   1.544309 D    
C10   H21   1.110718 S    
C15   C16   1.521774 S    
C42   C43   1.528137 S    
C24   C28   1.445520 A    
N2    C51   1.436343 S    
C20   C21   1.406255 A    
C9    H20   1.110742 S    
C3    H27   1.102987 S    
C1    C10   1.525671 S    
O10   C8    1.397596 S    
P1    Ba1   3.460759 S    
O2    Ba1   2.946397 S    
C49   H68   1.111738 S    
C4    O15   1.397011 S    
C47   H57   1.110620 S    
C15   H33   1.108340 S    
P2    O20   1.613657 S    
C33   C37   1.420168 A    
C42   H55   1.109997 S    
C6    N1    1.438839 S    
C26   C27   1.396321 A    
P3    O9    1.547741 D    
P1    O5    1.759255 S    
C3    H6    1.105327 S    
C16   H36   1.111661 S    
C36   C40   1.429849 A    
P7    O22   1.744456 S    
C41   H47   1.107448 S    
C1    H22   1.108095 S    
C44   H52   1.102896 S    
O6    C10   1.406740 S    
C31   H44   1.082716 S    
C17   C25   1.431075 A    
