data_mof_unit_65234.cif
_audit_creation_date              2012-12-10T17:28:55-0500
_audit_creation_method            fapswitch 2.2
_symmetry_space_group_name_H-M    P1
_symmetry_Int_Tables_number       1
_space_group_crystal_system       triclinic
_cell_length_a                    18.570862
_cell_length_b                    18.631897
_cell_length_c                    18.681851
_cell_angle_alpha                 109.392263
_cell_angle_beta                  109.322514
_cell_angle_gamma                 109.249759
_cell_volume                      5003.46326873

loop_
_atom_site_label
_atom_site_type_symbol
_atom_type_description
_atom_site_fract_x
_atom_site_fract_y
_atom_site_fract_z
_atom_type_partial_charge
C1    C     C_R   0.621115 0.500725 0.619707 0.754866
C2    C     C_R   0.379845 0.500255 0.380295 0.753844
C3    C     C_3   0.337401 0.240503 0.505618 -0.380966
C4    C     C_3   0.663363 0.760393 0.495928 -0.380209
C5    C     C_3   0.312098 0.311108 0.501430 0.167701
C6    C     C_3   0.687806 0.688886 0.498473 0.168654
C7    C     C_3   0.189143 0.187805 0.498686 0.169360
C8    C     C_3   0.810846 0.812118 0.501229 0.167916
C9    C     C_3   0.151361 0.195859 0.415660 -0.357537
C10   C     C_3   0.848919 0.802873 0.583421 -0.356946
C11   C     C_3   0.264049 0.166844 0.501752 -0.379388
C12   C     C_3   0.736820 0.834018 0.499866 -0.379887
C13   C     C_3   0.766077 0.595339 0.756101 -0.394554
C14   C     C_3   0.228767 0.408157 0.253590 -0.386743
C15   C     C_3   0.836020 0.595747 0.829526 -0.375727
C16   C     C_3   0.157085 0.407019 0.181105 -0.367266
C17   C     C_3   0.650245 0.460513 0.735654 -0.399297
C18   C     C_3   0.345602 0.525290 0.253729 -0.392071
C19   C     C_3   0.729093 0.445875 0.649268 -0.350110
C20   C     C_3   0.282934 0.567196 0.351407 -0.351739
C21   C     C_3   0.690205 0.500453 0.688345 0.170942
C22   C     C_3   0.310817 0.500538 0.311620 0.167282
C23   C     C_R   0.381113 0.380117 0.501365 0.755538
C24   C     C_R   0.618791 0.619884 0.498544 0.753031
C25   C     C_3   0.810922 0.500887 0.811537 0.169266
C26   C     C_3   0.189127 0.498703 0.188013 0.167504
C27   C     C_3   0.720359 0.458146 0.806142 -0.359107
C28   C     C_3   0.274292 0.524515 0.181279 -0.372142
C29   C     C_3   0.801674 0.448146 0.722173 -0.409095
C30   C     C_3   0.211362 0.565960 0.278546 -0.401697
C31   C     C_3   0.998635 0.311279 0.809340 0.127248
C32   C     C_3   0.000107 0.689022 0.189230 0.145337
C33   C     C_R   0.998639 0.118828 0.619915 0.769594
C34   C     C_R   0.002318 0.882089 0.380198 0.770013
C35   C     C_R   0.120014 0.118681 0.498527 0.752301
C36   C     C_R   0.879988 0.881237 0.501395 0.754486
C37   C     C_R   0.000099 0.619899 0.120326 0.803367
C38   C     C_R   0.998209 0.380160 0.878049 0.765813
C39   C     C_R   0.879841 0.501144 0.881044 0.776401
C40   C     C_R   0.120115 0.498381 0.118516 0.748333
C41   C     C_3   0.902872 0.164599 0.668299 -0.394875
C42   C     C_3   0.094687 0.820078 0.342687 -0.377312
C43   C     C_3   0.049377 0.198267 0.779789 -0.346913
C44   C     C_3   0.975824 0.820898 0.227371 -0.409101
C45   C     C_3   0.041328 0.348121 0.761095 -0.347368
C46   C     C_3   0.935581 0.649551 0.219641 -0.349421
C47   C     C_3   0.044996 0.266965 0.849826 0.130196
C48   C     C_3   0.981013 0.752427 0.157920 0.138273
C49   C     C_3   0.902757 0.238186 0.738012 -0.456289
C50   C     C_3   0.092775 0.745706 0.271689 -0.484036
C51   C     C_3   0.998386 0.187814 0.688627 0.114786
C52   C     C_3   0.002496 0.813112 0.311452 0.133349
C53   C     C_3   0.043313 0.276095 0.692181 -0.403849
C54   C     C_3   0.935024 0.722420 0.288944 -0.405235
C55   C     C_3   0.298845 0.349726 0.580771 -0.356428
C56   C     C_3   0.699901 0.650486 0.418253 -0.356660
C57   C     C_3   0.228040 0.276762 0.580137 -0.399746
C58   C     C_3   0.770717 0.723446 0.418888 -0.398637
C59   C     C_3   0.224215 0.266896 0.416432 -0.398312
C60   C     C_3   0.776027 0.731941 0.582709 -0.399409
Cu1   Cu    Cu3+1 0.499950 0.562450 0.562440 0.901574
Cu2   Cu    Cu3+1 0.500050 0.437550 0.437560 0.902935
Cu3   Cu    Cu3+1 0.062480 0.999960 0.562430 0.903405
Cu4   Cu    Cu3+1 0.937520 0.000040 0.437570 0.902054
Cu5   Cu    Cu3+1 0.062470 0.562430 0.999950 0.905741
Cu6   Cu    Cu3+1 0.937530 0.437570 0.000050 0.900152
H1    H     H_    0.108308 0.404875 0.806310 0.179481
H2    H     H_    0.867905 0.601949 0.165164 0.171910
H3    H     H_    0.348114 0.211646 0.450179 0.174299
H4    H     H_    0.653452 0.789119 0.552015 0.174590
H5    H     H_    0.399962 0.270853 0.567018 0.141278
H6    H     H_    0.600576 0.730887 0.435067 0.141019
H7    H     H_    0.292531 0.159978 0.560055 0.175477
H8    H     H_    0.708205 0.841794 0.442233 0.175065
H9    H     H_    0.237565 0.103514 0.442979 0.140780
H10   H     H_    0.764186 0.897123 0.559311 0.141042
H11   H     H_    0.231148 0.236726 0.358514 0.166721
H12   H     H_    0.769916 0.761970 0.641240 0.165869
H13   H     H_    0.121388 0.132045 0.355980 0.152101
H14   H     H_    0.879786 0.866444 0.643707 0.153329
H15   H     H_    0.740888 0.636738 0.785303 0.174890
H16   H     H_    0.246142 0.358900 0.223212 0.174433
H17   H     H_    0.796436 0.624896 0.723438 0.144044
H18   H     H_    0.202989 0.388899 0.294158 0.139692
H19   H     H_    0.900649 0.628406 0.833882 0.174621
H20   H     H_    0.097000 0.387289 0.187381 0.175566
H21   H     H_    0.842122 0.634781 0.892974 0.175777
H22   H     H_    0.139787 0.356940 0.116277 0.147172
H23   H     H_    0.112441 0.294852 0.708356 0.143207
H24   H     H_    0.868118 0.714908 0.263983 0.154253
H25   H     H_    0.624380 0.499907 0.766671 0.167332
H26   H     H_    0.365227 0.478285 0.223355 0.173371
H27   H     H_    0.725333 0.492956 0.870209 0.157587
H28   H     H_    0.260071 0.477530 0.116561 0.162192
H29   H     H_    0.676480 0.376713 0.601813 0.168877
H30   H     H_    0.340712 0.634392 0.393364 0.163518
H31   H     H_    0.756880 0.472350 0.613402 0.156244
H32   H     H_    0.257383 0.550830 0.393290 0.162746
H33   H     H_    0.864975 0.478394 0.723280 0.161364
H34   H     H_    0.151545 0.548965 0.285386 0.153049
H35   H     H_    0.785225 0.380131 0.708193 0.145204
H36   H     H_    0.234766 0.632398 0.285474 0.154218
H37   H     H_    0.594147 0.392981 0.687855 0.141475
H38   H     H_    0.404976 0.591439 0.294382 0.139918
H39   H     H_    0.699161 0.388872 0.789938 0.172111
H40   H     H_    0.299893 0.590591 0.187443 0.175951
H41   H     H_    0.866503 0.209491 0.767280 0.176785
H42   H     H_    0.143713 0.774690 0.255498 0.171533
H43   H     H_    0.869899 0.101781 0.666762 0.144278
H44   H     H_    0.143898 0.884638 0.357921 0.149348
H45   H     H_    0.009290 0.270049 0.627228 0.168812
H46   H     H_    0.950868 0.715998 0.348653 0.156941
H47   H     H_    0.864311 0.155605 0.602939 0.186382
H48   H     H_    0.115943 0.815650 0.403443 0.186558
H49   H     H_    0.866596 0.266065 0.706445 0.161496
H50   H     H_    0.110228 0.704415 0.297644 0.162004
H51   H     H_    0.002353 0.373066 0.727938 0.149490
H52   H     H_    0.956906 0.611780 0.248621 0.158665
H53   H     H_    0.118259 0.215756 0.796605 0.190292
H54   H     H_    0.908684 0.812498 0.201640 0.193107
H55   H     H_    0.019640 0.134337 0.777430 0.126986
H56   H     H_    0.020648 0.887742 0.243190 0.120007
H57   H     H_    0.001283 0.229402 0.868486 0.099532
H58   H     H_    0.039805 0.789828 0.154964 0.110648
H59   H     H_    0.278452 0.399166 0.578492 0.170358
H60   H     H_    0.719739 0.600459 0.419359 0.170915
H61   H     H_    0.361689 0.383361 0.642849 0.155878
H62   H     H_    0.636751 0.617606 0.356691 0.155156
H63   H     H_    0.257487 0.273491 0.640650 0.163804
H64   H     H_    0.740980 0.727540 0.358966 0.164314
H65   H     H_    0.175213 0.292552 0.580195 0.145547
H66   H     H_    0.822912 0.707040 0.417568 0.145301
H67   H     H_    0.205461 0.316623 0.411197 0.142450
H68   H     H_    0.794180 0.681563 0.586804 0.142730
H69   H     H_    0.098921 0.213198 0.412651 0.172636
H70   H     H_    0.900711 0.784822 0.585153 0.172252
O1    O     O_R   0.591120 0.552750 0.643890 -0.592473
O2    O     O_R   0.408880 0.447250 0.356110 -0.591848
O3    O     O_R   0.947240 0.538460 0.091150 -0.599262
O4    O     O_R   0.052760 0.461540 0.908850 -0.591659
O5    O     O_R   0.961590 0.552710 0.908800 -0.591264
O6    O     O_R   0.038410 0.447290 0.091200 -0.595240
O7    O     O_R   0.856080 0.447270 0.908890 -0.597358
O8    O     O_R   0.143920 0.552730 0.091110 -0.593127
O9    O     O_R   0.591210 0.447270 0.538420 -0.594917
O10   O     O_R   0.408790 0.552730 0.461580 -0.594904
O11   O     O_R   0.408810 0.461590 0.552740 -0.594042
O12   O     O_R   0.591190 0.538410 0.447260 -0.594518
O13   O     O_R   0.408900 0.356100 0.447280 -0.592277
O14   O     O_R   0.591100 0.643900 0.552720 -0.593179
O15   O     O_R   0.052750 0.091090 0.643890 -0.595718
O16   O     O_R   0.947250 0.908910 0.356110 -0.593990
O17   O     O_R   0.947230 0.091150 0.538450 -0.591410
O18   O     O_R   0.052770 0.908850 0.461550 -0.593687
O19   O     O_R   0.143910 0.091120 0.552710 -0.593186
O20   O     O_R   0.856090 0.908880 0.447290 -0.592956
O21   O     O_R   0.038380 0.091180 0.447270 -0.594938
O22   O     O_R   0.961620 0.908820 0.552730 -0.594108
O23   O     O_R   0.052740 0.643910 0.091070 -0.593794
O24   O     O_R   0.947260 0.356090 0.908930 -0.602268
N1    N     N_2   0.129660 0.327326 0.930051 -0.431796
H71   H     H_    0.124820 0.354612 0.984872 0.229590
C61   C     C_3   0.204364 0.386689 0.931238 -0.705206
H72   H     H_    0.205350 0.449953 0.946172 0.227368
H73   H     H_    0.204720 0.359109 0.869044 0.227240
H74   H     H_    0.265510 0.399873 0.983747 0.217494
N2    N     N_2   0.906896 0.710625 0.070263 -0.443758
H75   H     H_    0.906097 0.753918 0.047422 0.240504
C62   C     C_3   0.820194 0.648393 0.047006 -0.733583
H76   H     H_    0.770310 0.640056 0.987260 0.208795
H77   H     H_    0.804188 0.671009 0.099504 0.230043
H78   H     H_    0.815258 0.583558 0.031303 0.236266

loop_
_geom_bond_atom_site_label_1
_geom_bond_atom_site_label_2
_ccdc_geom_bond_type
C13   C21   S    
C16   H20   S    
C1    C21   S    
C4    H4    S    
Cu2   O13   S    
C12   H8    S    
C32   C48   S    
C62   H76   S    
C1    O9    A    
C61   H72   S    
C17   H25   S    
C14   H18   S    
Cu5   O23   S    
C26   C40   S    
C59   H11   S    
Cu6   O24   S    
N1    H71   S    
C19   H31   S    
C1    O1    A    
C49   H41   S    
C20   C30   S    
C7    C11   S    
C60   H12   S    
Cu4   O16   S    
C57   H63   S    
C61   H73   S    
C10   H70   S    
C54   H24   S    
C40   O6    A    
C9    H13   S    
C30   H34   S    
C33   O17   A    
C15   C25   S    
C44   H54   S    
C13   H15   S    
C46   H52   S    
C28   H28   S    
C8    C36   S    
C39   O7    A    
C34   C52   S    
C8    C58   S    
C43   C51   S    
Cu5   O4    S    
C42   H48   S    
C55   H59   S    
Cu6   O3    S    
C39   O5    A    
C28   H40   S    
Cu2   O9    S    
Cu4   O21   S    
C2    C22   S    
C56   H60   S    
C4    C12   S    
Cu1   O14   S    
C43   H55   S    
C36   O22   A    
C15   H19   S    
C40   O8    A    
C53   H45   S    
C23   O13   A    
C45   C53   S    
C41   H43   S    
C50   H42   S    
C62   H77   S    
C46   C54   S    
C32   C46   S    
C31   C49   S    
C41   C49   S    
N1    C61   S    
C52   C54   S    
C34   O18   A    
C55   H61   S    
C25   C29   S    
Cu1   O11   S    
C5    C59   S    
C54   H46   S    
C2    O2    A    
C6    C60   S    
C61   H74   S    
C18   C28   S    
C4    C6    S    
C24   O12   A    
C58   H66   S    
N2    H75   S    
Cu5   O8    S    
C29   H33   S    
Cu6   O7    S    
C23   O11   A    
Cu4   O17   S    
C59   H67   S    
C17   C21   S    
C33   C51   S    
N2    C62   S    
C51   C53   S    
C17   C27   S    
C38   O4    A    
C3    H5    S    
Cu1   O10   S    
C35   O21   A    
C46   H2    S    
Cu5   O5    S    
C47   H57   S    
C5    C23   S    
C8    C12   S    
C6    C24   S    
C30   H36   S    
C17   H37   S    
C29   H35   S    
C18   H38   S    
C32   C37   S    
Cu2   O2    S    
Cu2   O12   S    
Cu3   O15   S    
C24   O14   A    
C42   C50   S    
C9    H69   S    
C49   H49   S    
C20   C22   S    
C26   C30   S    
C55   C57   S    
C12   H10   S    
C33   O15   A    
C14   C22   S    
C62   H78   S    
C14   C16   S    
C27   H27   S    
C2    O10   A    
C14   H16   S    
C19   C29   S    
C60   H68   S    
C4    H6    S    
C19   H29   S    
C36   O20   A    
C15   H21   S    
C45   H51   S    
C7    C9    S    
C13   H17   S    
C10   C60   S    
C10   H14   S    
C3    H3    S    
C18   C22   S    
C7    C35   S    
C5    C55   S    
C57   H65   S    
Cu3   O18   S    
C41   H47   S    
C3    C5    S    
C16   C26   S    
C44   C52   S    
C48   H58   S    
C45   H1    S    
Cu6   O6    S    
C41   C51   S    
C25   C27   S    
Cu4   O20   S    
C26   C28   S    
C31   C38   S    
C34   O16   A    
C18   H26   S    
C37   O23   A    
C13   C15   S    
C42   H44   S    
C38   O24   A    
C11   H9    S    
C6    C56   S    
C53   H23   S    
Cu1   O1    S    
C48   N2    S    
C58   H64   S    
C44   H56   S    
C56   C58   S    
C32   C50   S    
C50   H50   S    
C56   H62   S    
C20   H30   S    
Cu1   Cu2   S    
C11   H7    S    
C3    C11   S    
Cu3   O19   S    
Cu3   Cu4   S    
C47   N1    S    
C44   C48   S    
C20   H32   S    
C8    C10   S    
Cu5   Cu6   S    
C31   C45   S    
C42   C52   S    
C16   H22   S    
C27   H39   S    
C31   C47   S    
C37   O3    A    
Cu3   O22   S    
C9    C59   S    
C43   C47   S    
C7    C57   S    
C25   C39   S    
C35   O19   A    
C43   H53   S    
C19   C21   S    
