data_mof_unit_24305.cif
_audit_creation_date              2012-12-11T15:27:15-0500
_audit_creation_method            fapswitch 2.2
_symmetry_space_group_name_H-M    P1
_symmetry_Int_Tables_number       1
_space_group_crystal_system       triclinic
_cell_length_a                    13.898535
_cell_length_b                    13.976414
_cell_length_c                    27.441819
_cell_angle_alpha                 89.838152
_cell_angle_beta                  90.249105
_cell_angle_gamma                 119.936771
_cell_volume                      4619.34535872

loop_
_atom_site_label
_atom_site_type_symbol
_atom_type_description
_atom_site_fract_x
_atom_site_fract_y
_atom_site_fract_z
_atom_type_partial_charge
C1    C     C_R   0.234847 0.786634 0.568797 0.541870
C2    C     C_R   0.213122 0.447582 0.568710 0.542712
C3    C     C_R   0.550202 0.763988 0.569569 0.540760
C4    C     C_3   0.619622 0.717966 0.794211 -0.201964
C5    C     C_3   0.251180 0.952724 0.783215 -0.199352
C6    C     C_3   0.072397 0.336415 0.787480 -0.200692
C7    C     C_3   0.602455 0.706078 0.738168 -0.221965
C8    C     C_3   0.265880 0.938617 0.728300 -0.217339
C9    C     C_3   0.086259 0.366039 0.732533 -0.219857
C10   C     C_1   0.684514 0.852462 0.862783 -0.030250
C11   C     C_1   0.122972 0.873514 0.852987 -0.020503
C12   C     C_1   0.126079 0.249367 0.853038 -0.024906
C13   C     C_1   0.609682 0.804916 0.661801 -0.074196
C14   C     C_1   0.186255 0.813635 0.657909 -0.074142
C15   C     C_1   0.185582 0.369845 0.657557 -0.074047
C16   C     C_1   0.589468 0.790164 0.618808 -0.011741
C17   C     C_1   0.204472 0.802922 0.616190 -0.011946
C18   C     C_1   0.196522 0.399616 0.615907 -0.011923
C19   C     C_R   0.072967 0.166463 0.941403 0.551524
C20   C     C_R   0.778224 0.886247 0.949500 0.548102
C21   C     C_R   0.093045 0.926504 0.941386 0.548462
C22   C     C_R   0.613324 0.806572 0.385374 0.025109
C23   C     C_R   0.192038 0.806668 0.385568 0.025119
C24   C     C_R   0.192551 0.386030 0.385503 0.024996
C25   C     C_R   0.606449 0.890416 0.359991 -0.125870
C26   C     C_R   0.108185 0.716078 0.360147 -0.126137
C27   C     C_R   0.282942 0.390359 0.360762 -0.125873
C28   C     C_R   0.634794 0.908985 0.311125 -0.122993
C29   C     C_R   0.089626 0.726031 0.311243 -0.123250
C30   C     C_R   0.273214 0.361697 0.311934 -0.122960
C31   C     C_R   0.672514 0.845566 0.287204 0.036422
C32   C     C_R   0.152942 0.827227 0.287386 0.036532
C33   C     C_R   0.172411 0.326203 0.287420 0.036387
C34   C     C_R   0.232941 0.787397 0.431567 0.542758
C35   C     C_R   0.212341 0.445729 0.431507 0.543651
C36   C     C_R   0.554023 0.766575 0.431498 0.543378
C37   C     C_R   0.690017 0.769546 0.313790 -0.120072
C38   C     C_R   0.228443 0.920604 0.314052 -0.120401
C39   C     C_R   0.078983 0.311065 0.313410 -0.120416
C40   C     C_R   0.659942 0.749634 0.362593 -0.127084
C41   C     C_R   0.248447 0.910258 0.362895 -0.127511
C42   C     C_R   0.089124 0.341446 0.362170 -0.127600
C43   C     C_R   0.655092 0.759049 0.206170 -0.119825
C44   C     C_R   0.241111 0.897254 0.206700 -0.120007
C45   C     C_R   0.105143 0.345681 0.205916 -0.119760
C46   C     C_R   0.676677 0.767898 0.156495 -0.131672
C47   C     C_R   0.232853 0.909893 0.156923 -0.132226
C48   C     C_R   0.092785 0.324481 0.156189 -0.131757
C49   C     C_R   0.754049 0.966335 0.161523 -0.126144
C50   C     C_R   0.033475 0.786967 0.161212 -0.126508
C51   C     C_R   0.211574 0.243557 0.162091 -0.127025
C52   C     C_R   0.734321 0.957724 0.211302 -0.121559
C53   C     C_R   0.041450 0.776056 0.211069 -0.121506
C54   C     C_R   0.222270 0.262898 0.211925 -0.121372
C55   C     C_R   0.687646 0.854375 0.234205 0.035730
C56   C     C_R   0.144913 0.833681 0.234365 0.035979
C57   C     C_R   0.166507 0.311208 0.234404 0.035640
C58   C     C_R   0.729543 0.871972 0.134281 0.022555
C59   C     C_R   0.128538 0.857734 0.134302 0.020869
C60   C     C_R   0.143033 0.270128 0.134372 0.020647
C61   C     C_R   0.106872 0.221551 0.086198 0.561102
C62   C     C_R   0.778782 0.885202 0.086238 0.547503
C63   C     C_R   0.115267 0.893586 0.086164 0.560240
C64   C     C_3   0.548942 0.853598 0.739015 -0.240739
C65   C     C_3   0.165940 0.732614 0.740811 -0.239947
C66   C     C_3   0.283540 0.405164 0.737260 -0.241514
C67   C     C_3   0.748290 0.904835 0.726612 -0.143877
C68   C     C_3   0.058815 0.826014 0.716156 -0.166537
C69   C     C_3   0.130084 0.215276 0.714793 -0.158054
C70   C     C_3   0.766262 0.917034 0.782442 0.327322
C71   C     C_3   0.043826 0.846234 0.770218 0.305065
C72   C     C_3   0.111756 0.182811 0.769233 0.316032
C73   C     C_1   0.721240 0.867289 0.903703 0.005197
C74   C     C_1   0.108576 0.895127 0.893774 0.017557
C75   C     C_1   0.104367 0.213460 0.893837 0.013792
C76   C     C_3   0.626925 0.817301 0.714956 0.011988
C77   C     C_3   0.169534 0.827152 0.709463 0.027740
C78   C     C_3   0.171974 0.339802 0.709182 0.022585
C79   C     C_3   0.567862 0.866385 0.795222 -0.285858
C80   C     C_3   0.145462 0.747265 0.795297 -0.281573
C81   C     C_3   0.267865 0.370957 0.791882 -0.283588
C82   C     C_3   0.658492 0.838280 0.810223 0.054966
C83   C     C_3   0.140433 0.854786 0.801917 0.068690
C84   C     C_3   0.144650 0.284798 0.801890 0.061408
Cr1   Cr    Cr6+3 0.164410 0.584450 0.499910 1.017422
Cr2   Cr    Cr6+3 0.415550 0.579960 0.499910 1.017421
Cr3   Cr    Cr6+3 0.420040 0.835590 0.499910 1.017408
Cr4   Cr    Cr6+3 0.156760 0.076070 0.017830 1.016659
Cr5   Cr    Cr6+3 0.923930 0.080690 0.017830 1.014090
Cr6   Cr    Cr6+3 0.919310 0.843240 0.017830 1.021453
H1    H     H_    0.593387 0.952472 0.806127 0.101277
H2    H     H_    0.066191 0.674942 0.807549 0.103516
H3    H     H_    0.321783 0.335674 0.801347 0.099777
H4    H     H_    0.460727 0.791425 0.731282 0.123854
H5    H     H_    0.245712 0.732643 0.737333 0.120267
H6    H     H_    0.314386 0.495311 0.734298 0.122069
H7    H     H_    0.488811 0.810600 0.814347 0.124187
H8    H     H_    0.213294 0.750231 0.818113 0.123717
H9    H     H_    0.294268 0.445182 0.815102 0.125380
H10   H     H_    0.681976 0.694068 0.805158 0.161973
H11   H     H_    0.253160 0.032382 0.789142 0.141731
H12   H     H_    0.983362 0.277876 0.795416 0.157856
H13   H     H_    0.571002 0.935963 0.376637 0.132867
H14   H     H_    0.062954 0.635104 0.376759 0.132517
H15   H     H_    0.363783 0.424046 0.377873 0.132034
H16   H     H_    0.615449 0.677986 0.222846 0.104171
H17   H     H_    0.322327 0.939372 0.223731 0.103856
H18   H     H_    0.064502 0.386574 0.222266 0.104228
H19   H     H_    0.657034 0.694270 0.135920 0.118236
H20   H     H_    0.306993 0.964550 0.136581 0.118426
H21   H     H_    0.039777 0.345646 0.135232 0.118724
H22   H     H_    0.620546 0.968095 0.291469 0.099906
H23   H     H_    0.030876 0.652802 0.291514 0.099895
H24   H     H_    0.346483 0.374043 0.292756 0.099798
H25   H     H_    0.760312 0.032442 0.232125 0.101591
H26   H     H_    0.966088 0.726681 0.231615 0.101364
H27   H     H_    0.269904 0.235418 0.233100 0.101419
H28   H     H_    0.795946 0.047746 0.145137 0.129791
H29   H     H_    0.951852 0.746617 0.144483 0.129652
H30   H     H_    0.250225 0.200409 0.146001 0.129221
H31   H     H_    0.722759 0.722404 0.296355 0.101535
H32   H     H_    0.275354 0.000475 0.296628 0.101260
H33   H     H_    0.999286 0.280040 0.295520 0.101205
H34   H     H_    0.564523 0.933415 0.723127 0.117908
H35   H     H_    0.098790 0.651174 0.727522 0.116182
H36   H     H_    0.347499 0.389452 0.720910 0.117911
H37   H     H_    0.667456 0.685659 0.381621 0.126408
H38   H     H_    0.312303 0.981628 0.382013 0.126186
H39   H     H_    0.017845 0.335870 0.380701 0.126211
H40   H     H_    0.806018 0.880729 0.709957 0.176992
H41   H     H_    0.057216 0.890518 0.692804 0.160705
H42   H     H_    0.051202 0.166439 0.694102 0.162138
H43   H     H_    0.767954 0.985820 0.710559 0.085288
H44   H     H_    0.988331 0.744947 0.704374 0.068793
H45   H     H_    0.191773 0.195151 0.699286 0.072384
H46   H     H_    0.793884 0.003861 0.792955 0.162032
H47   H     H_    0.963093 0.777844 0.783633 0.146136
H48   H     H_    0.163015 0.145095 0.779384 0.158909
H49   H     H_    0.515614 0.641142 0.729900 0.113236
H50   H     H_    0.346891 0.942260 0.722508 0.113248
H51   H     H_    0.113872 0.455278 0.728058 0.112330
H52   H     H_    0.658203 0.678614 0.722254 0.123136
H53   H     H_    0.267962 0.008161 0.707521 0.122648
H54   H     H_    0.004570 0.318392 0.713791 0.125338
H55   H     H_    0.540450 0.660119 0.812788 0.098602
H56   H     H_    0.322073 0.956864 0.804048 0.100209
H57   H     H_    0.097343 0.412174 0.809415 0.101364
O1    O     O_R   0.137310 0.468260 0.552980 -0.510717
O2    O     O_R   0.531740 0.669050 0.552980 -0.509884
O3    O     O_R   0.330950 0.862690 0.552980 -0.510677
O4    O     O_R   0.180530 0.983530 0.965090 -0.517688
O5    O     O_R   0.016470 0.197000 0.965090 -0.503984
O6    O     O_R   0.803000 0.819470 0.965090 -0.511733
O7    O     O_R   0.174120 0.688790 0.549730 -0.499983
O8    O     O_R   0.311210 0.485330 0.549730 -0.499947
O9    O     O_R   0.514670 0.825880 0.549730 -0.498342
O10   O     O_R   0.139940 0.470480 0.446230 -0.522232
O11   O     O_R   0.529520 0.669460 0.446230 -0.521318
O12   O     O_R   0.330540 0.860060 0.446230 -0.521403
O13   O     O_R   0.176560 0.690850 0.450770 -0.506419
O14   O     O_R   0.309150 0.485710 0.450770 -0.505928
O15   O     O_R   0.514290 0.823440 0.450770 -0.505351
O16   O     O_3   0.333333 0.666667 0.499990 -0.265589
O17   O     O_3   0.000000 1.000000 0.017910 -0.253472
O18   O     O_R   0.149710 0.171070 0.967700 -0.511019
O19   O     O_R   0.828930 0.978640 0.967700 -0.515602
O20   O     O_R   0.021360 0.850290 0.967700 -0.489279
O21   O     O_R   0.178510 0.985930 0.071830 -0.515062
O22   O     O_R   0.014070 0.192580 0.071830 -0.513504
O23   O     O_R   0.807420 0.821490 0.071830 -0.518632
O24   O     O_R   0.147830 0.173300 0.066650 -0.493499
O25   O     O_R   0.826700 0.974530 0.066650 -0.500280
O26   O     O_R   0.025470 0.852170 0.066650 -0.492747
F1    F     F_    0.848548 0.893946 0.795686 -0.564436
F2    F     F_    0.041567 0.943335 0.773667 -0.572784
F3    F     F_    0.001238 0.105787 0.776571 -0.588895

loop_
_geom_bond_atom_site_label_1
_geom_bond_atom_site_label_2
_ccdc_geom_bond_type
C58   C62   S    
C15   C18   T    
Cr3   O16   S    
C2    O8    A    
Cr6   O20   S    
C2    C18   S    
C53   H26   S    
C24   C42   A    
C41   H38   S    
Cr1   O1    S    
C6    C9    S    
C71   H47   S    
C28   H22   S    
C25   C28   A    
Cr6   O26   S    
C45   C57   A    
C35   O14   A    
C50   C59   A    
C21   O4    A    
C52   H25   S    
C67   H43   S    
C37   C40   A    
C80   C83   S    
C5    C83   S    
C10   C73   T    
C14   C77   S    
C15   C78   S    
C27   H15   S    
C2    O1    A    
C39   H33   S    
C12   C84   S    
C45   H18   S    
C23   C26   A    
C26   H14   S    
Cr5   O5    S    
Cr3   O12   S    
Cr4   O21   S    
Cr3   O3    S    
C24   C27   A    
C48   C60   A    
C61   O24   A    
Cr1   O13   S    
C32   C38   A    
C8    H53   S    
Cr5   O17   S    
C79   H1    S    
C44   C47   A    
C36   O11   A    
Cr1   O7    S    
C34   O12   A    
C49   C52   A    
C72   H48   S    
C69   H45   S    
Cr4   O24   S    
C46   C58   A    
C27   C30   A    
C70   H46   S    
C14   C17   T    
Cr6   O23   S    
C69   C78   S    
Cr1   O10   S    
C4    C7    S    
C62   O23   A    
C43   C46   A    
C9    H54   S    
C63   O26   A    
C39   C42   A    
C71   C83   S    
C66   C78   S    
C5    H11   S    
C3    O2    A    
C24   C35   S    
C6    C84   S    
C20   O6    A    
C50   H29   S    
C50   C53   A    
C65   C77   S    
C38   C41   A    
Cr2   O2    S    
C9    H51   S    
C25   H13   S    
C81   H9    S    
C11   C83   S    
C64   H34   S    
C40   H37   S    
C47   C59   A    
C21   C74   S    
C22   C25   A    
C49   C58   A    
C66   H36   S    
C72   C84   S    
Cr6   O17   S    
C60   C61   S    
C43   H16   S    
C65   H35   S    
C80   H2    S    
C68   H41   S    
Cr2   O8    S    
C35   O10   A    
C5    C8    S    
C81   H3    S    
C44   C56   A    
C49   H28   S    
C13   C76   S    
C23   C34   S    
C22   C40   A    
C44   H17   S    
C51   H30   S    
C64   C76   S    
C1    O3    A    
Cr2   O14   S    
C33   C39   A    
Cr6   O6    S    
C70   F1    S    
C38   H32   S    
C37   H31   S    
C43   C55   A    
C63   O21   A    
Cr2   O11   S    
C4    H10   S    
C8    C77   S    
Cr1   O16   S    
C64   C79   S    
C12   C75   T    
C67   H40   S    
C61   O22   A    
C69   H42   S    
C81   C84   S    
C22   C36   S    
C66   H6    S    
C30   H24   S    
C45   C48   A    
C68   C77   S    
C29   H23   S    
C33   C57   S    
C5    H56   S    
C30   C33   A    
C80   H8    S    
C59   C63   S    
C79   H7    S    
C28   C31   A    
Cr5   O25   S    
C69   C72   S    
C11   C74   T    
C21   O20   A    
C79   C82   S    
C10   C82   S    
C62   O25   A    
C52   C55   A    
C7    C76   S    
Cr2   O16   S    
C29   C32   A    
C47   H20   S    
C20   O19   A    
C48   H21   S    
C1    C17   S    
C23   C41   A    
C8    H50   S    
C67   C70   S    
C51   C54   A    
C51   C60   A    
C19   C75   S    
C13   C16   T    
Cr5   O22   S    
Cr4   O17   S    
C66   C81   S    
C7    H49   S    
C6    H57   S    
C36   O15   A    
C68   C71   S    
C4    H55   S    
C68   H44   S    
C3    O9    A    
Cr4   O4    S    
C71   F2    S    
C20   C73   S    
C42   H39   S    
C9    C78   S    
C6    H12   S    
C1    O7    A    
C70   C82   S    
C72   F3    S    
C53   C56   A    
Cr5   O19   S    
C64   H4    S    
C31   C37   A    
C65   H5    S    
Cr3   O15   S    
C4    C82   S    
C26   C29   A    
Cr4   O18   S    
C54   H27   S    
C46   H19   S    
C65   C80   S    
Cr3   O9    S    
C67   C76   S    
C19   O18   A    
C31   C55   S    
C32   C56   S    
C7    H52   S    
C3    C16   S    
C34   O13   A    
C54   C57   A    
C19   O5    A    
