data_mof_unit_34003.cif
_audit_creation_date              2012-10-26T20:43:30-0400
_audit_creation_method            fapswitch 2.2
_symmetry_space_group_name_H-M    P1
_symmetry_Int_Tables_number       1
_space_group_crystal_system       monoclinic
_cell_length_a                    10.826449
_cell_length_b                    9.903793
_cell_length_c                    23.38514
_cell_angle_alpha                 90.0
_cell_angle_beta                  95.613068
_cell_angle_gamma                 90.0
_cell_volume                      2495.39995968

loop_
_atom_site_label
_atom_site_type_symbol
_atom_type_description
_atom_site_fract_x
_atom_site_fract_y
_atom_site_fract_z
_atom_type_partial_charge
C1    C     C_R   0.263382 0.500356 0.500850 0.529662
C2    C     C_R   0.590737 0.546227 0.707354 -0.176926
C3    C     C_R   0.410642 0.533265 0.233423 -0.063831
C4    C     C_R   0.589358 0.533265 0.766576 -0.063830
C5    C     C_R   0.498567 0.449305 0.210567 0.224495
C6    C     C_R   0.501433 0.449305 0.789432 0.224495
C7    C     C_R   0.063951 0.380110 0.502519 -0.145299
C8    C     C_R   0.935851 0.624643 0.499738 -0.137712
C9    C     C_R   0.936049 0.380110 0.497481 -0.145299
C10   C     C_R   0.064149 0.624643 0.500263 -0.137712
C11   C     C_R   0.870970 0.501802 0.498371 0.018899
C12   C     C_R   0.736618 0.500356 0.499150 0.529662
C13   C     C_R   0.129030 0.501802 0.501629 0.018899
C14   C     C_R   0.438462 0.073567 0.454847 0.110107
C15   C     C_R   0.562203 0.926016 0.544551 0.110245
C16   C     C_R   0.561538 0.073567 0.545153 0.110107
C17   C     C_R   0.437797 0.926016 0.455449 0.110244
C18   C     C_R   0.500333 0.498603 0.391790 0.531903
C19   C     C_R   0.499667 0.498603 0.608210 0.531904
C20   C     C_R   0.610247 0.416503 0.884846 0.396474
C21   C     C_R   0.389753 0.416503 0.115154 0.396474
C22   C     C_R   0.389821 0.442957 0.875216 0.399738
C23   C     C_R   0.585502 0.380515 0.248627 -0.061870
C24   C     C_R   0.610179 0.442957 0.124784 0.399738
C25   C     C_R   0.387133 0.429996 0.934773 0.032353
C26   C     C_R   0.612866 0.429997 0.065227 0.032353
C27   C     C_R   0.499982 0.423358 0.969865 -0.028584
C28   C     C_R   0.500018 0.423358 0.030134 -0.028584
C29   C     C_R   0.612819 0.418772 0.944880 0.032534
C30   C     C_R   0.387181 0.418772 0.055120 0.032534
C31   C     C_R   0.274634 0.426962 0.960080 -0.122679
C32   C     C_R   0.725366 0.426962 0.039920 -0.122679
C33   C     C_R   0.274685 0.418179 0.019626 -0.124091
C34   C     C_R   0.414498 0.380515 0.751373 -0.061870
C35   C     C_R   0.725315 0.418179 0.980373 -0.124091
C36   C     C_3   0.373527 0.144500 0.400799 -0.201410
C37   C     C_3   0.249820 0.215024 0.407847 -0.270870
C38   C     C_3   0.145989 0.181085 0.360673 -0.483148
C39   C     C_3   0.636833 0.853453 0.594441 -0.206883
C40   C     C_3   0.570873 0.857180 0.651227 -0.296342
C41   C     C_3   0.663135 0.867112 0.705443 -0.460968
C42   C     C_3   0.626474 0.144500 0.599201 -0.201409
C43   C     C_3   0.750181 0.215024 0.592153 -0.270871
C44   C     C_3   0.854013 0.181083 0.639326 -0.483149
C45   C     C_R   0.589840 0.402942 0.307582 -0.148618
C46   C     C_3   0.363167 0.853452 0.405558 -0.206883
C47   C     C_3   0.429127 0.857180 0.348773 -0.296342
C48   C     C_3   0.336865 0.867112 0.294557 -0.460968
C49   C     C_R   0.410160 0.402942 0.692418 -0.148618
C50   C     C_R   0.503331 0.488901 0.329711 -0.002158
C51   C     C_R   0.496669 0.488900 0.670289 -0.002158
C52   C     C_R   0.409262 0.546227 0.292646 -0.176926
Cu1   Cu    Cu3+1 0.500000 0.640660 0.500000 0.897867
Cu2   Cu    Cu3+1 0.500000 0.359340 0.500000 0.898109
H1    H     H_    0.186328 0.430382 0.933994 0.169846
H2    H     H_    0.666156 0.598531 0.690126 0.113878
H3    H     H_    0.341786 0.587215 0.205558 0.154245
H4    H     H_    0.658214 0.587215 0.794442 0.154245
H5    H     H_    0.110812 0.284381 0.507183 0.119078
H6    H     H_    0.887912 0.720600 0.499976 0.128632
H7    H     H_    0.889188 0.284381 0.492816 0.119078
H8    H     H_    0.112088 0.720600 0.500024 0.128632
H9    H     H_    0.174319 0.209116 0.317837 0.170834
H10   H     H_    0.123622 0.071713 0.361125 0.149093
H11   H     H_    0.061070 0.238754 0.368180 0.154950
H12   H     H_    0.813672 0.430383 0.066006 0.169845
H13   H     H_    0.218204 0.182659 0.449140 0.172517
H14   H     H_    0.263056 0.325526 0.405249 0.199695
H15   H     H_    0.438328 0.198435 0.375966 0.159327
H16   H     H_    0.348748 0.077245 0.365858 0.122946
H17   H     H_    0.747596 0.805995 0.701080 0.150295
H18   H     H_    0.692897 0.972564 0.714640 0.154726
H19   H     H_    0.618136 0.831059 0.743290 0.156927
H20   H     H_    0.503935 0.942180 0.651405 0.142456
H21   H     H_    0.510768 0.769464 0.655565 0.200388
H22   H     H_    0.665468 0.751227 0.583844 0.197001
H23   H     H_    0.186420 0.415166 0.037765 0.164753
H24   H     H_    0.730195 0.900550 0.600922 0.095565
H25   H     H_    0.825683 0.209115 0.682162 0.170834
H26   H     H_    0.876379 0.071711 0.638874 0.149093
H27   H     H_    0.938931 0.238752 0.631819 0.154950
H28   H     H_    0.781796 0.182658 0.550860 0.172518
H29   H     H_    0.736946 0.325525 0.594750 0.199695
H30   H     H_    0.561673 0.198436 0.624034 0.159327
H31   H     H_    0.651252 0.077245 0.634142 0.122945
H32   H     H_    0.252404 0.805995 0.298919 0.150295
H33   H     H_    0.307104 0.972564 0.285360 0.154726
H34   H     H_    0.813580 0.415166 0.962235 0.164753
H35   H     H_    0.381864 0.831059 0.256710 0.156927
H36   H     H_    0.496065 0.942180 0.348594 0.142456
H37   H     H_    0.489232 0.769464 0.344435 0.200388
H38   H     H_    0.334532 0.751227 0.416156 0.197001
H39   H     H_    0.269805 0.900550 0.399077 0.095566
H40   H     H_    0.650511 0.310086 0.232722 0.152595
H41   H     H_    0.349489 0.310086 0.767278 0.152595
H42   H     H_    0.658987 0.350839 0.336125 0.121360
H43   H     H_    0.341013 0.350839 0.663875 0.121360
H44   H     H_    0.333843 0.598531 0.309873 0.113878
N1    N     N_R   0.500351 0.434565 0.850922 -0.393995
N2    N     N_R   0.499649 0.434565 0.149078 -0.393995
N3    N     N_R   0.500000 0.852070 0.500000 -0.237429
N4    N     N_R   0.500000 0.147930 0.500000 -0.226540
O1    O     O_R   0.319640 0.618740 0.500000 -0.516695
O2    O     O_2   0.283092 0.395749 0.139264 -0.511595
O3    O     O_2   0.282794 0.467188 0.842222 -0.508164
O4    O     O_2   0.717206 0.467188 0.157778 -0.508164
O5    O     O_R   0.680360 0.381260 0.500000 -0.515283
O6    O     O_R   0.680360 0.618740 0.500000 -0.516695
O7    O     O_R   0.319640 0.381260 0.500000 -0.515283
O8    O     O_R   0.499960 0.618810 0.417880 -0.514632
O9    O     O_R   0.500040 0.381190 0.582120 -0.511766
O10   O     O_R   0.500040 0.618810 0.582120 -0.514632
O11   O     O_R   0.499960 0.381190 0.417880 -0.511766
O12   O     O_2   0.716908 0.395749 0.860736 -0.511595

loop_
_geom_bond_atom_site_label_1
_geom_bond_atom_site_label_2
_ccdc_geom_bond_type
Cu1   O8    S    
C25   C31   A    
C37   H14   S    
C26   C32   A    
C23   C45   A    
C27   C29   A    
C43   H29   S    
Cu1   Cu2   S    
C20   N1    A    
Cu2   O5    S    
C9    H7    S    
C36   C37   S    
C24   C26   A    
C14   C36   S    
C14   N4    A    
C46   H38   S    
C15   C16   A    
Cu2   O11   S    
C17   N3    A    
C1    O7    A    
C21   O2    S    
Cu1   N3    S    
C49   C51   A    
C22   C25   A    
C50   C52   A    
C31   C33   A    
C1    O1    A    
C41   H17   S    
C14   C17   A    
C10   H8    S    
C34   H41   S    
C18   O11   A    
C7    H5    S    
C36   H16   S    
C38   H10   S    
C20   C29   A    
C32   C35   A    
C44   H26   S    
C42   H30   S    
C17   C46   S    
C4    C6    A    
C44   H27   S    
C39   C40   S    
C12   O6    A    
C21   N2    A    
C19   O10   A    
C41   H19   S    
C6    C34   A    
Cu2   O7    S    
C2    C4    A    
C43   C44   S    
C39   H24   S    
C37   C38   S    
C35   H34   S    
C47   C48   S    
C5    C23   A    
C38   H11   S    
C3    C52   A    
C48   H33   S    
C42   H31   S    
C39   H22   S    
C15   N3    A    
C9    C11   A    
C15   C39   S    
C41   H18   S    
C3    H3    S    
Cu1   O10   S    
C16   N4    A    
C40   C41   S    
C48   H35   S    
C47   H36   S    
C48   H32   S    
C24   O4    S    
C42   C43   S    
C16   C42   S    
C36   H15   S    
C18   C50   S    
C32   H12   S    
C38   H9    S    
C5    N2    S    
C7    C9    A    
C46   C47   S    
C34   C49   A    
C22   N1    A    
C30   C33   A    
C24   N2    A    
C47   H37   S    
Cu2   N4    S    
C44   H25   S    
C18   O8    A    
C3    C5    A    
C10   C13   A    
C12   O5    A    
C11   C12   S    
C23   H40   S    
C19   O9    A    
C25   C27   A    
C22   O3    S    
C21   C30   A    
C29   C35   A    
C26   C28   A    
C40   H21   S    
C6    N1    S    
C28   C30   A    
C2    H2    S    
C8    H6    S    
C20   O12   S    
Cu1   O6    S    
C33   H23   S    
C46   H39   S    
C45   C50   A    
Cu1   O1    S    
C8    C11   A    
C37   H13   S    
C52   H44   S    
C40   H20   S    
Cu2   O9    S    
C2    C51   A    
C49   H43   S    
C19   C51   S    
C7    C13   A    
C1    C13   S    
C8    C10   A    
C4    H4    S    
C27   C28   A    
C43   H28   S    
C31   H1    S    
C45   H42   S    
