data_mof_unit_41515.cif
_audit_creation_date              2012-10-26T20:21:31-0400
_audit_creation_method            fapswitch 2.2
_symmetry_space_group_name_H-M    P1
_symmetry_Int_Tables_number       1
_space_group_crystal_system       triclinic
_cell_length_a                    10.843945
_cell_length_b                    9.598882
_cell_length_c                    11.691774
_cell_angle_alpha                 90.000264
_cell_angle_beta                  91.816744
_cell_angle_gamma                 89.999977
_cell_volume                      1216.38207859

loop_
_atom_site_label
_atom_site_type_symbol
_atom_type_description
_atom_site_fract_x
_atom_site_fract_y
_atom_site_fract_z
_atom_type_partial_charge
C1    C     C_R   0.262311 0.500248 0.501070 0.540771
C2    C     C_R   0.936062 0.628058 0.499646 -0.141028
C3    C     C_R   0.936336 0.375394 0.496588 -0.152774
C4    C     C_R   0.063938 0.628059 0.500359 -0.141027
C5    C     C_R   0.871645 0.501324 0.497840 0.018838
C6    C     C_R   0.128356 0.501324 0.502163 0.018836
C7    C     C_R   0.429126 0.074843 0.421233 0.223925
C8    C     C_R   0.568790 0.925202 0.580352 0.221133
C9    C     C_R   0.570875 0.074844 0.578766 0.223928
C10   C     C_R   0.431210 0.925201 0.419648 0.221131
C11   C     C_3   0.226523 0.135123 0.333880 -0.300414
C12   C     C_R   0.737689 0.500248 0.498930 0.540774
C13   C     C_3   0.601306 0.857202 0.780657 -0.281034
C14   C     C_3   0.773484 0.135109 0.666114 -0.300425
C15   C     C_3   0.398687 0.857188 0.219346 -0.281009
C16   C     C_R   0.499892 0.499933 0.284151 0.544830
C17   C     C_R   0.500108 0.499934 0.715849 0.544832
C18   C     C_1   0.500063 0.499657 0.162433 -0.045028
C19   C     C_1   0.499937 0.499659 0.837567 -0.045023
C20   C     C_1   0.500046 0.499576 0.059908 -0.061283
C21   C     C_1   0.499955 0.499577 0.940091 -0.061282
C22   C     C_R   0.063664 0.375395 0.503413 -0.152778
Cu1   Cu    Cu3+1 0.500000 0.640660 0.500000 0.979873
Cu2   Cu    Cu3+1 0.500000 0.359340 0.500000 0.983349
H1    H     H_    0.111029 0.276705 0.509306 0.123184
H2    H     H_    0.641560 0.949010 0.825221 0.105830
H3    H     H_    0.634742 0.763417 0.827599 0.149794
H4    H     H_    0.499011 0.860887 0.784236 0.153196
H5    H     H_    0.601124 0.157931 0.741696 0.241699
H6    H     H_    0.803948 0.069087 0.739563 0.111687
H7    H     H_    0.816236 0.239073 0.678826 0.159848
H8    H     H_    0.806475 0.088183 0.585738 0.122945
H9    H     H_    0.265556 0.854886 0.345873 0.228247
H10   H     H_    0.358428 0.949001 0.174773 0.105828
H11   H     H_    0.365243 0.763390 0.172412 0.149798
H12   H     H_    0.888029 0.726996 0.499937 0.120233
H13   H     H_    0.500991 0.860871 0.215768 0.153196
H14   H     H_    0.888971 0.276704 0.490694 0.123186
H15   H     H_    0.111972 0.726996 0.500069 0.120236
H16   H     H_    0.398889 0.157922 0.258299 0.241699
H17   H     H_    0.196051 0.069114 0.260425 0.111684
H18   H     H_    0.183783 0.239095 0.321177 0.159857
H19   H     H_    0.193528 0.088191 0.414250 0.122942
H20   H     H_    0.734439 0.854876 0.654131 0.228250
N1    N     N_R   0.500000 0.852070 0.500000 -0.223995
N2    N     N_R   0.500000 0.147930 0.500000 -0.223911
N3    N     N_2   0.359350 0.150428 0.337031 -0.453655
N4    N     N_2   0.640423 0.849681 0.663349 -0.452426
N5    N     N_2   0.640658 0.150432 0.662962 -0.453646
N6    N     N_2   0.359571 0.849680 0.336655 -0.452427
O1    O     O_R   0.319640 0.618740 0.499990 -0.496309
O2    O     O_R   0.680360 0.381260 0.500010 -0.485145
O3    O     O_R   0.680360 0.618740 0.500010 -0.496314
O4    O     O_R   0.319640 0.381260 0.499990 -0.485151
O5    O     O_R   0.500010 0.618790 0.337200 -0.471202
O6    O     O_R   0.499990 0.381210 0.662800 -0.483540
O7    O     O_R   0.499990 0.618790 0.662800 -0.471196
O8    O     O_R   0.500010 0.381210 0.337200 -0.483535

loop_
_geom_bond_atom_site_label_1
_geom_bond_atom_site_label_2
_ccdc_geom_bond_type
Cu2   O2    S    
H16   N3    S    
C2    C4    A    
C1    O4    A    
C8    N4    S    
C13   H4    S    
Cu1   O5    S    
Cu1   N1    S    
Cu2   O6    S    
C12   O2    A    
C15   H10   S    
Cu1   O1    S    
C12   O3    A    
C4    H15   S    
C14   H7    S    
Cu1   Cu2   S    
Cu2   N2    S    
C2    H12   S    
C10   N1    A    
C16   O5    A    
C9    N2    A    
C16   C18   S    
C16   O8    A    
C11   H19   S    
C1    O1    A    
C17   O6    A    
C10   N6    S    
C14   H6    S    
C4    C6    A    
C19   C21   T    
Cu1   O3    S    
C18   C20   T    
C14   H8    S    
C13   H2    S    
C15   N6    S    
C14   N5    S    
C5    C12   S    
Cu2   O4    S    
C1    C6    S    
C2    C5    A    
C7    N2    A    
C9    N5    S    
C20   C21   S    
C3    H14   S    
C11   H18   S    
Cu2   O8    S    
C7    C10   A    
C15   H11   S    
Cu1   O7    S    
C8    N1    A    
C13   H3    S    
C3    C22   A    
H5    N5    S    
C6    C22   A    
C17   C19   S    
H9    N6    S    
C11   N3    S    
C13   N4    S    
C15   H13   S    
H20   N4    S    
C11   H17   S    
C17   O7    A    
C8    C9    A    
C3    C5    A    
C22   H1    S    
C7    N3    S    
