data_mof_unit_44551.cif
_audit_creation_date              2012-10-26T18:27:07-0400
_audit_creation_method            fapswitch 2.2
_symmetry_space_group_name_H-M    P1
_symmetry_Int_Tables_number       1
_space_group_crystal_system       triclinic
_cell_length_a                    15.008888
_cell_length_b                    10.940745
_cell_length_c                    9.716754
_cell_angle_alpha                 90.516816
_cell_angle_beta                  89.754535
_cell_angle_gamma                 90.938831
_cell_volume                      1595.28003943

loop_
_atom_site_label
_atom_site_type_symbol
_atom_type_description
_atom_site_fract_x
_atom_site_fract_y
_atom_site_fract_z
_atom_type_partial_charge
C1    C     C_R   0.502517 0.265327 0.499100 0.585826
C2    C     C_R   0.185859 0.388440 0.494692 -0.126066
C3    C     C_R   0.233045 0.498880 0.501970 0.004301
C4    C     C_R   0.329155 0.498754 0.500421 0.540219
C5    C     C_R   0.189117 0.609608 0.514877 -0.126242
C6    C     C_2   0.516235 0.930347 0.389151 -0.173257
C7    C     C_2   0.496479 0.866473 0.502603 -0.141725
C8    C     C_2   0.511905 0.064803 0.382379 0.214962
C9    C     C_2   0.509878 0.133114 0.498654 -0.035741
C10   C     C_2   0.445749 0.434072 0.923398 0.099924
C11   C     C_2   0.454606 0.420441 0.078120 0.376474
C12   C     C_R   0.908060 0.610417 0.514690 -0.028324
C13   C     C_R   0.499437 0.734512 0.500606 0.550212
C14   C     C_R   0.670970 0.499371 0.499256 0.609667
C15   C     C_R   0.814905 0.610795 0.507787 0.198693
C16   C     C_R   0.767674 0.499331 0.496369 0.006685
C17   C     C_R   0.812044 0.388655 0.476149 0.204150
C18   C     C_R   0.905584 0.386014 0.493420 -0.004103
C19   C     C_R   0.953557 0.498597 0.505434 -0.081801
C20   C     C_3   0.742744 0.752413 0.376881 0.010016
C21   C     C_3   0.800880 0.857034 0.320891 -0.272884
C22   C     C_3   0.765759 0.902143 0.183472 -0.489755
C23   C     C_R   0.952729 0.274718 0.500085 0.271362
C24   C     C_3   0.778133 0.245360 0.307381 0.026792
C25   C     C_3   0.717234 0.309148 0.205389 -0.259167
C26   C     C_3   0.727287 0.256801 0.060184 -0.476451
C27   C     C_3   0.878758 0.137287 0.638257 0.031516
C28   C     C_3   0.950147 0.072174 0.721236 -0.277958
C29   C     C_3   0.913126 0.026478 0.858315 -0.482824
C30   C     C_R   0.045625 0.277037 0.496987 -0.115214
C31   C     C_R   0.093046 0.387894 0.498739 -0.027491
C32   C     C_R   0.047378 0.499652 0.506637 0.018062
C33   C     C_R   0.095724 0.612243 0.514135 0.028273
C34   C     C_R   0.049013 0.723461 0.524066 0.217637
C35   C     C_R   0.956366 0.720504 0.529547 -0.051771
Cu1   Cu    Cu3+1 0.500020 0.500020 0.638630 0.989088
Cu2   Cu    Cu3+1 0.499980 0.499980 0.361370 1.009608
H1    H     H_    0.476035 0.908889 0.598392 0.099800
H2    H     H_    0.673147 0.783867 0.384143 0.167297
H3    H     H_    0.742719 0.675073 0.300988 0.128367
H4    H     H_    0.802280 0.934073 0.396239 0.194512
H5    H     H_    0.869940 0.824787 0.304962 0.168084
H6    H     H_    0.763343 0.826208 0.106840 0.157728
H7    H     H_    0.810764 0.975283 0.143548 0.146103
H8    H     H_    0.697938 0.939803 0.196711 0.145854
H9    H     H_    0.512531 0.057007 0.181862 0.313293
H10   H     H_    0.604427 0.591074 0.836609 0.373286
H11   H     H_    0.381227 0.273249 0.072482 0.292676
H12   H     H_    0.516189 0.092837 0.599329 0.047987
H13   H     H_    0.763335 0.145816 0.302596 0.172527
H14   H     H_    0.848808 0.257599 0.274057 0.147146
H15   H     H_    0.646866 0.297191 0.238422 0.250540
H16   H     H_    0.734479 0.408205 0.202765 0.167410
H17   H     H_    0.796806 0.270172 0.023060 0.134971
H18   H     H_    0.681882 0.304712 0.989467 0.198196
H19   H     H_    0.709731 0.157795 0.058441 0.148043
H20   H     H_    0.819491 0.075621 0.628800 0.171557
H21   H     H_    0.855982 0.220406 0.694928 0.140691
H22   H     H_    0.975244 0.993209 0.660910 0.220162
H23   H     H_    0.391712 0.384498 0.872888 0.070245
H24   H     H_    0.006921 0.136116 0.741617 0.159946
H25   H     H_    0.889184 0.104316 0.921673 0.140176
H26   H     H_    0.966367 0.979786 0.915701 0.165307
H27   H     H_    0.857238 0.960388 0.840863 0.158265
H28   H     H_    0.143264 0.835278 0.467378 0.322676
H29   H     H_    0.516096 0.581335 0.110464 0.230618
H30   H     H_    0.080740 0.191197 0.495195 0.140170
H31   H     H_    0.221655 0.303227 0.487476 0.112630
H32   H     H_    0.229184 0.692134 0.526458 0.112196
H33   H     H_    0.922212 0.806403 0.540892 0.172867
H34   H     H_    0.534274 0.882105 0.295093 0.125430
N1    N     N_2   0.499020 0.498660 0.846910 -0.097841
N2    N     N_2   0.499000 0.498630 0.153040 -0.291717
O1    O     O_R   0.500020 0.321960 0.617040 -0.524539
O2    O     O_3   0.511492 0.120611 0.255112 -0.657358
O3    O     O_3   0.575685 0.536761 0.904884 -0.668925
O4    O     O_3   0.410820 0.325330 0.143260 -0.620727
O5    O     O_3   0.761884 0.284228 0.445078 -0.557912
O6    O     O_3   0.909687 0.161874 0.503220 -0.565359
O7    O     O_3   0.090545 0.836822 0.528721 -0.728763
O8    O     O_R   0.499980 0.321920 0.382900 -0.386539
O9    O     O_R   0.370270 0.499990 0.617090 -0.517454
O10   O     O_R   0.370240 0.499950 0.382940 -0.464045
O11   O     O_R   0.500020 0.678080 0.617100 -0.497760
O12   O     O_R   0.499980 0.678040 0.382960 -0.526993
O13   O     O_R   0.629760 0.500050 0.617060 -0.487388
O14   O     O_R   0.629730 0.500010 0.382910 -0.537988
O15   O     O_3   0.769993 0.720666 0.511545 -0.588147

loop_
_geom_bond_atom_site_label_1
_geom_bond_atom_site_label_2
_ccdc_geom_bond_type
C29   H26   S    
N1    O3    S    
C26   H18   S    
C13   O11   A    
C1    O1    A    
Cu2   O12   S    
C28   C29   S    
C25   H16   S    
H10   O3    S    
C18   C19   A    
C2    H31   S    
C30   C31   A    
C20   H3    S    
C1    O8    A    
C15   C16   A    
C34   C35   A    
C5    H32   S    
C11   O4    S    
C34   O7    S    
C22   H7    S    
C31   C32   A    
C35   H33   S    
Cu1   O9    S    
C8    C9    D    
C5    C33   A    
C30   H30   S    
C28   H24   S    
C24   H14   S    
C29   H27   S    
H28   O7    S    
C21   C22   S    
Cu2   O8    S    
C19   C32   A    
C26   H17   S    
H9    O2    S    
C33   C34   A    
C24   H13   S    
C6    H34   S    
C18   C23   A    
C23   C30   A    
C9    H12   S    
C24   C25   S    
C14   O13   A    
C27   H20   S    
C20   H2    S    
C16   C17   A    
C6    C8    S    
Cu1   O13   S    
C25   C26   S    
H29   N2    S    
C8    O2    S    
C2    C31   A    
H11   O4    S    
C10   H23   S    
C22   H6    S    
C12   C15   A    
C17   C18   A    
C1    C9    S    
C12   C35   A    
Cu1   O1    S    
C21   H4    S    
C24   O5    S    
C11   N2    D    
C14   C16   S    
C3    C4    S    
C28   H22   S    
Cu2   N2    S    
C29   H25   S    
Cu1   Cu2   S    
Cu2   O14   S    
C3    C5    A    
C27   H21   S    
C26   H19   S    
C14   O14   A    
C6    C7    D    
C27   O6    S    
C32   C33   A    
C2    C3    A    
C25   H15   S    
C4    O10   A    
Cu1   O11   S    
C20   O15   S    
C12   C19   A    
C17   O5    S    
C7    H1    S    
C10   C11   S    
C21   H5    S    
C7    C13   S    
C22   H8    S    
C4    O9    A    
C20   C21   S    
C13   O12   A    
C27   C28   S    
Cu2   O10   S    
C23   O6    S    
Cu1   N1    S    
C15   O15   S    
C10   N1    D    
