data_mof_unit_63432.cif
_audit_creation_date              2013-03-05T16:44:42-0500
_audit_creation_method            fapswitch 2.2
_symmetry_space_group_name_H-M    P1
_symmetry_Int_Tables_number       1
_space_group_crystal_system       triclinic
_cell_length_a                    17.91126
_cell_length_b                    19.207275
_cell_length_c                    19.211251
_cell_angle_alpha                 94.598363
_cell_angle_beta                  99.020015
_cell_angle_gamma                 103.808489
_cell_volume                      6290.97408181

loop_
_atom_site_label
_atom_site_type_symbol
_atom_site_description
_atom_site_fract_x
_atom_site_fract_y
_atom_site_fract_z
_atom_type_partial_charge
Zn1   Zn    Zn3+2 0.565550 0.451340 0.451340 0.959606
Zn2   Zn    Zn3+2 0.429430 0.430690 0.543050 0.992756
Zn3   Zn    Zn3+2 0.439490 0.544930 0.432570 1.014902
Zn4   Zn    Zn3+2 0.565540 0.573040 0.573050 0.986013
O1    O     O_3   0.500000 0.500000 0.500000 -0.482397
O2    O     O_R   0.540910 0.554790 0.665460 -0.637923
O3    O     O_R   0.550840 0.462270 0.351610 -0.647772
O4    O     O_R   0.445650 0.335310 0.524600 -0.648402
O5    O     O_R   0.462600 0.647620 0.458330 -0.623818
O6    O     O_R   0.321500 0.427480 0.506110 -0.641134
O7    O     O_R   0.674970 0.575130 0.575140 -0.669077
O8    O     O_R   0.328550 0.507430 0.428780 -0.605298
O9    O     O_R   0.674980 0.489960 0.489960 -0.635077
O10   O     O_R   0.540930 0.349770 0.460420 -0.643259
O11   O     O_R   0.550820 0.667300 0.556650 -0.653357
O12   O     O_R   0.445640 0.455160 0.644460 -0.640478
O13   O     O_R   0.462610 0.527770 0.338470 -0.653054
C1    C     C_R   0.491709 0.506346 0.688190 0.815893
C2    C     C_R   0.508272 0.494572 0.312156 0.778682
C3    C     C_R   0.491487 0.308985 0.490950 0.783755
C4    C     C_R   0.508026 0.691302 0.509616 0.821542
C5    C     C_R   0.288286 0.458890 0.459272 0.881262
C6    C     C_R   0.712720 0.541399 0.539507 0.789487
C7    C     C_R   0.799314 0.559479 0.557582 -0.123067
C8    C     C_R   0.203466 0.442080 0.445379 -0.105024
C9    C     C_R   0.924643 0.623778 0.629868 -0.173200
C10   C     C_R   0.844163 0.616041 0.611034 -0.019337
C11   C     C_R   0.837655 0.516279 0.521587 -0.251130
C12   C     C_R   0.918894 0.525154 0.539001 0.089525
C13   C     C_R   0.961943 0.579596 0.594467 0.117152
C14   C     C_R   0.958910 0.482333 0.502358 0.075302
C15   C     C_R   0.042112 0.500745 0.516725 0.082507
C16   C     C_R   0.081619 0.550500 0.576747 -0.131211
C17   C     C_R   0.042301 0.589818 0.614369 -0.221385
C18   C     C_R   0.918996 0.420401 0.453934 -0.216745
C19   C     C_R   0.959603 0.378554 0.420693 -0.204037
C20   C     C_R   0.040897 0.399540 0.430553 0.135640
C21   C     C_R   0.083019 0.464401 0.474378 -0.016255
C22   C     C_R   0.080581 0.355607 0.397660 -0.182629
C23   C     C_R   0.161663 0.375254 0.407916 -0.257161
C24   C     C_R   0.164498 0.489339 0.474724 0.221095
H1    H     H_    0.075228 0.628919 0.659067 0.157816
H2    H     H_    0.191941 0.338962 0.385307 0.149416
H3    H     H_    0.926987 0.329576 0.386519 0.144657
H4    H     H_    0.959197 0.666362 0.670995 0.177747
H5    H     H_    0.802732 0.476714 0.478786 0.168054
H6    H     H_    0.142923 0.557895 0.597324 0.188783
H7    H     H_    0.856339 0.400152 0.443570 0.145548
H8    H     H_    0.048992 0.304910 0.365857 0.146608
C25   C     C_R   0.513667 0.496163 0.236690 0.003306
C26   C     C_R   0.457814 0.519276 0.190970 -0.223119
C27   C     C_R   0.463784 0.523227 0.119976 -0.167398
C28   C     C_R   0.526172 0.504205 0.093312 0.320806
C29   C     C_R   0.582432 0.482163 0.139196 -0.192802
C30   C     C_R   0.575967 0.477417 0.210242 -0.212500
C31   C     C_R   0.548082 0.544192 0.887702 -0.160091
C32   C     C_R   0.551928 0.545612 0.815787 -0.220114
C33   C     C_R   0.478935 0.506457 0.908372 0.317548
N1    N     N_2   0.534534 0.507475 0.021287 -0.199147
N2    N     N_2   0.471730 0.503111 0.980462 -0.202141
C34   C     C_R   0.487343 0.508698 0.763921 -0.007347
H9    H     H_    0.605699 0.574242 0.800752 0.171983
H10   H     H_    0.598709 0.572661 0.926938 0.155475
H11   H     H_    0.631013 0.467957 0.119595 0.146374
H12   H     H_    0.620290 0.460166 0.244640 0.166530
C35   C     C_R   0.418212 0.472296 0.784801 -0.200818
C36   C     C_R   0.413897 0.472120 0.856484 -0.191049
H13   H     H_    0.367329 0.444119 0.745651 0.168037
H14   H     H_    0.420049 0.541813 0.086242 0.154355
H15   H     H_    0.360133 0.443834 0.871774 0.146351
H16   H     H_    0.409428 0.534434 0.210053 0.170793
C37   C     C_R   0.508245 0.768159 0.515253 -0.007107
C38   C     C_R   0.470655 0.795192 0.457766 -0.198390
C39   C     C_R   0.467928 0.867136 0.463036 -0.158601
C40   C     C_R   0.502868 0.913732 0.526274 0.318088
C41   C     C_R   0.539388 0.886481 0.583956 -0.185590
C42   C     C_R   0.542827 0.814368 0.578413 -0.203037
C43   C     C_R   0.463107 0.118189 0.537075 -0.162597
C44   C     C_R   0.461361 0.190654 0.539470 -0.224092
C45   C     C_R   0.491044 0.085854 0.481429 0.320731
N3    N     N_2   0.501353 0.987535 0.533695 -0.197124
N4    N     N_2   0.493476 0.012494 0.475788 -0.202805
C46   C     C_R   0.488401 0.231700 0.487043 0.005839
H17   H     H_    0.440486 0.214937 0.582932 0.164473
H18   H     H_    0.442333 0.087498 0.578199 0.154308
H19   H     H_    0.565903 0.921457 0.633076 0.147482
H20   H     H_    0.571462 0.794564 0.623761 0.169882
C47   C     C_R   0.514965 0.198879 0.431182 -0.210968
C48   C     C_R   0.515196 0.126310 0.428043 -0.193505
H21   H     H_    0.535355 0.229305 0.389714 0.163335
H22   H     H_    0.437835 0.886030 0.417865 0.155004
H23   H     H_    0.535671 0.101721 0.384485 0.144813
H24   H     H_    0.443068 0.760665 0.408588 0.171953
N5    N     N_R   0.205617 0.563901 0.496658 0.187880
O14   O     O_R   0.176746 0.614815 0.471643 -0.369895
O15   O     O_R   0.271589 0.581328 0.541431 -0.425577
C49   C     C_2   0.810884 0.670504 0.645781 0.423865
H25   H     H_    0.762850 0.687980 0.617228 0.094128
O16   O     O_2   0.838791 0.698512 0.706593 -0.569046

loop_
_geom_bond_atom_site_label_1
_geom_bond_atom_site_label_2
_geom_bond_distance
_ccdc_geom_bond_type
C35   H13   1.083292 S    
C38   C39   1.390492 A    
C18   C19   1.387529 A    
C17   H1    1.084255 S    
C7    C10   1.423353 A    
C38   H24   1.083186 S    
C49   H25   1.083133 S    
C28   N1    1.419659 S    
C32   H9    1.083172 S    
C28   C29   1.398798 A    
O6    C5    1.272029 A    
C11   H5    1.075398 S    
C9    C10   1.398753 A    
C12   C13   1.415014 A    
Zn1   O1    1.963100 S    
C19   C20   1.392694 A    
C8    C23   1.396509 A    
C44   H17   1.083127 S    
C43   C45   1.410155 A    
C33   N2    1.416035 S    
O8    C5    1.277317 A    
C31   C32   1.396147 A    
O9    C6    1.291423 A    
C45   C48   1.396161 A    
Zn3   O8    1.932765 S    
C9    H4    1.085202 S    
C30   H12   1.083005 S    
C34   C35   1.403701 A    
C23   H2    1.083705 S    
C10   C49   1.485133 S    
C14   C15   1.423345 A    
C5    C8    1.452054 S    
C6    C7    1.483739 S    
Zn3   O13   1.937147 S    
C27   H14   1.082795 S    
C15   C21   1.423380 A    
Zn2   O12   1.926502 S    
C46   C47   1.403654 A    
N1    N2    1.247140 D    
C26   H16   1.083151 S    
C18   H7    1.076818 S    
C49   O16   1.221420 D    
C16   C17   1.383690 A    
O2    C1    1.275715 A    
C39   C40   1.410120 A    
C13   C17   1.391717 A    
C4    C37   1.470528 S    
C26   C27   1.391352 A    
O10   C3    1.283466 A    
C41   C42   1.397408 A    
C21   C24   1.421979 A    
Zn4   O2    1.934105 S    
C8    C24   1.404518 A    
C22   C23   1.388195 A    
C43   C44   1.396902 A    
C40   N3    1.420461 S    
N3    N4    1.247358 D    
Zn4   O7    1.944850 S    
C39   H22   1.082823 S    
C40   C41   1.399634 A    
C20   C21   1.419177 A    
Zn3   O5    1.922531 S    
C24   N5    1.439940 S    
O11   C4    1.278584 A    
C12   C14   1.425649 A    
C25   C26   1.402979 A    
C31   H10   1.082748 S    
O4    C3    1.288328 A    
C48   H23   1.083220 S    
N5    O15   1.301729 A    
C43   H18   1.082723 S    
C45   N4    1.416091 S    
C22   H8    1.083895 S    
C47   H21   1.083291 S    
C9    C13   1.396283 A    
O3    C2    1.288697 A    
C16   H6    1.078227 S    
C14   C18   1.414078 A    
C19   H3    1.084286 S    
Zn2   O1    1.937787 S    
Zn1   O9    1.924624 S    
Zn2   O6    1.936610 S    
C41   H19   1.082997 S    
C27   C28   1.410310 A    
C29   C30   1.396103 A    
C11   C12   1.406443 A    
Zn1   O3    1.927933 S    
Zn2   O4    1.936094 S    
C7    C11   1.402565 A    
C37   C38   1.402938 A    
Zn3   O1    1.944986 S    
C37   C42   1.404627 A    
C1    C34   1.466878 S    
C32   C34   1.402685 A    
C25   C30   1.404701 A    
C36   H15   1.083199 S    
C15   C16   1.410073 A    
Zn4   O11   1.933880 S    
C20   C22   1.399387 A    
C44   C46   1.403051 A    
C2    C25   1.470320 S    
O5    C4    1.275511 A    
C29   H11   1.083048 S    
O7    C6    1.276203 A    
O13   C2    1.287619 A    
C31   C33   1.410233 A    
C35   C36   1.391567 A    
N5    O14   1.301360 A    
C33   C36   1.396219 A    
Zn4   O1    1.922826 S    
C47   C48   1.391337 A    
C42   H20   1.082994 S    
O12   C1    1.271289 A    
C3    C46   1.467635 S    
Zn1   O10   1.923240 S    
