data_mof_unit_66288.cif
_audit_creation_date              2013-03-05T16:44:32-0500
_audit_creation_method            fapswitch 2.2
_symmetry_space_group_name_H-M    P1
_symmetry_Int_Tables_number       1
_space_group_crystal_system       triclinic
_cell_length_a                    15.486255
_cell_length_b                    19.225535
_cell_length_c                    19.214733
_cell_angle_alpha                 94.657239
_cell_angle_beta                  102.268284
_cell_angle_gamma                 97.044427
_cell_volume                      5513.9548372

loop_
_atom_site_label
_atom_site_type_symbol
_atom_site_description
_atom_site_fract_x
_atom_site_fract_y
_atom_site_fract_z
_atom_type_partial_charge
Zn1   Zn    Zn3+2 0.425320 0.550450 0.550460 1.079295
Zn2   Zn    Zn3+2 0.580410 0.455020 0.567370 0.986947
Zn3   Zn    Zn3+2 0.568940 0.565780 0.453410 0.979649
Zn4   Zn    Zn3+2 0.425330 0.428750 0.428760 1.009492
O1    O     O_3   0.500000 0.500000 0.500000 -0.499909
O2    O     O_R   0.453390 0.335660 0.446330 -0.637940
O3    O     O_R   0.442080 0.649780 0.539130 -0.604167
O4    O     O_R   0.561920 0.473910 0.663190 -0.653773
O5    O     O_R   0.542610 0.540650 0.351350 -0.641757
O6    O     O_R   0.703360 0.489010 0.567610 -0.641273
O7    O     O_R   0.300660 0.429640 0.429680 -0.647514
O8    O     O_R   0.695340 0.566530 0.487850 -0.637085
O9    O     O_R   0.300650 0.514820 0.514850 -0.593907
O10   O     O_R   0.453370 0.540700 0.651360 -0.605961
O11   O     O_R   0.442100 0.444740 0.334100 -0.647283
O12   O     O_R   0.561930 0.354050 0.543340 -0.641214
O13   O     O_R   0.542600 0.660510 0.471200 -0.647951
C1    C     C_R   0.509741 0.311609 0.493592 0.820748
C2    C     C_R   0.489244 0.687773 0.504896 0.856897
C3    C     C_R   0.509578 0.508814 0.690872 0.826304
C4    C     C_R   0.490865 0.490633 0.309007 0.820432
C5    C     C_R   0.741267 0.535029 0.535761 0.781092
C6    C     C_R   0.258215 0.465305 0.466444 0.882839
C7    C     C_R   0.973215 0.559353 0.644972 -0.136501
H1    H     H_    0.848703 0.584620 0.663476 0.137820
H2    H     H_    0.131666 0.520497 0.677778 0.191605
H3    H     H_    0.006597 0.572865 0.700897 0.148193
C8    C     C_R   0.838136 0.546823 0.552674 0.008142
C9    C     C_R   0.117213 0.433099 0.376718 -0.168440
C10   C     C_R   0.027222 0.436919 0.353017 -0.126832
C11   C     C_R   0.979253 0.463348 0.399976 -0.139995
C12   C     C_R   0.019287 0.482286 0.473687 0.058005
C13   C     C_R   0.109305 0.470945 0.499421 -0.030207
C14   C     C_R   0.972842 0.511953 0.522556 0.085943
C15   C     C_R   0.017124 0.529684 0.595739 0.099152
C16   C     C_R   0.102023 0.512386 0.620769 -0.268300
C17   C     C_R   0.145835 0.478625 0.574600 0.307624
C18   C     C_R   0.882722 0.522455 0.501949 -0.223629
C19   C     C_R   0.883743 0.566823 0.623719 -0.181126
C20   C     C_R   0.159992 0.453062 0.448791 -0.039903
H4    H     H_    0.842997 0.506952 0.448488 0.125831
H5    H     H_    0.154504 0.417949 0.337586 0.164184
H6    H     H_    0.911080 0.468289 0.376426 0.130001
H7    H     H_    0.995365 0.422589 0.296947 0.152854
C21   C     C_R   0.479940 0.762717 0.501635 -0.157026
C22   C     C_R   0.555245 0.809870 0.499262 -0.256458
C23   C     C_R   0.549903 0.881030 0.495862 -0.204465
C24   C     C_R   0.468314 0.907034 0.494122 0.188352
C25   C     C_R   0.391425 0.859999 0.495394 0.201373
C26   C     C_R   0.397111 0.787561 0.499426 0.191916
C27   C     C_R   0.448688 0.113956 0.455436 -0.124153
C28   C     C_R   0.444206 0.185843 0.453077 -0.201515
C29   C     C_R   0.525117 0.091315 0.496305 0.314380
N1    N     N_2   0.460260 0.979265 0.487501 -0.118960
N2    N     N_2   0.532941 0.019221 0.502249 -0.187783
C30   C     C_R   0.515299 0.235823 0.491887 -0.013621
H8    H     H_    0.384595 0.202306 0.422241 0.177480
H9    H     H_    0.392614 0.076380 0.425575 0.175356
C31   C     C_R   0.591970 0.212984 0.531122 -0.198621
C32   C     C_R   0.596962 0.141343 0.532597 -0.177966
H10   H     H_    0.648163 0.250550 0.560895 0.172561
H11   H     H_    0.609746 0.915491 0.493493 0.184164
H12   H     H_    0.656389 0.124641 0.563471 0.155529
H13   H     H_    0.618975 0.791594 0.500521 0.189988
C33   C     C_R   0.490562 0.484911 0.232139 -0.056551
C34   C     C_R   0.532440 0.541218 0.203706 -0.206871
C35   C     C_R   0.535396 0.535683 0.131685 -0.218110
C36   C     C_R   0.496402 0.473376 0.086281 0.266209
C37   C     C_R   0.455572 0.416575 0.114946 0.270872
C38   C     C_R   0.451934 0.422640 0.187264 -0.245412
C39   C     C_R   0.541605 0.461794 0.880707 -0.136986
C40   C     C_R   0.543922 0.459401 0.808282 -0.200900
C41   C     C_R   0.508957 0.518132 0.913732 0.315595
N3    N     N_2   0.498678 0.466223 0.012505 -0.141185
N4    N     N_2   0.505781 0.523786 0.987084 -0.193418
C42   C     C_R   0.512644 0.512537 0.767964 0.006249
H14   H     H_    0.568346 0.415437 0.783505 0.172072
H15   H     H_    0.565655 0.420097 0.910806 0.167881
H16   H     H_    0.420137 0.378320 0.208462 0.195880
C43   C     C_R   0.481383 0.568967 0.801368 -0.170767
C44   C     C_R   0.480791 0.572071 0.873866 -0.177553
H17   H     H_    0.457648 0.610911 0.771448 0.172443
H18   H     H_    0.569064 0.579970 0.111747 0.173059
H19   H     H_    0.456742 0.616094 0.898907 0.155093
H20   H     H_    0.563263 0.589689 0.237200 0.183505
N5    N     N_R   0.307027 0.885540 0.490317 0.237278
O14   O     O_R   0.235676 0.852224 0.446047 -0.307914
O15   O     O_R   0.301665 0.943636 0.527910 -0.340756
N6    N     N_R   0.318652 0.739625 0.500191 0.249334
O16   O     O_R   0.290083 0.686888 0.450342 -0.374880
O17   O     O_R   0.272900 0.750765 0.548471 -0.315791
Br1   Br    Br    0.402859 0.330292 0.055996 -0.451704
N7    N     N_R   0.220884 0.445111 0.605685 0.208797
O18   O     O_R   0.273519 0.472188 0.666526 -0.377219
O19   O     O_R   0.227790 0.381828 0.579861 -0.407165

loop_
_geom_bond_atom_site_label_1
_geom_bond_atom_site_label_2
_geom_bond_distance
_ccdc_geom_bond_type
C35   H18   1.082848 S    
N7    O18   1.301615 A    
C9    H5    1.083483 S    
C15   C16   1.391046 A    
C7    H3    1.084019 S    
C40   C42   1.403137 A    
C23   H11   1.082652 S    
C21   C22   1.397812 A    
O6    C5    1.270861 A    
C24   N1    1.422888 S    
C3    C42   1.467540 S    
O4    C3    1.284122 A    
C11   H6    1.075616 S    
C32   H12   1.083234 S    
Zn1   O1    1.953796 S    
C16   C17   1.392458 A    
C10   C11   1.388213 A    
N5    O15   1.301298 A    
C36   N3    1.421441 S    
C6    C20   1.471107 S    
O8    C5    1.279869 A    
C7    C19   1.387495 A    
O9    C6    1.283041 A    
C14   C15   1.420869 A    
Zn3   O8    1.926347 S    
C22   C23   1.386640 A    
C23   C24   1.409679 A    
C36   C37   1.404280 A    
N6    O17   1.301067 A    
C37   Br1   1.915961 S    
Zn2   O12   1.930126 S    
C1    C30   1.468207 S    
C34   C35   1.390214 A    
C31   C32   1.391163 A    
N7    O19   1.301663 A    
C5    C8    1.450810 S    
C41   N4    1.416572 S    
C10   H7    1.082852 S    
C34   H20   1.083218 S    
C41   C44   1.396543 A    
C29   C32   1.395759 A    
C29   N2    1.417699 S    
O2    C1    1.276883 A    
C31   H10   1.083214 S    
C13   C20   1.420279 A    
N3    N4    1.247460 D    
C35   C36   1.410560 A    
C7    C15   1.401269 A    
O10   C3    1.278863 A    
C18   H4    1.076692 S    
C43   H17   1.083538 S    
C39   C41   1.410854 A    
N5    O14   1.301257 A    
Zn4   O1    1.929155 S    
C8    C19   1.395923 A    
C13   C17   1.423414 A    
C27   C28   1.396192 A    
C22   H13   1.083683 S    
C27   C29   1.412070 A    
C14   C18   1.411571 A    
C40   H14   1.083397 S    
Zn3   O5    1.924427 S    
C26   N6    1.435608 S    
C11   C12   1.417989 A    
C8    C18   1.391912 A    
C17   N7    1.440084 S    
C27   H9    1.082696 S    
Zn4   O7    1.936659 S    
H2    C16   1.084421 S    
C24   C25   1.409973 A    
C33   C34   1.401927 A    
O3    C2    1.284930 A    
Zn4   O2    1.931934 S    
Zn1   O9    1.924316 S    
Zn2   O6    1.934683 S    
C44   H19   1.083473 S    
N1    N2    1.246708 D    
C4    C33   1.471108 S    
C38   H16   1.083087 S    
Zn1   O3    1.931725 S    
C25   N5    1.438721 S    
Zn2   O4    1.935123 S    
C42   C43   1.403977 A    
C43   C44   1.391477 A    
Zn3   O1    1.949214 S    
C2    C21   1.470532 S    
C30   C31   1.404342 A    
C12   C13   1.426355 A    
Zn4   O11   1.934476 S    
C39   C40   1.396875 A    
H1    C19   1.083680 S    
O5    C4    1.278929 A    
C21   C26   1.416241 A    
C9    C20   1.401956 A    
O7    C6    1.276891 A    
O13   C2    1.286529 A    
Zn3   O13   1.934042 S    
C37   C38   1.398664 A    
C28   H8    1.083102 S    
C9    C10   1.384123 A    
Zn2   O1    1.932626 S    
C28   C30   1.402423 A    
O11   C4    1.281273 A    
O12   C1    1.271207 A    
C25   C26   1.413489 A    
Zn1   O10   1.924508 S    
N6    O16   1.301288 A    
C39   H15   1.082977 S    
C33   C38   1.404323 A    
C12   C14   1.423052 A    
