data_mof_unit_29619.cif
_audit_creation_date              2013-03-05T15:46:52-0500
_audit_creation_method            fapswitch 2.2
_symmetry_space_group_name_H-M    P1
_symmetry_Int_Tables_number       1
_space_group_crystal_system       triclinic
_cell_length_a                    14.970001
_cell_length_b                    15.255586
_cell_length_c                    14.841904
_cell_angle_alpha                 109.08773
_cell_angle_beta                  109.650624
_cell_angle_gamma                 110.029356
_cell_volume                      2597.67009179

loop_
_atom_site_label
_atom_site_type_symbol
_atom_site_description
_atom_site_fract_x
_atom_site_fract_y
_atom_site_fract_z
_atom_type_partial_charge
C1    C     C_R   0.195693 0.993916 0.902344 0.141030
C2    C     C_R   0.801852 0.999770 0.089550 0.190054
N1    N     N_R   0.293810 0.002730 0.945950 -0.080576
N2    N     N_R   0.706190 0.997270 0.054050 -0.087410
C3    C     C_R   0.798474 0.215244 0.308360 -0.104691
C4    C     C_R   0.255780 0.782555 0.686025 -0.044646
H1    H     H_    0.826003 0.188229 0.365169 0.166592
H2    H     H_    0.245826 0.808349 0.626001 0.157059
N3    N     N_R   0.706160 0.152130 0.208910 -0.059446
N4    N     N_R   0.293840 0.847870 0.791090 -0.054930
C5    C     C_R   0.408185 0.973063 0.222534 -0.048638
C6    C     C_R   0.590897 0.090587 0.788558 -0.046553
H3    H     H_    0.323728 0.938463 0.200488 0.166550
H4    H     H_    0.675343 0.141304 0.816622 0.178016
N5    N     N_R   0.443140 0.945920 0.152090 -0.056049
N6    N     N_R   0.556860 0.054080 0.847910 -0.059474
C7    C     C_R   0.588575 0.313301 0.046538 0.211399
C8    C     C_R   0.411682 0.699954 0.000304 0.150796
N7    N     N_R   0.556830 0.208940 0.002760 -0.070420
N8    N     N_R   0.443170 0.791060 0.997240 -0.068353
C9    C     C_R   0.591459 0.066278 0.314984 -0.099905
C10   C     C_R   0.409065 0.006289 0.700521 -0.075116
H5    H     H_    0.676400 0.118801 0.379407 0.116238
H6    H     H_    0.325244 0.985070 0.650834 0.138085
N9    N     N_R   0.556790 0.002750 0.208910 -0.051696
N10   N     N_R   0.443210 0.997250 0.791090 -0.057281
C11   C     C_R   0.404962 0.217044 0.969247 -0.109767
C12   C     C_R   0.594629 0.787085 0.078209 -0.071871
H7    H     H_    0.319744 0.189726 0.941884 0.138599
H8    H     H_    0.679684 0.812681 0.122683 0.143261
N11   N     N_R   0.443180 0.152110 0.945950 -0.054606
N12   N     N_R   0.556820 0.847890 0.054050 -0.062780
C13   C     C_R   0.800211 0.303089 0.215264 -0.065342
C14   C     C_R   0.255000 0.688542 0.774141 -0.076143
H9    H     H_    0.834389 0.354005 0.185928 0.175824
H10   H     H_    0.242450 0.624055 0.792356 0.150430
N13   N     N_R   0.706170 0.208950 0.152090 -0.061994
N14   N     N_R   0.293830 0.791050 0.847910 -0.051103
C15   C     C_R   0.195209 0.907112 0.995829 0.189242
C16   C     C_R   0.801677 0.090265 0.998832 0.153709
N15   N     N_R   0.293800 0.945910 0.002760 -0.091098
N16   N     N_R   0.706200 0.054090 0.997240 -0.086837
C17   C     C_R   0.134065 0.937191 0.934733 -0.052756
C18   C     C_R   0.861011 0.055481 0.054131 -0.050877
C19   C     C_R   0.857796 0.312043 0.315690 0.149449
C20   C     C_R   0.233252 0.681551 0.671628 0.092066
C21   C     C_R   0.499167 0.052098 0.325529 0.088914
C22   C     C_R   0.500487 0.067122 0.697851 0.088354
C23   C     C_R   0.493509 0.319903 0.032281 -0.035590
C24   C     C_R   0.505450 0.693078 0.045226 -0.002062
Ni1   Ni    Ni4+2 0.369690 0.999990 0.869700 0.255746
Ni2   Ni    Ni4+2 0.630310 0.000010 0.130300 0.245509
Ni3   Ni    Ni4+2 0.369670 0.869670 0.000000 0.276447
Ni4   Ni    Ni4+2 0.630330 0.130330 0.000000 0.270043
C25   C     C_R   0.103855 0.203472 0.746436 -0.056766
C26   C     C_R   0.842832 0.849141 0.401835 -0.125355
H11   H     H_    0.058841 0.167082 0.657527 0.201485
H12   H     H_    0.862582 0.900743 0.484230 0.181718
C27   C     C_R   0.217110 0.275888 0.805632 -0.162999
C28   C     C_R   0.733797 0.768688 0.321605 -0.174536
H13   H     H_    0.258293 0.295266 0.761380 0.195019
H14   H     H_    0.670598 0.756523 0.344092 0.181670
C29   C     C_R   0.276649 0.325571 0.921463 -0.104692
C30   C     C_R   0.706430 0.703032 0.213437 -0.099232
C31   C     C_R   0.220338 0.301148 0.977986 0.333389
C32   C     C_R   0.791047 0.718529 0.185922 0.294744
C33   C     C_R   0.107344 0.223794 0.916307 -0.236819
C34   C     C_R   0.900656 0.796543 0.269508 -0.164024
H15   H     H_    0.063710 0.202415 0.957797 0.195368
H16   H     H_    0.966499 0.810548 0.250873 0.228761
C35   C     C_R   0.049017 0.176906 0.801518 0.286973
C36   C     C_R   0.926141 0.862618 0.375787 0.309987
C37   C     C_R   0.410460 0.503603 0.975588 -0.128154
C38   C     C_R   0.579874 0.513792 0.138815 -0.132212
H17   H     H_    0.345263 0.497220 0.908518 0.154377
H18   H     H_    0.647498 0.515918 0.199030 0.161913
C39   C     C_R   0.506153 0.602135 0.054894 0.129184
C40   C     C_R   0.484459 0.415428 0.056603 0.098902
C41   C     C_R   0.594227 0.607761 0.137048 0.108697
C42   C     C_R   0.393460 0.412724 0.982489 0.102387
C43   C     C_R   0.994536 0.504954 0.412593 0.128977
C44   C     C_R   0.153678 0.483631 0.554444 0.119096
C45   C     C_R   0.104289 0.585503 0.473556 0.247116
C46   C     C_R   0.052205 0.391216 0.468675 0.292919
C47   C     C_R   0.174227 0.583839 0.563078 -0.120437
C48   C     C_R   0.968259 0.403192 0.402917 -0.210929
C49   C     C_R   0.600007 0.170272 0.625483 0.353575
C50   C     C_R   0.399135 0.066845 0.431199 0.369952
C51   C     C_R   0.598108 0.162507 0.528791 -0.255569
C52   C     C_R   0.400826 0.063174 0.524122 -0.229431
H19   H     H_    0.675042 0.203091 0.531937 0.183242
H20   H     H_    0.323501 0.025440 0.521025 0.195273
C53   C     C_R   0.498253 0.099711 0.428710 -0.059252
C54   C     C_R   0.501146 0.104741 0.618122 -0.072097
C55   C     C_R   0.110670 0.057561 0.065523 -0.093565
C56   C     C_R   0.883864 0.937852 0.919853 -0.128309
H21   H     H_    0.199028 0.104600 0.120641 0.196878
H22   H     H_    0.795547 0.891830 0.863777 0.150304
C57   C     C_R   0.044358 0.087806 0.096625 0.000586
C58   C     C_R   0.950266 0.907075 0.889184 -0.042250
H23   H     H_    0.080167 0.157302 0.176322 0.203457
H24   H     H_    0.914561 0.837565 0.809542 0.161937
C59   C     C_R   0.931609 0.027561 0.023589 0.073700
C60   C     C_R   0.062992 0.966718 0.962843 0.077055
I1    I     I_    0.121799 0.978924 0.746800 -0.430534
I2    I     I_    0.882299 0.001036 0.235914 -0.314997
N17   N     N_R   0.275033 0.356157 0.096760 0.249622
O1    O     O_R   0.346196 0.459012 0.154796 -0.345173
O2    O     O_R   0.241657 0.307666 0.146428 -0.389433
N18   N     N_R   0.768092 0.660057 0.074558 0.256639
O3    O     O_R   0.670076 0.611947 0.989832 -0.371514
O4    O     O_R   0.848162 0.663806 0.056290 -0.290102
I3    I     I_    0.874113 0.552731 0.375399 -0.314247
I4    I     I_    0.280706 0.469391 0.657879 -0.245609
N19   N     N_R   0.147057 0.659686 0.438260 0.248347
O5    O     O_R   0.249940 0.701228 0.464104 -0.359074
O6    O     O_R   0.081299 0.669592 0.363811 -0.312094
N20   N     N_R   0.037477 0.287639 0.447495 0.248572
O7    O     O_R   0.077046 0.247485 0.390427 -0.322386
O8    O     O_R   0.017597 0.251451 0.510848 -0.388026
N21   N     N_R   0.700378 0.247385 0.728868 0.235606
O9    O     O_R   0.795061 0.268109 0.735757 -0.332427
O10   O     O_R   0.697979 0.311276 0.810122 -0.323254
N22   N     N_R   0.298586 0.040269 0.342761 0.235143
O11   O     O_R   0.203819 0.968394 0.319601 -0.344333
O12   O     O_R   0.301078 0.097665 0.294345 -0.404606
I5    I     I_    0.729341 0.424512 0.057876 -0.162066
I6    I     I_    0.262408 0.620686 0.997861 -0.257843
I7    I     I_    0.117555 0.777867 0.018467 -0.156409
I8    I     I_    0.882120 0.232485 0.995965 -0.259403
I9    I     I_    0.878341 0.064479 0.710925 -0.332742
I10   I     I_    0.089277 0.990748 0.490610 -0.235064

loop_
_geom_bond_atom_site_label_1
_geom_bond_atom_site_label_2
_geom_bond_distance
_ccdc_geom_bond_type
C10   C22   1.387938 A    
C29   C31   1.420607 A    
C25   C27   1.395413 A    
C11   H7    1.068983 S    
C13   C19   1.380358 A    
C32   C34   1.405494 A    
C50   N22   1.434588 S    
N7    N11   1.379795 A    
N20   O8    1.301011 A    
C15   N15   1.341229 A    
C38   H18   1.083813 S    
N2    Ni2   1.854451 S    
N5    Ni3   1.842473 S    
C46   C48   1.419212 A    
C13   H9    1.074008 S    
C55   C57   1.376253 A    
N5    N9    1.379794 A    
C33   C35   1.396870 A    
C31   C33   1.405881 A    
N19   O5    1.302274 A    
C49   C54   1.417025 A    
C58   C60   1.388377 A    
C23   C40   1.447897 S    
C28   H14   1.083289 S    
C17   C60   1.418781 S    
N12   Ni2   1.890157 S    
C9    N9    1.339843 A    
C8    I6    2.126718 S    
N20   O7    1.300058 A    
C12   C24   1.366902 A    
C1    C17   1.361831 A    
C6    N6    1.331975 A    
C2    C18   1.368470 A    
N19   O6    1.300912 A    
C56   H22   1.084200 S    
N17   O1    1.301062 A    
C36   I10   2.107453 S    
C14   C20   1.403298 A    
C51   H19   1.080927 S    
C8    N8    1.327782 A    
C43   C48   1.408305 A    
C6    C22   1.378347 A    
C20   C47   1.472409 S    
C16   N16   1.332829 A    
C5    C21   1.383796 A    
N17   O2    1.300578 A    
N3    Ni2   1.889236 S    
C5    N5    1.331030 A    
N4    Ni1   1.889236 S    
N3    N13   1.393076 A    
C43   C45   1.384963 A    
C18   C59   1.417090 S    
C52   C54   1.401340 A    
N6    Ni4   1.842475 S    
C29   C42   1.483398 S    
C39   C41   1.416074 A    
N6    N10   1.379794 A    
C27   H13   1.083199 S    
C11   N11   1.313558 A    
C45   N19   1.442945 S    
C12   N12   1.322905 A    
C44   I4    2.134884 S    
C57   C59   1.387017 A    
C7    C23   1.410620 A    
N18   O3    1.300257 A    
C3    H1    1.077260 S    
N1    Ni1   1.854450 S    
C7    I5    2.114953 S    
C4    H2    1.072782 S    
C15   I7    2.116080 S    
C26   C36   1.395600 A    
C3    C19   1.383048 A    
C2    I2    2.089688 S    
C13   N13   1.330466 A    
C26   C28   1.397564 A    
C1    N1    1.327695 A    
C30   C32   1.425890 A    
C2    N2    1.331102 A    
C3    N3    1.342622 A    
C52   H20   1.078842 S    
C34   C36   1.393434 A    
C58   H24   1.083702 S    
C21   C53   1.471861 S    
C32   N18   1.445487 S    
N15   Ni3   1.883999 S    
N21   O9    1.301489 A    
C22   C54   1.475748 S    
N13   Ni4   1.842769 S    
N7    Ni4   1.884824 S    
C46   N20   1.426222 S    
C57   H23   1.083778 S    
C50   C52   1.390627 A    
C44   C46   1.405093 A    
C38   C41   1.385391 A    
C25   H11   1.081726 S    
C38   C40   1.393875 A    
C30   C41   1.479301 S    
C10   H6    1.080002 S    
C37   H17   1.082142 S    
C24   C39   1.443858 S    
C55   C60   1.400736 A    
C8    C24   1.393950 A    
N22   O12   1.300623 A    
N8    N12   1.379797 A    
C49   N21   1.433190 S    
C16   I8    2.112912 S    
C50   C53   1.412017 A    
N1    N15   1.392957 A    
C4    C20   1.383445 A    
C45   C47   1.402438 A    
C14   N14   1.345966 A    
N11   Ni1   1.890157 S    
N8    Ni3   1.884823 S    
C4    N4    1.321529 A    
C15   C17   1.368302 A    
C55   H21   1.082532 S    
C44   C47   1.404035 A    
C27   C29   1.406712 A    
N4    N14   1.393076 A    
C28   C30   1.404751 A    
C9    H5    1.075375 S    
C19   C48   1.466885 S    
C6    H4    1.065505 S    
N9    Ni2   1.854062 S    
N10   Ni1   1.854064 S    
N16   Ni4   1.883997 S    
C5    H3    1.065759 S    
N14   Ni3   1.842772 S    
N2    N16   1.392957 A    
C56   C58   1.378413 A    
C12   H8    1.065360 S    
C7    N7    1.334264 A    
C37   C42   1.366053 A    
C26   H12   1.081845 S    
C40   C42   1.411190 A    
C51   C53   1.397732 A    
N18   O4    1.302038 A    
N21   O10   1.299996 A    
C35   I9    2.111170 S    
C16   C18   1.364390 A    
C14   H10   1.075970 S    
C34   H16   1.082328 S    
C10   N10   1.339629 A    
C56   C59   1.402151 A    
C43   I3    2.140029 S    
C49   C51   1.390463 A    
C37   C39   1.389541 A    
C33   H15   1.080831 S    
C31   N17   1.439868 S    
C25   C35   1.395229 A    
C11   C23   1.369534 A    
C1    I1    2.090284 S    
N22   O11   1.301154 A    
C9    C21   1.393903 A    
