data_mof_unit_28270.cif
_audit_creation_date              2013-03-05T16:35:51-0500
_audit_creation_method            fapswitch 2.2
_symmetry_space_group_name_H-M    P1
_symmetry_Int_Tables_number       1
_space_group_crystal_system       triclinic
_cell_length_a                    23.545368
_cell_length_b                    9.089814
_cell_length_c                    7.781611
_cell_angle_alpha                 89.999078
_cell_angle_beta                  90.0
_cell_angle_gamma                 89.999949
_cell_volume                      1665.44385286

loop_
_atom_site_label
_atom_site_type_symbol
_atom_site_description
_atom_site_fract_x
_atom_site_fract_y
_atom_site_fract_z
_atom_type_partial_charge
O1    O     O_R   0.500000 0.288390 0.642760 -0.575598
O2    O     O_R   0.500000 0.711610 0.357240 -0.575598
O3    O     O_R   0.500000 0.711610 0.642760 -0.576084
O4    O     O_R   0.500000 0.288390 0.357240 -0.576084
C1    C     C_R   0.500000 0.220010 0.500001 0.850155
C2    C     C_R   0.500000 0.779990 0.499999 0.850155
O5    O     O_R   0.417880 0.500000 0.642820 -0.584549
O6    O     O_R   0.582120 0.500000 0.357180 -0.584550
O7    O     O_R   0.582120 0.500000 0.642820 -0.584550
O8    O     O_R   0.417880 0.500000 0.357180 -0.584549
C3    C     C_R   0.208909 0.500000 0.500000 0.033746
C4    C     C_R   0.791091 0.500000 0.500000 0.033751
C5    C     C_R   0.390608 0.500000 0.500000 0.873990
C6    C     C_R   0.609392 0.500000 0.500000 0.873992
Cu1   Cu    Cu3+1 0.500000 0.500000 0.669080 1.023143
Cu2   Cu    Cu3+1 0.500000 0.500000 0.330920 1.023143
C7    C     C_R   0.297922 0.505033 0.655825 -0.269622
C8    C     C_R   0.702077 0.494983 0.344176 -0.269623
C9    C     C_R   0.297922 0.494967 0.344174 -0.269623
C10   C     C_R   0.702077 0.505017 0.655824 -0.269624
H1    H     H_    0.320094 0.509219 0.777691 0.206040
H2    H     H_    0.679906 0.490810 0.222311 0.206041
H3    H     H_    0.320094 0.490782 0.222309 0.206040
H4    H     H_    0.679906 0.509190 0.777689 0.206041
C11   C     C_R   0.328066 0.500000 0.500000 -0.227901
C12   C     C_R   0.671934 0.500000 0.500000 -0.227904
C13   C     C_R   0.880253 0.625702 0.455255 0.743577
C14   C     C_R   0.119747 0.374299 0.544746 0.743577
C15   C     C_R   0.880253 0.374299 0.544745 0.743576
C16   C     C_R   0.119747 0.625701 0.455253 0.743576
N1    N     N_R   0.851991 0.500000 0.500000 -0.454793
N2    N     N_R   0.148009 0.500000 0.500000 -0.454793
C17   C     C_R   0.939976 0.371342 0.546278 -0.215285
C18   C     C_R   0.060024 0.628657 0.453721 -0.215283
C19   C     C_R   0.939976 0.628658 0.453722 -0.215285
C20   C     C_R   0.060024 0.371342 0.546279 -0.215284
C21   C     C_R   0.969960 0.500000 0.500000 -0.160790
C22   C     C_R   0.030040 0.500000 0.500000 -0.160789
C23   C     C_R   0.970400 0.243851 0.592468 0.626242
C24   C     C_R   0.029600 0.756148 0.407531 0.626241
C25   C     C_R   0.970400 0.756149 0.407532 0.626242
C26   C     C_R   0.029600 0.243851 0.592469 0.626242
C27   C     C_1   0.500000 0.065375 0.500001 -0.150489
C28   C     C_1   0.500000 0.934625 0.499999 -0.150489
C29   C     C_R   0.238694 0.505157 0.655785 0.654867
C30   C     C_R   0.761306 0.494859 0.344216 0.654867
C31   C     C_R   0.238694 0.494843 0.344215 0.654867
C32   C     C_R   0.761306 0.505142 0.655784 0.654866
N3    N     N_1   0.500000 0.500000 0.076820 -0.043595
N4    N     N_1   0.500000 0.500000 0.923180 -0.043595
O9    O     O_2   0.850400 0.747226 0.413355 -0.386961
O10   O     O_2   0.149600 0.252775 0.586650 -0.386964
O11   O     O_2   0.850400 0.252774 0.586645 -0.386962
O12   O     O_2   0.149600 0.747224 0.413349 -0.386964
F1    F     F_    0.943260 0.118067 0.638664 -0.511556
F2    F     F_    0.056740 0.881933 0.361335 -0.511556
F3    F     F_    0.943260 0.881933 0.361336 -0.511556
F4    F     F_    0.056740 0.118067 0.638665 -0.511556
F5    F     F_    0.210171 0.511115 0.807117 -0.558642
F6    F     F_    0.789829 0.488918 0.192885 -0.558643
F7    F     F_    0.210171 0.488884 0.192883 -0.558642
F8    F     F_    0.789829 0.511084 0.807115 -0.558643

loop_
_geom_bond_atom_site_label_1
_geom_bond_atom_site_label_2
_geom_bond_distance
_ccdc_geom_bond_type
O4    Cu2   1.934367 S    
O5    C5    1.283540 A    
C9    H3    1.083174 S    
O7    C6    1.283539 A    
O8    C5    1.283541 A    
C31   F7    1.356737 S    
C21   C22   1.414617 A    
O1    Cu1   1.934373 S    
C23   F1    1.358247 S    
O2    Cu2   1.934372 S    
C3    C31   1.401287 A    
C4    N1    1.433915 S    
C8    C12   1.405744 A    
C14   O10   1.349286 S    
C4    C32   1.401277 A    
O3    C2    1.272963 A    
C7    C11   1.405757 A    
C26   F4    1.358246 S    
O5    Cu1   1.944316 S    
C1    C27   1.405600 S    
C25   F3    1.358247 S    
C15   N1    1.367316 A    
C24   F2    1.358249 S    
C2    C28   1.405600 S    
C6    C12   1.472577 S    
C16   N2    1.367317 A    
C16   O12   1.349287 S    
C5    C11   1.472574 S    
C10   C32   1.394550 A    
C30   F6    1.356723 S    
C10   C12   1.405745 A    
C18   C24   1.409007 A    
C8    C30   1.394550 A    
C20   C22   1.412704 A    
C24   C25   1.393881 A    
C19   C21   1.412704 A    
C13   O9    1.349287 S    
C3    N2    1.433913 S    
C23   C26   1.393881 A    
C9    C31   1.394553 A    
C27   C28   1.188496 T    
O7    Cu1   1.944314 S    
C19   C25   1.409006 A    
O1    C1    1.272971 A    
C3    C29   1.401287 A    
C16   C18   1.406519 A    
C9    C11   1.405758 A    
C13   N1    1.367317 A    
Cu1   Cu2   2.631430 S    
C15   C17   1.406519 A    
C32   F8    1.356725 S    
C14   N2    1.367316 A    
O3    Cu1   1.934366 S    
Cu2   N3    1.977307 S    
C14   C20   1.406521 A    
C17   C21   1.412705 A    
N3    N4    1.195567 T    
O6    Cu2   1.944314 S    
Cu1   N4    1.977307 S    
C10   H4    1.083164 S    
C29   F5    1.356736 S    
O8    Cu2   1.944316 S    
O6    C6    1.283540 A    
C13   C19   1.406519 A    
C8    H2    1.083165 S    
C20   C26   1.409005 A    
C17   C23   1.409007 A    
C7    H1    1.083174 S    
O2    C2    1.272971 A    
C7    C29   1.394553 A    
O4    C1    1.272963 A    
C15   O11   1.349287 S    
C4    C30   1.401276 A    
C18   C22   1.412705 A    
