data_mof_unit_22200.cif
_audit_creation_date              2013-03-05T16:41:45-0500
_audit_creation_method            fapswitch 2.2
_symmetry_space_group_name_H-M    P1
_symmetry_Int_Tables_number       1
_space_group_crystal_system       triclinic
_cell_length_a                    10.60823
_cell_length_b                    10.827209
_cell_length_c                    9.951261
_cell_angle_alpha                 89.915727
_cell_angle_beta                  89.071572
_cell_angle_gamma                 92.701064
_cell_volume                      1141.55460015

loop_
_atom_site_label
_atom_site_type_symbol
_atom_site_description
_atom_site_fract_x
_atom_site_fract_y
_atom_site_fract_z
_atom_type_partial_charge
O1    O     O_R   0.500020 0.316790 0.614690 -0.628643
O2    O     O_R   0.500000 0.316760 0.385350 -0.632904
C1    C     C_R   0.498752 0.260444 0.499804 0.875784
O3    O     O_R   0.316770 0.500020 0.614690 -0.606958
O4    O     O_R   0.316760 0.499980 0.385350 -0.613065
C2    C     C_R   0.259629 0.512752 0.501900 0.938172
Zn1   Zn    Zn3+2 0.500010 0.500020 0.653130 1.006576
Zn2   Zn    Zn3+2 0.499990 0.499980 0.346870 1.005369
O5    O     O_R   0.500000 0.683240 0.614650 -0.590033
O6    O     O_R   0.499980 0.683210 0.385310 -0.591198
O7    O     O_R   0.683240 0.500020 0.614650 -0.570737
O8    O     O_R   0.683230 0.499980 0.385310 -0.586109
C3    C     C_R   0.504211 0.740010 0.499387 0.939244
C4    C     C_R   0.737468 0.479865 0.498605 0.927382
C5    C     C_R   0.100160 0.510930 0.759719 0.262619
C6    C     C_R   0.047951 0.438473 0.865062 -0.143654
H1    H     H_    0.089115 0.443402 0.963041 0.163062
C7    C     C_R   0.938933 0.364294 0.845873 -0.044151
H2    H     H_    0.897734 0.309955 0.928241 0.197897
C8    C     C_R   0.877364 0.368873 0.723622 -0.080005
H3    H     H_    0.788241 0.317053 0.712715 0.135590
C9    C     C_R   0.933111 0.436637 0.615187 0.036462
C10   C     C_R   0.054559 0.490735 0.627511 -0.001748
C11   C     C_R   0.122907 0.524497 0.507968 -0.186849
C12   C     C_R   0.059896 0.534729 0.385658 0.087440
C13   C     C_R   0.938715 0.480212 0.375650 0.209192
C14   C     C_R   0.870430 0.452162 0.494352 -0.238990
C15   C     C_R   0.566149 0.066592 0.594492 -0.034702
C16   C     C_R   0.504733 0.129167 0.495976 -0.050926
C17   C     C_R   0.459917 0.063382 0.384919 -0.233341
H4    H     H_    0.415958 0.109884 0.303734 0.176302
C18   C     C_R   0.453791 0.935156 0.388303 0.320022
C19   C     C_R   0.513565 0.872964 0.493499 -0.244608
C20   C     C_R   0.587143 0.942961 0.584174 0.027767
C21   C     C_3   0.603705 0.934482 0.733882 0.130115
C22   C     C_3   0.553905 0.063263 0.744019 0.019970
H5    H     H_    0.544911 0.861105 0.786502 0.155899
H6    H     H_    0.614577 0.133833 0.796450 0.127659
C23   C     C_R   0.403380 0.441213 0.071867 0.067432
N1    N     N_R   0.499160 0.499140 0.142800 -0.141412
C24   C     C_R   0.584376 0.572309 0.072714 0.197732
C25   C     C_R   0.591615 0.564865 0.928800 0.258516
N2    N     N_R   0.499160 0.499180 0.857150 -0.163005
C26   C     C_R   0.404522 0.441779 0.930129 0.007218
C27   C     C_3   0.371173 0.308444 0.923031 -0.374062
C28   C     C_3   0.360203 0.306796 0.075885 0.016368
H7    H     H_    0.282815 0.289350 0.866722 0.218577
H8    H     H_    0.454293 0.260481 0.885884 0.214350
H9    H     H_    0.426746 0.245009 0.124398 0.192604
N3    N     N_2   0.098596 0.632989 0.296492 -0.233188
H10   H     H_    0.029313 0.694695 0.279297 0.260205
C29   C     C_3   0.170504 0.604191 0.177116 -0.501163
H11   H     H_    0.125756 0.642985 0.087299 0.219196
H12   H     H_    0.175456 0.503574 0.165014 0.237461
H13   H     H_    0.267431 0.646233 0.183519 0.267694
N4    N     N_R   0.737656 0.937109 0.769824 0.240412
O9    O     O_R   0.824167 0.909620 0.681887 -0.332323
O10   O     O_R   0.772074 0.977150 0.887410 -0.406193
N5    N     N_R   0.422465 0.054314 0.793431 0.186699
O11   O     O_R   0.398931 0.020787 0.917224 -0.366851
O12   O     O_R   0.328453 0.075631 0.715490 -0.393994
N6    N     N_2   0.663855 0.656243 0.145870 -0.274242
H14   H     H_    0.749773 0.625558 0.173122 0.292019
C30   C     C_3   0.662725 0.786081 0.112099 -0.570245
H15   H     H_    0.754534 0.815735 0.064914 0.282890
H16   H     H_    0.650463 0.840307 0.205464 0.233300
H17   H     H_    0.584862 0.805937 0.042950 0.249661
N7    N     N_R   0.703004 0.616353 0.862612 0.220051
O13   O     O_R   0.694928 0.688646 0.760089 -0.350480
O14   O     O_R   0.813095 0.604685 0.915349 -0.364745
N8    N     N_2   0.228790 0.288697 0.120372 -0.311164
H18   H     H_    0.167582 0.249493 0.051255 0.261512
C31   C     C_3   0.204446 0.238421 0.253189 -0.682123
H19   H     H_    0.107766 0.260579 0.286571 0.253092
H20   H     H_    0.271666 0.278639 0.326414 0.249847
H21   H     H_    0.209805 0.136300 0.250952 0.265159
N9    N     N_2   0.188580 0.610252 0.790151 -0.308489
H22   H     H_    0.229556 0.608252 0.883138 0.207777
C32   C     C_3   0.160729 0.733210 0.744629 -0.537777
H23   H     H_    0.242265 0.772629 0.684843 0.244046
H24   H     H_    0.145007 0.793913 0.832658 0.256649
H25   H     H_    0.075080 0.733061 0.681756 0.255587
N10   N     N_R   0.888834 0.442156 0.247561 0.204276
O15   O     O_R   0.817681 0.341202 0.239358 -0.388513
O16   O     O_R   0.926801 0.496611 0.137039 -0.435867
N11   N     N_R   0.365535 0.872044 0.302811 0.202398
O17   O     O_R   0.368998 0.893718 0.174222 -0.377536
O18   O     O_R   0.262587 0.824064 0.357554 -0.413254

loop_
_geom_bond_atom_site_label_1
_geom_bond_atom_site_label_2
_geom_bond_distance
_ccdc_geom_bond_type
C13   N10   1.441303 S    
C24   C25   1.435528 A    
C21   C22   1.517089 S    
C22   N5    1.469783 S    
C5    N9    1.429353 S    
N9    H22   1.029344 S    
C29   H11   1.109992 S    
Zn1   O7    1.975008 S    
C28   H9    1.110634 S    
C13   C14   1.400991 A    
C16   C17   1.393614 A    
C15   C16   1.380202 A    
C21   H5    1.111690 S    
C20   C21   1.506112 S    
C17   H4    1.075540 S    
O7    C4    1.305044 A    
N11   O18   1.298356 A    
C5    C6    1.399620 A    
N4    O9    1.302711 A    
C7    H2    1.082467 S    
C31   H19   1.110028 S    
C27   H7    1.111033 S    
C1    C16   1.426298 S    
O5    C3    1.299657 A    
C12   N3    1.425475 S    
N6    C30   1.445558 S    
C6    H1    1.075141 S    
N3    C29   1.443761 S    
C10   C11   1.421357 A    
Zn1   N2    2.030135 S    
C4    C14   1.455754 S    
C29   H13   1.107523 S    
C5    C10   1.422756 A    
C15   C20   1.371024 A    
N5    O11   1.300714 A    
C25   N7    1.432654 S    
C31   H20   1.103447 S    
C24   N6    1.419969 S    
O3    Zn1   1.987205 S    
C29   H12   1.099829 S    
C19   C20   1.402445 A    
N9    C32   1.450678 S    
N5    O12   1.302180 A    
C30   H17   1.112073 S    
C11   C12   1.404798 A    
O3    C2    1.294490 A    
C23   N1    1.374218 A    
C32   H24   1.111055 S    
N11   O17   1.300234 A    
N7    O13   1.291392 A    
C12   C13   1.394160 A    
C27   C28   1.523667 S    
O1    C1    1.296604 A    
C30   H16   1.108940 S    
N2    C26   1.355656 A    
C3    C19   1.439310 S    
N6    H14   1.025149 S    
C32   H25   1.111432 S    
N10   O15   1.302177 A    
Zn2   O8    1.987204 S    
C18   N11   1.426354 S    
N3    H10   1.032391 S    
C28   N8    1.460068 S    
C23   C26   1.410326 A    
C23   C28   1.505275 S    
C6    C7    1.392499 A    
N1    C24   1.357089 A    
N10   O16   1.296463 A    
O8    C4    1.296797 A    
C9    C14   1.397191 A    
C31   H21   1.110053 S    
C25   N2    1.390863 A    
C26   C27   1.472154 S    
N8    C31   1.443421 S    
C27   H8    1.103166 S    
Zn1   O5    2.019832 S    
C21   N4    1.469901 S    
O1    Zn1   2.020969 S    
O2    Zn2   2.019832 S    
C8    C9    1.410149 A    
O6    C3    1.292299 A    
O4    Zn2   1.975009 S    
C2    C11   1.462188 S    
C30   H15   1.107872 S    
C22   H6    1.111758 S    
O2    C1    1.290703 A    
N8    H18   1.031604 S    
C18   C19   1.418104 A    
C17   C18   1.387122 A    
O4    C2    1.310418 A    
N4    O10   1.300343 A    
C7    C8    1.391992 A    
C32   H23   1.109977 S    
C8    H3    1.083490 S    
C15   C22   1.491772 S    
Zn2   O6    2.020969 S    
N7    O14   1.299567 A    
C9    C10   1.397203 A    
Zn2   N1    2.030947 S    
