data_mof_unit_18205.cif
_audit_creation_date              2012-12-11T14:34:08-0500
_audit_creation_method            fapswitch 2.2
_symmetry_space_group_name_H-M    P1
_symmetry_Int_Tables_number       1
_space_group_crystal_system       triclinic
_cell_length_a                    13.816785
_cell_length_b                    13.953265
_cell_length_c                    27.338312
_cell_angle_alpha                 90.178706
_cell_angle_beta                  89.443559
_cell_angle_gamma                 119.444737
_cell_volume                      4589.51481258

loop_
_atom_site_label
_atom_site_type_symbol
_atom_type_description
_atom_site_fract_x
_atom_site_fract_y
_atom_site_fract_z
_atom_type_partial_charge
C1    C     C_R   0.233468 0.787184 0.568693 0.538525
C2    C     C_1   0.707429 0.862559 0.860199 -0.078248
C3    C     C_3   0.945055 0.796262 0.403311 -0.446827
C4    C     C_3   0.378766 0.388804 0.383101 -0.251840
C5    C     C_3   0.469474 0.381929 0.353204 -0.467191
C6    C     C_1   0.114238 0.882147 0.852650 -0.077780
C7    C     C_1   0.116039 0.231309 0.852211 -0.077970
C8    C     C_1   0.626823 0.813665 0.659266 -0.076499
C9    C     C_1   0.175611 0.819126 0.656261 -0.076879
C10   C     C_1   0.177889 0.358480 0.656386 -0.077119
C11   C     C_1   0.599574 0.795581 0.616988 -0.019434
C12   C     C_1   0.197864 0.806070 0.615079 -0.019537
C13   C     C_1   0.192139 0.393191 0.615237 -0.020109
C14   C     C_R   0.062831 0.148641 0.095691 0.581133
C15   C     C_R   0.212289 0.446434 0.568805 0.544638
C16   C     C_R   0.776823 0.884429 0.088196 0.548021
C17   C     C_R   0.115693 0.892772 0.087571 0.559681
C18   C     C_R   0.069906 0.160398 0.943197 0.539712
C19   C     C_R   0.780054 0.887320 0.950679 0.541867
C20   C     C_R   0.090923 0.930242 0.943547 0.537624
C21   C     C_R   0.661034 0.913321 0.366611 0.006463
C22   C     C_R   0.093680 0.763095 0.365665 0.005383
C23   C     C_R   0.259401 0.339800 0.363676 -0.008590
C24   C     C_R   0.674061 0.924287 0.314921 0.031114
C25   C     C_R   0.077801 0.764356 0.314384 0.033342
C26   C     C_R   0.552253 0.765058 0.569173 0.538225
C27   C     C_R   0.220996 0.273016 0.320541 0.038129
C28   C     C_R   0.697255 0.940219 0.211893 0.017406
C29   C     C_R   0.050993 0.773500 0.212656 0.011497
C30   C     C_R   0.169568 0.183516 0.225068 0.014467
C31   C     C_R   0.233567 0.788141 0.431435 0.535575
C32   C     C_R   0.213142 0.445394 0.430569 0.540502
C33   C     C_R   0.558562 0.768230 0.432416 0.537043
C34   C     C_R   0.698526 0.025930 0.238967 -0.140825
C35   C     C_R   0.958319 0.714364 0.242964 -0.135337
C36   C     C_R   0.247948 0.172702 0.252887 -0.140061
C37   C     C_3   0.660446 0.734511 0.790160 -0.212171
C38   C     C_R   0.687250 0.018384 0.289825 -0.140873
C39   C     C_R   0.971277 0.709672 0.293203 -0.131219
C40   C     C_R   0.270481 0.213597 0.300646 -0.132090
C41   C     C_R   0.718734 0.950994 0.161472 -0.142478
C42   C     C_R   0.037923 0.785977 0.163114 -0.133998
C43   C     C_R   0.155104 0.155924 0.175249 -0.139220
C44   C     C_R   0.721209 0.865284 0.135605 -0.006532
C45   C     C_R   0.131073 0.853342 0.134053 -0.006248
C46   C     C_R   0.075325 0.167727 0.148545 -0.010509
C47   C     C_R   0.638357 0.728911 0.360307 -0.152875
C48   C     C_3   0.243908 0.954464 0.782558 -0.212410
C49   C     C_R   0.294850 0.866451 0.350976 -0.140514
C50   C     C_R   0.085837 0.348731 0.363608 -0.146326
C51   C     C_R   0.656710 0.740824 0.310483 0.004501
C52   C     C_R   0.279939 0.873874 0.301884 -0.002628
C53   C     C_R   0.060852 0.303266 0.317477 0.000005
C54   C     C_R   0.669654 0.836298 0.287185 0.048951
C55   C     C_R   0.171853 0.820791 0.283005 0.046877
C56   C     C_R   0.128265 0.265664 0.295551 0.047528
C57   C     C_R   0.653970 0.654367 0.283287 -0.136781
C58   C     C_R   0.372999 0.930982 0.271281 -0.134141
C59   C     C_3   0.057097 0.313607 0.786742 -0.211765
C60   C     C_R   0.970614 0.298467 0.292369 -0.138256
C61   C     C_R   0.661132 0.660743 0.232709 -0.137667
C62   C     C_R   0.359352 0.937405 0.221497 -0.134932
C63   C     C_R   0.950443 0.261606 0.244403 -0.123297
C64   C     C_R   0.674881 0.755232 0.208996 0.014990
C65   C     C_R   0.252564 0.886024 0.201981 0.011626
C66   C     C_R   0.017772 0.225477 0.221705 0.020627
C67   C     C_3   0.562421 0.851347 0.738501 -0.212789
C68   C     C_3   0.141817 0.734019 0.738635 -0.214563
C69   C     C_3   0.272746 0.389761 0.736152 -0.214784
C70   C     C_3   0.639681 0.721573 0.734284 -0.212861
C71   C     C_R   0.679877 0.843799 0.236021 0.065619
C72   C     C_R   0.158409 0.825819 0.232519 0.063243
C73   C     C_R   0.104396 0.223564 0.247653 0.063873
C74   C     C_R   0.690888 0.765028 0.158836 -0.130998
C75   C     C_R   0.238086 0.898872 0.152806 -0.141535
C76   C     C_R   0.002605 0.195634 0.172795 -0.123655
C77   C     C_R   0.627036 0.808192 0.387493 -0.003080
C78   C     C_R   0.204170 0.808652 0.382842 0.010145
C79   C     C_R   0.186450 0.374018 0.386225 -0.013354
C80   C     C_3   0.766626 0.924715 0.722635 -0.215871
C81   C     C_3   0.259535 0.939047 0.727562 -0.212734
C82   C     C_3   0.053137 0.847286 0.714911 -0.214284
C83   C     C_3   0.122319 0.200379 0.712650 -0.213818
C84   C     C_3   0.787089 0.937660 0.778589 -0.214015
C85   C     C_3   0.036261 0.863283 0.769837 -0.215543
C86   C     C_3   0.105932 0.166503 0.767260 -0.218206
C87   C     C_1   0.735005 0.873320 0.902470 -0.029111
C88   C     C_1   0.103465 0.902719 0.894415 -0.023955
C89   C     C_1   0.097426 0.200017 0.893998 -0.027663
C90   C     C_3   0.648938 0.828003 0.712180 0.072360
C91   C     C_3   0.157331 0.834287 0.707921 0.072563
C92   C     C_3   0.073924 0.348135 0.732124 -0.213001
C93   C     C_3   0.162137 0.324667 0.707903 0.072641
C94   C     C_3   0.583243 0.864245 0.794512 -0.215205
C95   C     C_3   0.124482 0.750527 0.793610 -0.212836
C96   C     C_3   0.255899 0.355455 0.790885 -0.212752
C97   C     C_3   0.684358 0.850056 0.807348 0.073076
C98   C     C_3   0.129118 0.862742 0.801068 0.072523
C99   C     C_3   0.133696 0.266227 0.800708 0.071819
C100  C     C_3   0.690728 0.012991 0.399025 -0.271624
C101  C     C_3   0.815243 0.095518 0.396348 -0.450053
C102  C     C_3   0.995693 0.720281 0.401440 -0.275950
Cr1   Cr    Cr6+3 0.164410 0.584450 0.499910 1.011095
Cr2   Cr    Cr6+3 0.415550 0.579960 0.499910 1.002254
Cr3   Cr    Cr6+3 0.420040 0.835590 0.499910 1.005040
Cr4   Cr    Cr6+3 0.155170 0.075460 0.019960 1.018151
Cr5   Cr    Cr6+3 0.924540 0.079710 0.019960 1.002792
Cr6   Cr    Cr6+3 0.920290 0.844830 0.019960 1.006992
H1    H     H_    0.598439 0.946858 0.806342 0.112081
H2    H     H_    0.732036 0.722113 0.798970 0.110316
H3    H     H_    0.252309 0.036881 0.788632 0.104362
H4    H     H_    0.968566 0.250905 0.793422 0.109056
H5    H     H_    0.740840 0.028010 0.143202 0.105989
H6    H     H_    0.954916 0.750908 0.148197 0.126817
H7    H     H_    0.207214 0.128379 0.157134 0.127678
H8    H     H_    0.708614 0.099134 0.220769 0.095857
H9    H     H_    0.875471 0.672884 0.227850 0.112089
H10   H     H_    0.292507 0.133558 0.237655 0.119370
H11   H     H_    0.687359 0.086374 0.308894 0.106064
H12   H     H_    0.042764 0.682540 0.806417 0.114443
H13   H     H_    0.896814 0.662357 0.314823 0.111988
H14   H     H_    0.324609 0.195379 0.321682 0.125186
H15   H     H_    0.690744 0.697912 0.138602 0.124797
H16   H     H_    0.309458 0.950178 0.129783 0.119408
H17   H     H_    0.936616 0.198898 0.153010 0.121438
H18   H     H_    0.658501 0.592879 0.212221 0.100845
H19   H     H_    0.432005 0.983571 0.198420 0.109855
H20   H     H_    0.884089 0.264062 0.224693 0.098777
H21   H     H_    0.644763 0.581118 0.301051 0.098451
H22   H     H_    0.456320 0.971385 0.285966 0.113494
H23   H     H_    0.312775 0.323425 0.800661 0.112208
H24   H     H_    0.918263 0.327308 0.309188 0.101562
H25   H     H_    0.567407 0.927768 0.723547 0.111990
H26   H     H_    0.068855 0.657417 0.725207 0.111795
H27   H     H_    0.337631 0.374057 0.719697 0.112552
H28   H     H_    0.621733 0.651764 0.376897 0.129899
H29   H     H_    0.379645 0.902225 0.363894 0.140377
H30   H     H_    0.029757 0.373557 0.379921 0.138294
H31   H     H_    0.830580 0.909750 0.704614 0.107749
H32   H     H_    0.062558 0.919391 0.693678 0.108671
H33   H     H_    0.042549 0.151605 0.692962 0.109324
H34   H     H_    0.476811 0.782858 0.731622 0.108006
H35   H     H_    0.775607 0.002464 0.707255 0.110672
H36   H     H_    0.978338 0.773113 0.700939 0.111358
H37   H     H_    0.184332 0.181161 0.695658 0.110387
H38   H     H_    0.806423 0.021823 0.790033 0.108948
H39   H     H_    0.953401 0.796622 0.782284 0.108821
H40   H     H_    0.160601 0.131981 0.776450 0.107720
H41   H     H_    0.860327 0.928342 0.787323 0.101102
H42   H     H_    0.036569 0.942082 0.774829 0.099327
H43   H     H_    0.018549 0.101678 0.773626 0.101449
H44   H     H_    0.555617 0.650477 0.727307 0.110675
H45   H     H_    0.216104 0.723214 0.734353 0.107520
H46   H     H_    0.336203 0.932710 0.722234 0.111025
H47   H     H_    0.100715 0.437343 0.729231 0.109971
H48   H     H_    0.701356 0.703063 0.716403 0.111425
H49   H     H_    0.271200 0.012637 0.706861 0.111771
H50   H     H_    0.993395 0.302169 0.712698 0.112822
H51   H     H_    0.586373 0.669694 0.809906 0.113295
H52   H     H_    0.311256 0.952159 0.803660 0.115001
H53   H     H_    0.075705 0.386159 0.810013 0.116833
H54   H     H_    0.863626 0.056241 0.409086 0.157807
H55   H     H_    0.842366 0.126315 0.358665 0.168459
H56   H     H_    0.303335 0.479738 0.733234 0.107777
H57   H     H_    0.834407 0.167009 0.420282 0.135420
H58   H     H_    0.641164 0.052783 0.388905 0.129144
H59   H     H_    0.673531 0.990688 0.438151 0.169551
H60   H     H_    0.008634 0.879950 0.415158 0.155985
H61   H     H_    0.912580 0.802719 0.367263 0.164680
H62   H     H_    0.875045 0.763487 0.430088 0.139309
H63   H     H_    0.931767 0.635209 0.391711 0.130093
H64   H     H_    0.020153 0.715615 0.439361 0.164301
H65   H     H_    0.469356 0.303714 0.360296 0.136712
H66   H     H_    0.463479 0.395835 0.313656 0.165068
H67   H     H_    0.507894 0.801756 0.814378 0.111350
H68   H     H_    0.552079 0.447269 0.365736 0.120268
H69   H     H_    0.411981 0.479013 0.385420 0.190122
H70   H     H_    0.376121 0.355890 0.420345 0.155382
H71   H     H_    0.189961 0.746967 0.815646 0.114182
H72   H     H_    0.277928 0.428813 0.814162 0.115337
O1    O     O_R   0.137150 0.468200 0.553200 -0.511308
O2    O     O_R   0.140110 0.470540 0.446010 -0.518977
O3    O     O_R   0.529460 0.669570 0.446010 -0.532563
O4    O     O_R   0.330430 0.859890 0.446010 -0.524366
O5    O     O_R   0.176710 0.690910 0.450560 -0.505041
O6    O     O_R   0.309090 0.485800 0.450560 -0.516713
O7    O     O_R   0.514200 0.823290 0.450560 -0.506891
O8    O     O_3   0.333333 0.666667 0.499990 -0.255424
O9    O     O_R   0.176750 0.985260 0.074180 -0.529536
O10   O     O_R   0.014740 0.191490 0.074180 -0.501155
O11   O     O_R   0.808510 0.823250 0.074180 -0.516653
O12   O     O_R   0.531800 0.668950 0.553200 -0.511678
O13   O     O_R   0.146100 0.172630 0.068980 -0.472414
O14   O     O_R   0.827370 0.973470 0.068980 -0.518851
O15   O     O_R   0.026530 0.853900 0.068980 -0.492256
O16   O     O_3   1.000000 1.000000 0.020040 -0.287751
O17   O     O_R   0.148270 0.170520 0.969620 -0.489846
O18   O     O_R   0.829480 0.977750 0.969620 -0.520179
O19   O     O_R   0.022250 0.851730 0.969620 -0.481614
O20   O     O_R   0.331050 0.862850 0.553200 -0.509056
O21   O     O_R   0.179100 0.982980 0.967000 -0.505553
O22   O     O_R   0.017020 0.196120 0.967000 -0.483888
O23   O     O_R   0.803880 0.820900 0.967000 -0.511367
O24   O     O_R   0.173970 0.688730 0.549930 -0.502772
O25   O     O_R   0.311270 0.485240 0.549930 -0.499046
O26   O     O_R   0.514760 0.826030 0.549930 -0.501183

loop_
_geom_bond_atom_site_label_1
_geom_bond_atom_site_label_2
_ccdc_geom_bond_type
C58   C62   A    
C49   H29   S    
C31   O4    A    
Cr1   O2    S    
C59   C99   S    
C5    H66   S    
Cr1   O5    S    
C69   H56   S    
C4    H69   S    
C80   C84   S    
C69   C96   S    
C33   C77   S    
C50   C79   A    
C9    C91   S    
C46   C76   A    
C95   C98   S    
Cr3   O26   S    
C14   C46   S    
C70   C90   S    
C49   C78   A    
C48   H52   S    
C7    C99   S    
C60   C63   A    
C70   H48   S    
C84   C97   S    
C6    C98   S    
Cr3   O8    S    
C32   O2    A    
C101  H54   S    
C67   H25   S    
C17   C45   S    
C20   O21   A    
Cr6   O23   S    
C69   C93   S    
C33   O7    A    
C62   H19   S    
C29   C42   A    
C24   C54   A    
C83   C93   S    
C96   C99   S    
C15   O1    A    
C28   C41   A    
C68   C91   S    
C6    C88   T    
C48   C81   S    
C92   H50   S    
C64   C71   A    
C85   H42   S    
C100  C101  S    
C82   H32   S    
C85   C98   S    
C43   H7    S    
C83   H37   S    
C42   H6    S    
Cr3   O20   S    
C54   C71   A    
C101  H57   S    
C2    C97   S    
C22   C25   A    
C33   O3    A    
C67   C94   S    
C24   C38   A    
Cr6   O11   S    
C61   H18   S    
C51   C57   A    
C23   C27   A    
Cr6   O16   S    
C36   H10   S    
C16   C44   S    
C55   C72   A    
C52   C55   A    
C94   H67   S    
C29   C72   A    
C84   H41   S    
C80   H35   S    
C74   H15   S    
C63   C66   A    
C28   C34   A    
C32   O6    A    
C69   H27   S    
C16   O14   A    
C34   C38   A    
C37   C70   S    
C76   H17   S    
C60   H24   S    
C26   O26   A    
C1    C12   S    
C22   C102  S    
C37   C97   S    
Cr5   O16   S    
C9    C12   T    
C53   C60   A    
C3    H60   S    
Cr4   O13   S    
C102  H64   S    
Cr2   O8    S    
C4    H70   S    
C68   C95   S    
C81   H49   S    
C75   H16   S    
C50   C53   A    
C85   H39   S    
C36   C40   A    
C70   H44   S    
C65   C75   A    
C22   C78   A    
Cr5   O22   S    
C82   H36   S    
C68   H45   S    
Cr4   O17   S    
C83   H33   S    
C4    C23   S    
C26   O12   A    
C27   C56   A    
C3    H61   S    
Cr4   O16   S    
C94   C97   S    
C17   O9    A    
C30   C73   A    
C66   C73   A    
C67   C90   S    
C82   C91   S    
C82   C85   S    
C42   C45   A    
C81   C91   S    
C61   C64   A    
C35   C39   A    
C20   O19   A    
C59   H53   S    
C16   O11   A    
C101  H55   S    
C27   C40   A    
Cr1   O24   S    
C49   C52   A    
C10   C93   S    
C31   O5    A    
C18   O17   A    
C19   O23   A    
C59   H4    S    
C2    C87   T    
C18   O22   A    
Cr2   O25   S    
C96   H72   S    
Cr6   O15   S    
C44   C74   A    
C86   C99   S    
C37   H2    S    
C15   O25   A    
C52   C58   A    
C96   H23   S    
C38   H11   S    
C3    C102  S    
C95   H71   S    
C14   O13   A    
C13   C15   S    
C5    H68   S    
C30   C43   A    
C35   H9    S    
C28   C71   A    
C8    C90   S    
C47   C77   A    
C80   H31   S    
C40   H14   S    
C31   C78   S    
Cr2   O3    S    
C53   C56   A    
C57   H21   S    
C102  H63   S    
C21   C100  S    
C19   O18   A    
Cr2   O12   S    
C56   C73   A    
C94   H1    S    
C62   C65   A    
Cr1   O1    S    
C18   C89   S    
C5    H65   S    
Cr1   O8    S    
C63   H20   S    
C41   H5    S    
C4    C5    S    
C10   C13   T    
C86   H40   S    
Cr5   O18   S    
C47   C51   A    
C50   H30   S    
C3    H62   S    
C57   C61   A    
C84   H38   S    
C95   H12   S    
C65   C72   A    
C48   C98   S    
C48   H3    S    
C29   C35   A    
C100  H58   S    
C19   C87   S    
Cr2   O6    S    
C11   C26   S    
C30   C36   A    
C45   C75   A    
C51   C54   A    
Cr3   O7    S    
Cr6   O19   S    
C68   H26   S    
C86   H43   S    
C25   C39   A    
C32   C79   S    
C1    O24   A    
C47   H28   S    
C37   H51   S    
C1    O20   A    
C58   H22   S    
C8    C11   T    
C20   C88   S    
Cr5   O10   S    
C100  H59   S    
C92   C93   S    
C41   C44   A    
C25   C55   A    
C92   H47   S    
C59   C92   S    
Cr3   O4    S    
C80   C90   S    
C43   C46   A    
C17   O15   A    
C81   H46   S    
C14   O10   A    
C83   C86   S    
C21   C24   A    
C21   C77   A    
C64   C74   A    
C39   H13   S    
Cr4   O9    S    
C23   C79   A    
C67   H34   S    
C34   H8    S    
Cr5   O14   S    
C66   C76   A    
Cr4   O21   S    
C7    C89   T    
