data_mof_unit_49563.cif
_audit_creation_date              2012-12-10T17:31:55-0500
_audit_creation_method            fapswitch 2.2
_symmetry_space_group_name_H-M    P1
_symmetry_Int_Tables_number       1
_space_group_crystal_system       triclinic
_cell_length_a                    12.078296
_cell_length_b                    11.514714
_cell_length_c                    12.721938
_cell_angle_alpha                 92.437742
_cell_angle_beta                  95.156045
_cell_angle_gamma                 88.504312
_cell_volume                      1760.14777812

loop_
_atom_site_label
_atom_site_type_symbol
_atom_type_description
_atom_site_fract_x
_atom_site_fract_y
_atom_site_fract_z
_atom_type_partial_charge
C1    C     C_R   0.477965 0.517080 0.300853 0.896010
C2    C     C_R   0.522781 0.487547 0.700391 0.892114
C3    C     C_R   0.062351 0.606957 0.615328 0.072296
C4    C     C_R   0.947270 0.349400 0.460200 0.099348
C5    C     C_R   0.173174 0.601066 0.589705 -0.015704
C6    C     C_R   0.833878 0.377930 0.441230 -0.038364
C7    C     C_R   0.136401 0.438358 0.471711 0.225899
C8    C     C_R   0.861714 0.554217 0.543970 0.260096
C9    C     C_R   0.022519 0.439459 0.494806 -0.024015
C10   C     C_R   0.981171 0.535979 0.552906 -0.041105
C11   C     C_R   0.498165 0.282235 0.499239 0.893597
C12   C     C_R   0.501900 0.717779 0.501118 0.890987
C13   C     C_1   0.495639 0.161775 0.499884 -0.198551
C14   C     C_1   0.504640 0.838248 0.500935 -0.187980
C15   C     C_1   0.497950 0.059425 0.500346 0.002202
C16   C     C_1   0.502607 0.940602 0.500707 0.002943
C17   C     C_R   0.537919 0.467849 0.813464 -0.128428
C18   C     C_R   0.465284 0.545945 0.189729 -0.131779
C19   C     C_R   0.352852 0.524692 0.025381 -0.259496
C20   C     C_R   0.651058 0.495270 0.977701 -0.244901
C21   C     C_R   0.360486 0.550853 0.132912 0.150667
C22   C     C_R   0.643907 0.472567 0.869799 0.140754
C23   C     C_R   0.561156 0.557618 0.135206 0.103916
C24   C     C_R   0.442842 0.455399 0.869523 0.096636
C25   C     C_R   0.554735 0.518732 0.029129 0.054551
C26   C     C_R   0.449301 0.496436 0.974964 0.055733
H1    H     H_    0.271869 0.529387 0.981741 0.166910
H2    H     H_    0.732608 0.494526 0.020433 0.169370
H3    H     H_    0.776659 0.313351 0.406731 0.158424
H4    H     H_    0.235469 0.657007 0.629139 0.169471
N1    N     N_R   0.792200 0.479100 0.480660 -0.131562
N2    N     N_R   0.207800 0.520900 0.519340 -0.135314
O1    O     O_R   0.578300 0.494420 0.341180 -0.620722
O2    O     O_R   0.421700 0.505580 0.658820 -0.626581
O3    O     O_R   0.390690 0.507830 0.353590 -0.605013
O4    O     O_R   0.609310 0.492170 0.646410 -0.606210
O5    O     O_R   0.593810 0.327740 0.493800 -0.605776
O6    O     O_R   0.406190 0.672260 0.506200 -0.599343
O7    O     O_R   0.406190 0.341150 0.506220 -0.639788
O8    O     O_R   0.593810 0.658850 0.493780 -0.632304
Zn1   Zn    Zn3+2 0.625270 0.491050 0.491710 0.934393
Zn2   Zn    Zn3+2 0.374730 0.508950 0.508290 0.937154
C27   C     C_3   0.341172 0.387602 0.822345 -0.392127
C28   C     C_3   0.374060 0.267816 0.776938 -0.802905
H5    H     H_    0.427064 0.275069 0.711040 0.255182
H6    H     H_    0.419991 0.216454 0.839480 0.255145
H7    H     H_    0.298121 0.220459 0.746422 0.243624
H8    H     H_    0.284582 0.369814 0.883411 0.205044
H9    H     H_    0.290042 0.436984 0.762131 0.230672
C29   C     C_3   0.662130 0.624760 0.184918 -0.386896
C30   C     C_3   0.627918 0.743749 0.231015 -0.818129
H10   H     H_    0.581872 0.795319 0.168683 0.261238
H11   H     H_    0.574439 0.734860 0.296249 0.256919
H12   H     H_    0.703151 0.791814 0.262265 0.240471
H13   H     H_    0.711974 0.574391 0.245393 0.232795
H14   H     H_    0.720020 0.644182 0.125558 0.204865
I1    I     I_    0.798315 0.436371 0.804866 -0.443305
I2    I     I_    0.217520 0.624591 0.197464 -0.405434
C31   C     C_3   0.810162 0.659992 0.596526 -0.328284
C32   C     C_3   0.814320 0.767337 0.530551 -0.861219
H15   H     H_    0.775948 0.749600 0.449091 0.278062
H16   H     H_    0.768578 0.841056 0.567332 0.252054
H17   H     H_    0.901777 0.792595 0.526029 0.247257
H18   H     H_    0.727407 0.642051 0.616551 0.263850
H19   H     H_    0.841533 0.679547 0.677813 0.162113
C33   C     C_3   0.176295 0.356652 0.384799 -0.360665
C34   C     C_3   0.105035 0.365178 0.279110 -0.839414
H20   H     H_    0.065810 0.452866 0.270810 0.284161
H21   H     H_    0.157331 0.346700 0.212570 0.263340
H22   H     H_    0.038193 0.300750 0.271555 0.241662
H23   H     H_    0.260415 0.377355 0.369578 0.274222
H24   H     H_    0.184641 0.265417 0.408130 0.173707
C35   C     C_3   0.039952 0.673331 0.718244 -0.420975
C36   C     C_3   0.140638 0.696667 0.798239 -0.876368
H25   H     H_    0.190835 0.615793 0.812002 0.254507
H26   H     H_    0.193016 0.765320 0.771094 0.253416
H27   H     H_    0.111268 0.728385 0.874847 0.272715
H28   H     H_    0.000689 0.759267 0.700280 0.225947
H29   H     H_    0.986118 0.618963 0.761472 0.245074
C37   C     C_3   0.980549 0.221272 0.466748 -0.426680
C38   C     C_3   0.907727 0.155505 0.535840 -0.829837
H30   H     H_    0.904134 0.201645 0.614025 0.283791
H31   H     H_    0.822153 0.145932 0.497234 0.255663
H32   H     H_    0.943619 0.066853 0.548487 0.245666
H33   H     H_    0.975910 0.178301 0.386818 0.211170
H34   H     H_    0.065782 0.211448 0.505582 0.217373

loop_
_geom_bond_atom_site_label_1
_geom_bond_atom_site_label_2
_ccdc_geom_bond_type
C18   C21   A    
C35   C36   S    
O2    Zn2   S    
C22   I1    S    
C38   H30   S    
C1    O1    A    
C1    C18   S    
C36   H26   S    
C32   H17   S    
C19   C21   A    
C24   C26   A    
C4    C37   S    
C8    C31   S    
C20   C25   A    
C15   C16   S    
C32   H16   S    
C11   O5    A    
C19   C26   A    
C37   H34   S    
C33   H24   S    
C36   H27   S    
C35   H28   S    
C19   H1    S    
C27   H8    S    
C28   H7    S    
C5    N2    A    
C2    O2    A    
C33   C34   S    
C31   C32   S    
C2    C17   S    
C12   O6    A    
O4    Zn1   S    
C38   H31   S    
C28   H6    S    
O7    Zn2   S    
C17   C24   A    
C36   H25   S    
C34   H20   S    
C4    C6    A    
C27   H9    S    
C23   C29   S    
C20   H2    S    
C25   C26   A    
C29   H14   S    
C30   H10   S    
C32   H15   S    
C34   H21   S    
C12   O8    A    
C27   C28   S    
C37   H33   S    
C33   H23   S    
C29   C30   S    
C35   H29   S    
C11   O7    A    
O8    Zn1   S    
C12   C14   S    
C13   C15   T    
C14   C16   T    
C38   H32   S    
C28   H5    S    
C1    O3    A    
C5    H4    S    
C9    C10   A    
C2    O4    A    
C7    C9    A    
C7    N2    A    
N1    Zn1   S    
C8    N1    A    
C17   C22   A    
C20   C22   A    
C37   C38   S    
C3    C5    A    
O6    Zn2   S    
C29   H13   S    
C30   H12   S    
O1    Zn1   S    
C34   H22   S    
C21   I2    S    
C3    C10   A    
C31   H19   S    
C7    C33   S    
C11   C13   S    
C18   C23   A    
O3    Zn2   S    
C6    N1    A    
C23   C25   A    
O5    Zn1   S    
C3    C35   S    
C31   H18   S    
C6    H3    S    
C8    C10   A    
C24   C27   S    
N2    Zn2   S    
C30   H11   S    
C4    C9    A    
