data_mof_unit_24143.cif
_audit_creation_date              2012-12-10T17:57:50-0500
_audit_creation_method            fapswitch 2.2
_symmetry_space_group_name_H-M    P1
_symmetry_Int_Tables_number       1
_space_group_crystal_system       triclinic
_cell_length_a                    10.821767
_cell_length_b                    9.490676
_cell_length_c                    15.129244
_cell_angle_alpha                 90.973868
_cell_angle_beta                  90.409277
_cell_angle_gamma                 90.013703
_cell_volume                      1553.59819202

loop_
_atom_site_label
_atom_site_type_symbol
_atom_type_description
_atom_site_fract_x
_atom_site_fract_y
_atom_site_fract_z
_atom_type_partial_charge
C1    C     C_R   0.261995 0.499987 0.499925 0.783690
C2    C     C_R   0.738005 0.500013 0.500075 0.783690
C3    C     C_R   0.376009 0.708287 0.055843 -0.245951
C4    C     C_R   0.623991 0.291713 0.944157 -0.245950
C5    C     C_R   0.064022 0.374339 0.514308 -0.193250
C6    C     C_R   0.935978 0.625661 0.485692 -0.193250
C7    C     C_R   0.936214 0.374463 0.514582 -0.200977
C8    C     C_R   0.063785 0.625537 0.485418 -0.200977
C9    C     C_R   0.871789 0.500052 0.500124 -0.011594
C10   C     C_R   0.128211 0.499948 0.499875 -0.011594
C11   C     C_R   0.413264 0.073213 0.452823 -0.024695
C12   C     C_R   0.586736 0.926787 0.547177 -0.024695
C13   C     C_R   0.586731 0.075792 0.547185 -0.034283
C14   C     C_R   0.413269 0.924208 0.452815 -0.034283
C15   C     C_R   0.504612 0.498485 0.328766 0.811750
C16   C     C_R   0.495387 0.501515 0.671234 0.811751
C17   C     C_R   0.548797 0.396546 0.811950 -0.253786
C18   C     C_R   0.451203 0.603454 0.188050 -0.253786
C19   C     C_R   0.489435 0.504904 0.767998 -0.110409
C20   C     C_R   0.510565 0.495096 0.232002 -0.110409
C21   C     C_R   0.429574 0.614743 0.816048 -0.075863
C22   C     C_R   0.570426 0.385257 0.183952 -0.075863
C23   C     C_R   0.428741 0.611689 0.910423 0.017345
C24   C     C_R   0.571259 0.388311 0.089577 0.017345
C25   C     C_R   0.495981 0.502227 0.953375 0.046773
C26   C     C_R   0.504020 0.497773 0.046625 0.046773
C27   C     C_R   0.555226 0.396262 0.903261 0.106867
C28   C     C_R   0.444775 0.603738 0.096739 0.106867
C29   C     C_R   0.364362 0.712037 0.964412 -0.033555
C30   C     C_R   0.635638 0.287963 0.035588 -0.033556
Cu1   Cu    Cu3+1 0.500000 0.640660 0.500000 0.941746
Cu2   Cu    Cu3+1 0.500000 0.359340 0.500000 0.941746
H1    H     H_    0.595370 0.314127 0.774315 0.145789
H2    H     H_    0.404630 0.685873 0.225685 0.145789
H3    H     H_    0.328024 0.786534 0.096085 0.143353
H4    H     H_    0.671976 0.213466 0.903915 0.143353
H5    H     H_    0.112326 0.276327 0.525924 0.140929
H6    H     H_    0.887674 0.723673 0.474076 0.140929
H7    H     H_    0.888072 0.276572 0.526473 0.139898
H8    H     H_    0.111928 0.723428 0.473527 0.139898
H9    H     H_    0.344284 0.128445 0.414667 0.117626
H10   H     H_    0.655716 0.871554 0.585333 0.117626
H11   H     H_    0.655805 0.133101 0.585273 0.112094
H12   H     H_    0.344195 0.866899 0.414727 0.112094
N1    N     N_R   0.500000 0.852070 0.500000 -0.150472
N2    N     N_R   0.500000 0.147930 0.500000 -0.150472
O1    O     O_R   0.319640 0.618740 0.499990 -0.586797
O2    O     O_R   0.680360 0.381260 0.500010 -0.586797
O3    O     O_R   0.680360 0.618740 0.500010 -0.595442
O4    O     O_R   0.319640 0.381260 0.499990 -0.595442
O5    O     O_R   0.499970 0.618800 0.370260 -0.591945
O6    O     O_R   0.500030 0.381200 0.629740 -0.591946
O7    O     O_R   0.500030 0.618800 0.629740 -0.567515
O8    O     O_R   0.499970 0.381200 0.370260 -0.567515
C31   C     C_R   0.373669 0.732887 0.766621 0.133490
C32   C     C_R   0.435283 0.863063 0.762877 -0.121904
C33   C     C_R   0.383503 0.974026 0.715568 -0.110689
C34   C     C_R   0.271245 0.955116 0.670652 -0.088652
C35   C     C_R   0.210174 0.825432 0.673359 -0.108821
C36   C     C_R   0.261165 0.714281 0.720970 -0.101341
H13   H     H_    0.522718 0.878449 0.796963 0.116656
H14   H     H_    0.430654 0.074501 0.713420 0.134486
H15   H     H_    0.231681 0.040917 0.633663 0.114597
H16   H     H_    0.123146 0.811200 0.638742 0.120835
H17   H     H_    0.213350 0.614087 0.722395 0.109076
C37   C     C_R   0.626331 0.267113 0.233378 0.133490
C38   C     C_R   0.738834 0.285719 0.279029 -0.101340
C39   C     C_R   0.789825 0.174568 0.326641 -0.108821
C40   C     C_R   0.728755 0.044884 0.329348 -0.088652
C41   C     C_R   0.616496 0.025974 0.284432 -0.110689
C42   C     C_R   0.564717 0.136937 0.237123 -0.121904
H18   H     H_    0.786650 0.385913 0.277605 0.109076
H19   H     H_    0.876854 0.188799 0.361258 0.120835
H20   H     H_    0.768318 0.959083 0.366337 0.114597
H21   H     H_    0.569345 0.925498 0.286580 0.134486
H22   H     H_    0.477281 0.121551 0.203037 0.116656
C43   C     C_1   0.279099 0.816539 0.931678 0.244729
N3    N     N_1   0.210259 0.900540 0.906647 -0.273789
C44   C     C_1   0.720901 0.183461 0.068322 0.244729
N4    N     N_1   0.789741 0.099460 0.093353 -0.273789

loop_
_geom_bond_atom_site_label_1
_geom_bond_atom_site_label_2
_ccdc_geom_bond_type
C31   C32   A    
C4    H4    S    
C5    H5    S    
C6    C9    A    
C33   H14   S    
C43   N3    T    
C35   H16   S    
C23   C29   A    
C3    C28   A    
C19   C21   A    
C24   C26   A    
C13   N2    A    
C11   C14   A    
C32   C33   A    
C38   H18   S    
C3    C29   A    
C16   O7    A    
C22   C37   S    
C12   H10   S    
Cu2   O6    S    
C37   C42   A    
C39   C40   A    
C6    H6    S    
C41   C42   A    
C15   O5    A    
C1    O4    A    
C39   H19   S    
C37   C38   A    
C35   C36   A    
Cu1   O1    S    
C31   C36   A    
Cu2   O2    S    
C17   H1    S    
Cu1   O3    S    
Cu2   O8    S    
C14   N1    A    
C5    C7    A    
C15   C20   S    
C38   C39   A    
C17   C27   A    
C15   O8    A    
C18   C28   A    
C21   C31   S    
C1    O1    A    
C6    C8    A    
C2    O2    A    
C34   C35   A    
C2    O3    A    
Cu1   Cu2   S    
C3    H3    S    
C40   H20   S    
Cu1   O7    S    
C18   H2    S    
Cu2   O4    S    
C30   C44   S    
C20   C22   A    
C36   H17   S    
C21   C23   A    
C22   C24   A    
C13   H11   S    
C4    C27   A    
C14   H12   S    
C34   H15   S    
C7    C9    A    
Cu2   N2    S    
C1    C10   S    
C16   O6    A    
Cu1   O5    S    
C12   N1    A    
C25   C27   A    
C26   C28   A    
C25   C26   A    
C5    C10   A    
C33   C34   A    
C42   H22   S    
C16   C19   S    
C17   C19   A    
C11   H9    S    
C18   C20   A    
C23   C25   A    
C40   C41   A    
C24   C30   A    
C44   N4    T    
C29   C43   S    
C12   C13   A    
C8    C10   A    
Cu1   N1    S    
C41   H21   S    
C7    H7    S    
C32   H13   S    
C11   N2    A    
C8    H8    S    
C2    C9    S    
C4    C30   A    
