data_mof_unit_40291.cif
_audit_creation_date              2013-03-05T15:49:14-0500
_audit_creation_method            fapswitch 2.2
_symmetry_space_group_name_H-M    P1
_symmetry_Int_Tables_number       1
_space_group_crystal_system       triclinic
_cell_length_a                    18.104966
_cell_length_b                    19.028627
_cell_length_c                    19.291176
_cell_angle_alpha                 110.918551
_cell_angle_beta                  109.130644
_cell_angle_gamma                 108.626484
_cell_volume                      5097.82780718

loop_
_atom_site_label
_atom_site_type_symbol
_atom_site_description
_atom_site_fract_x
_atom_site_fract_y
_atom_site_fract_z
_atom_type_partial_charge
O1    O     O_R   0.592010 0.539900 0.448660 -0.623520
O2    O     O_R   0.591210 0.643320 0.551330 -0.571948
C1    C     C_R   0.624304 0.620166 0.503306 0.979021
O3    O     O_R   0.408080 0.448290 0.356360 -0.593067
O4    O     O_R   0.407280 0.551710 0.459030 -0.615820
C2    C     C_R   0.379429 0.500540 0.380270 1.026951
Zn1   Zn    Zn3+2 0.500540 0.430950 0.431450 1.090989
Zn2   Zn    Zn3+2 0.499460 0.569050 0.568550 1.040198
O5    O     O_R   0.408790 0.356680 0.448670 -0.550991
O6    O     O_R   0.407990 0.460100 0.551340 -0.587601
O7    O     O_R   0.592720 0.448290 0.540970 -0.611161
O8    O     O_R   0.591920 0.551710 0.643640 -0.620454
C3    C     C_R   0.383971 0.381812 0.505147 0.960297
C4    C     C_R   0.622572 0.500008 0.620114 0.918447
C5    C     C_3   0.330336 0.522555 0.249291 0.231253
C6    C     C_3   0.290922 0.583146 0.263892 0.184582
C7    C     C_3   0.196708 0.506388 0.191888 -0.328799
C8    C     C_3   0.237119 0.445797 0.177455 0.042065
C9    C     C_3   0.219465 0.424612 0.242348 0.265678
C10   C     C_3   0.179670 0.485781 0.258008 0.138570
C11   C     C_3   0.273995 0.563435 0.329461 0.106975
C12   C     C_3   0.313741 0.502213 0.314741 -0.343620
H1    H     H_    0.897941 0.578943 0.541276 0.165054
C13   C     C_R   0.613472 0.775463 0.501984 0.168469
C14   C     C_R   0.583271 0.817518 0.460651 0.272927
C15   C     C_R   0.611387 0.828036 0.404204 -0.042897
C16   C     C_R   0.681095 0.814004 0.401736 -0.145407
C17   C     C_R   0.720066 0.783030 0.451330 0.086144
C18   C     C_R   0.675035 0.747295 0.487076 0.073428
C19   C     C_R   0.807101 0.794667 0.474533 -0.160766
C20   C     C_R   0.829512 0.736754 0.492775 0.016878
C21   C     C_R   0.771143 0.677585 0.504345 0.047800
C22   C     C_R   0.694153 0.685762 0.504409 -0.130146
C23   C     C_R   0.906788 0.733783 0.493361 -0.232298
C24   C     C_R   0.934059 0.680785 0.515125 0.229479
C25   C     C_R   0.879296 0.623657 0.528726 -0.190172
C26   C     C_R   0.796357 0.616888 0.518523 0.202792
H2    H     H_    0.584077 0.853594 0.366799 0.164505
H3    H     H_    0.703414 0.827469 0.360227 0.161100
H4    H     H_    0.946019 0.771499 0.474896 0.150765
C27   C     C_R   0.753740 0.657134 0.784405 0.264030
C28   C     C_R   0.774527 0.716480 0.866205 0.005990
C29   C     C_R   0.818023 0.708568 0.934961 0.232159
C30   C     C_R   0.846943 0.646782 0.920974 0.108490
C31   C     C_R   0.803125 0.572457 0.836372 -0.039400
C32   C     C_R   0.748717 0.575755 0.767848 -0.108651
C33   C     C_R   0.812994 0.497155 0.817288 -0.088239
C34   C     C_R   0.766674 0.425012 0.731822 -0.037288
C35   C     C_R   0.702093 0.424275 0.665923 -0.096788
C36   C     C_R   0.692389 0.499668 0.684959 -0.145707
C37   C     C_R   0.783024 0.353042 0.708465 0.064240
C38   C     C_R   0.756717 0.299496 0.622409 0.045816
C39   C     C_R   0.691231 0.298281 0.558407 0.225785
C40   C     C_R   0.651964 0.348361 0.582001 0.185603
H5    H     H_    0.076522 0.288201 0.296660 0.206203
C41   C     C_R   0.430001 0.363068 0.660066 0.162174
C42   C     C_R   0.452707 0.333276 0.717047 0.129374
C43   C     C_R   0.383644 0.270930 0.714695 0.176669
C44   C     C_R   0.294644 0.246420 0.660210 0.182560
C45   C     C_R   0.275358 0.246779 0.582552 -0.105775
C46   C     C_R   0.343110 0.311065 0.584506 0.022945
C47   C     C_R   0.191820 0.186646 0.504070 -0.108346
C48   C     C_R   0.171854 0.200001 0.433547 -0.054022
C49   C     C_R   0.227940 0.280766 0.450551 -0.093505
C50   C     C_R   0.318593 0.323103 0.513317 -0.059119
C51   C     C_R   0.094234 0.141036 0.349946 0.249280
C52   C     C_R   0.061541 0.173932 0.299444 0.229981
C53   C     C_R   0.106913 0.262324 0.331037 -0.184086
C54   C     C_R   0.190020 0.317100 0.406699 0.291034
O9    O     O_R   0.951440 0.539900 0.094740 -0.596009
O10   O     O_R   0.054870 0.643310 0.094700 -0.622227
C55   C     C_R   0.005304 0.620180 0.125605 0.877483
O11   O     O_R   0.044440 0.448270 0.096110 -0.651928
O12   O     O_R   0.147870 0.551680 0.096080 -0.594140
C56   C     C_R   0.126249 0.501815 0.124399 0.917488
Zn3   Zn    Zn3+2 0.934770 0.430930 0.003810 0.991486
Zn4   Zn    Zn3+2 0.072900 0.569020 0.003770 1.016900
O13   O     O_R   0.952810 0.356650 0.912880 -0.610433
O14   O     O_R   0.056240 0.460060 0.912840 -0.595318
O15   O     O_R   0.859800 0.448280 0.911500 -0.558817
O16   O     O_R   0.963240 0.551690 0.911470 -0.618082
C57   C     C_R   0.016570 0.381043 0.895831 0.895045
C58   C     C_R   0.881485 0.499563 0.883951 1.007514
O17   O     O_R   0.052860 0.908430 0.461230 -0.637269
O18   O     O_R   0.948620 0.908400 0.356980 -0.564302
C59   C     C_R   0.002748 0.881033 0.382596 0.937871
O19   O     O_R   0.960510 0.908410 0.552140 -0.637900
O20   O     O_R   0.856270 0.908390 0.447890 -0.618942
C60   C     C_R   0.878169 0.874199 0.492263 0.951295
Zn5   Zn    Zn3+2 0.069600 0.000030 0.569620 0.936311
Zn6   Zn    Zn3+2 0.930400 0.000000 0.430410 1.145009
O21   O     O_R   0.051380 0.091620 0.643040 -0.640997
O22   O     O_R   0.947140 0.091600 0.538800 -0.515937
O23   O     O_R   0.143730 0.091640 0.552130 -0.639744
O24   O     O_R   0.039490 0.091610 0.447890 -0.553185
C61   C     C_R   0.999177 0.121933 0.618919 0.914598
C62   C     C_R   0.121927 0.117953 0.499328 0.892921
H6    H     H_    0.749502 0.489337 0.160781 0.192424
C63   C     C_R   0.169364 0.798807 0.246717 0.160996
C64   C     C_R   0.229392 0.887152 0.287005 -0.167623
C65   C     C_R   0.231900 0.946271 0.355710 0.234480
C66   C     C_R   0.169087 0.916118 0.379865 0.182781
C67   C     C_R   0.087198 0.834001 0.318466 0.008843
C68   C     C_R   0.087778 0.771415 0.251980 -0.032503
C69   C     C_R   0.005966 0.814092 0.321525 -0.096542
C70   C     C_R   0.929758 0.729947 0.269673 -0.037775
C71   C     C_R   0.929719 0.665435 0.205157 -0.033015
C72   C     C_R   0.007720 0.686724 0.194815 -0.186776
C73   C     C_R   0.853295 0.706083 0.281941 0.113722
C74   C     C_R   0.801656 0.619430 0.256765 0.152526
C75   C     C_R   0.800944 0.556089 0.192129 -0.313765
C76   C     C_R   0.850262 0.581066 0.154713 0.345045
H7    H     H_    0.284672 0.909204 0.275513 0.173559
C77   C     C_R   0.147567 0.419097 0.831965 0.298331
C78   C     C_R   0.168210 0.445168 0.778631 -0.353029
C79   C     C_R   0.117918 0.390557 0.689983 0.231372
C80   C     C_R   0.053458 0.303539 0.654243 0.146330
C81   C     C_R   0.037075 0.274194 0.709255 -0.179106
C82   C     C_R   0.072394 0.336668 0.795181 -0.071499
C83   C     C_R   0.992360 0.185751 0.684462 -0.030418
C84   C     C_R   0.967953 0.162456 0.739537 -0.117750
C85   C     C_R   0.990974 0.227268 0.820961 -0.028979
C86   C     C_R   0.031349 0.315051 0.841295 -0.102373
C87   C     C_R   0.920761 0.074423 0.714822 0.236804
C88   C     C_R   0.931099 0.052742 0.778568 0.050353
C89   C     C_R   0.959160 0.115963 0.860954 0.192422
C90   C     C_R   0.979026 0.200799 0.879745 0.059139
H8    H     H_    0.222928 0.509360 0.806398 0.230482
N1    N     N_R   0.333601 0.667446 0.273179 0.217112
O25   O     O_R   0.365152 0.675155 0.223093 -0.335038
O26   O     O_R   0.351412 0.736481 0.338038 -0.443526
N2    N     N_2   0.012905 0.679964 0.516292 -0.305252
H9    H     H_    0.038197 0.710403 0.487936 0.216161
C91   C     C_3   0.082268 0.703847 0.597972 -0.703268
H10   H     H_    0.139873 0.699974 0.591679 0.246570
H11   H     H_    0.056784 0.659063 0.619304 0.256790
H12   H     H_    0.106371 0.771257 0.646971 0.229570
N3    N     N_2   0.738864 0.544708 0.517225 -0.288385
H13   H     H_    0.768479 0.542518 0.571496 0.251322
C92   C     C_3   0.702583 0.462565 0.440818 -0.637521
H14   H     H_    0.649965 0.410324 0.438220 0.280028
H15   H     H_    0.756162 0.445929 0.441190 0.228011
H16   H     H_    0.671619 0.465085 0.382175 0.229637
N4    N     N_R   0.656567 0.238591 0.469911 0.270086
O27   O     O_R   0.661729 0.267663 0.419084 -0.362038
O28   O     O_R   0.609672 0.155748 0.437635 -0.360372
N5    N     N_R   0.757129 0.685653 0.725292 0.207431
O29   O     O_R   0.812144 0.679925 0.696932 -0.455638
O30   O     O_R   0.721055 0.732426 0.713649 -0.421775
N6    N     N_2   0.760944 0.789012 0.882075 -0.221512
H17   H     H_    0.792088 0.829488 0.864474 0.294914
C93   C     C_3   0.669535 0.769850 0.859401 -0.632706
H18   H     H_    0.624074 0.726195 0.789114 0.226559
H19   H     H_    0.666667 0.830896 0.879432 0.246396
H20   H     H_    0.646091 0.738726 0.892751 0.236605
N7    N     N_R   0.847482 0.772396 0.020693 0.227295
O31   O     O_R   0.886053 0.854557 0.046947 -0.282975
O32   O     O_R   0.836252 0.748207 0.073243 -0.390087
N8    N     N_2   0.931294 0.671547 0.987068 -0.265694
H21   H     H_    0.936291 0.693366 0.046296 0.284037
C94   C     C_3   0.006958 0.733135 0.990672 -0.650284
H22   H     H_    0.071020 0.746189 0.039537 0.243061
H23   H     H_    0.006981 0.795505 0.008490 0.247192
H24   H     H_    0.004101 0.707040 0.927729 0.241971
N9    N     N_R   0.414170 0.544655 0.247108 0.245676
O33   O     O_R   0.413248 0.508052 0.175364 -0.330274
O34   O     O_R   0.489702 0.607220 0.315715 -0.454109
N10   N     N_2   0.809619 0.324202 0.765913 -0.276658
H25   H     H_    0.847550 0.295188 0.757082 0.224935
C95   C     C_3   0.736000 0.272771 0.772122 -0.641185
H26   H     H_    0.762534 0.257919 0.822454 0.230465
H27   H     H_    0.686668 0.210945 0.710393 0.204541
H28   H     H_    0.701046 0.308755 0.789678 0.255940
N11   N     N_2   0.790191 0.241636 0.599877 -0.251555
H29   H     H_    0.858474 0.268012 0.637594 0.246836
C96   C     C_3   0.737358 0.155173 0.581250 -0.567997
H30   H     H_    0.770786 0.147692 0.635651 0.214872
H31   H     H_    0.731337 0.107531 0.522861 0.296995
H32   H     H_    0.668454 0.140630 0.569686 0.222129
N12   N     N_R   0.555643 0.306829 0.533215 0.222308
O35   O     O_R   0.513633 0.265910 0.449914 -0.313372
O36   O     O_R   0.509441 0.296063 0.571290 -0.478976
N13   N     N_2   0.487948 0.449429 0.686368 -0.287667
H33   H     H_    0.555184 0.470075 0.720933 0.229404
C97   C     C_3   0.465003 0.511041 0.730419 -0.657458
H34   H     H_    0.508529 0.575852 0.743581 0.231343
H35   H     H_    0.475402 0.515638 0.792246 0.214095
H36   H     H_    0.393737 0.491582 0.690508 0.287918
N14   N     N_2   0.543686 0.369675 0.780050 -0.308074
H37   H     H_    0.589932 0.380713 0.759610 0.247628
C98   C     C_3   0.573616 0.438337 0.864352 -0.706277
H38   H     H_    0.618639 0.501805 0.875768 0.253322
H39   H     H_    0.611328 0.426661 0.913118 0.298877
H40   H     H_    0.516245 0.441039 0.872293 0.222537
N15   N     N_2   0.404656 0.237721 0.769734 -0.292204
H41   H     H_    0.445379 0.281832 0.834543 0.242982
C99   C     C_3   0.340383 0.151846 0.743930 -0.717090
H42   H     H_    0.374801 0.127881 0.781085 0.227144
H43   H     H_    0.312061 0.106364 0.674792 0.239824
H44   H     H_    0.285247 0.153198 0.756728 0.254113
N16   N     N_2   0.232430 0.242244 0.691493 -0.265343
H45   H     H_    0.173937 0.236580 0.651521 0.226564
C100  C     C_3   0.267683 0.308599 0.778924 -0.745979
H46   H     H_    0.213173 0.297367 0.794966 0.249870
H47   H     H_    0.294388 0.373660 0.786203 0.242389
H48   H     H_    0.321102 0.306571 0.825494 0.251654
N17   N     N_R   0.058732 0.049206 0.312191 0.221914
O37   O     O_R   0.113845 0.019040 0.321603 -0.450456
O38   O     O_R   0.972954 0.995127 0.261684 -0.273553
N18   N     N_R   0.980664 0.119395 0.217893 0.253035
O39   O     O_R   0.982126 0.119080 0.150826 -0.250049
O40   O     O_R   0.903571 0.086673 0.214344 -0.303377
N19   N     N_2   0.222379 0.388005 0.095101 -0.237308
H49   H     H_    0.164037 0.368482 0.042904 0.238153
C101  C     C_3   0.249242 0.323344 0.090032 -0.536866
H50   H     H_    0.314810 0.350961 0.147336 0.251914
H51   H     H_    0.256200 0.299357 0.032259 0.228381
H52   H     H_    0.197624 0.267963 0.084690 0.273225
N20   N     N_R   0.224487 0.409047 0.447120 0.219809
O41   O     O_R   0.203362 0.442793 0.401144 -0.387946
O42   O     O_R   0.254163 0.454169 0.528768 -0.307076
N21   N     N_2   0.202981 0.742568 0.218807 -0.272111
H53   H     H_    0.190033 0.690931 0.228174 0.236034
C102  C     C_3   0.252132 0.757019 0.174359 -0.503123
H54   H     H_    0.240023 0.694971 0.126328 0.271427
H55   H     H_    0.325274 0.798695 0.221097 0.249771
H56   H     H_    0.229791 0.788289 0.139371 0.171814
N22   N     N_2   0.303248 0.033804 0.404987 -0.273721
H57   H     H_    0.288254 0.079332 0.435609 0.252394
C103  C     C_3   0.390908 0.048241 0.457956 -0.706925
H58   H     H_    0.442104 0.116830 0.488248 0.295407
H59   H     H_    0.410145 0.006771 0.418969 0.252652
H60   H     H_    0.391037 0.034499 0.509275 0.212388
N23   N     N_2   0.199087 0.956777 0.469171 -0.273291
H61   H     H_    0.242931 0.022465 0.505500 0.227404
C104  C     C_3   0.226976 0.910903 0.508607 -0.757097
H62   H     H_    0.244750 0.944123 0.576790 0.228880
H63   H     H_    0.286597 0.909294 0.505335 0.227560
H64   H     H_    0.171516 0.843531 0.476007 0.242397
N24   N     N_2   0.814809 0.760401 0.297264 -0.319341
H65   H     H_    0.772441 0.744596 0.320369 0.229221
C105  C     C_3   0.770769 0.767439 0.224323 -0.572260
H66   H     H_    0.743499 0.811584 0.241522 0.213824
H67   H     H_    0.714561 0.702974 0.169023 0.224683
H68   H     H_    0.819238 0.794648 0.205356 0.307236
N25   N     N_2   0.742402 0.595998 0.288111 -0.333390
H69   H     H_    0.750967 0.556029 0.310857 0.233919
C106  C     C_3   0.648467 0.562796 0.230888 -0.672265
H70   H     H_    0.609831 0.552377 0.264053 0.275527
H71   H     H_    0.620912 0.500064 0.172481 0.235873
H72   H     H_    0.639501 0.609535 0.212217 0.256871
N26   N     N_R   0.805076 0.530879 0.062857 0.228566
O43   O     O_R   0.759358 0.446770 0.022766 -0.428178
O44   O     O_R   0.798520 0.569059 0.019039 -0.424961
N27   N     N_R   0.964507 0.093586 0.925330 0.214680
O45   O     O_R   0.042471 0.122469 0.989021 -0.338909
O46   O     O_R   0.891730 0.042731 0.919409 -0.380657
N28   N     N_R   0.182840 0.336907 0.227363 0.210933
O47   O     O_R   0.103538 0.276878 0.162431 -0.379767
O48   O     O_R   0.235246 0.314312 0.266959 -0.384809
N29   N     N_R   0.208822 0.472771 0.922866 0.235315
O49   O     O_R   0.225726 0.437524 0.968346 -0.387475
O50   O     O_R   0.256032 0.556279 0.958682 -0.366689
N30   N     N_R   0.133047 0.424649 0.637321 0.253084
O51   O     O_R   0.065208 0.408348 0.570712 -0.289652
O52   O     O_R   0.213089 0.484423 0.664404 -0.361546
N31   N     N_R   0.999709 0.248989 0.562910 0.234773
O53   O     O_R   0.912784 0.215774 0.526193 -0.325336
O54   O     O_R   0.037604 0.244322 0.515867 -0.358634
N32   N     N_R   0.851608 0.009578 0.627434 0.197328
O55   O     O_R   0.805021 0.931304 0.608700 -0.440303
O56   O     O_R   0.816505 0.032218 0.574685 -0.432917
N33   N     N_2   0.911763 0.966905 0.758674 -0.254624
H73   H     H_    0.887667 0.945017 0.792632 0.279364
C107  C     C_3   0.981137 0.947451 0.752757 -0.644963
H74   H     H_    0.956193 0.877130 0.727027 0.255115
H75   H     H_    0.041899 0.984450 0.817185 0.230970
H76   H     H_    0.999446 0.964290 0.709086 0.257868
N34   N     N_2   0.989165 0.257509 0.958521 -0.286277
H77   H     H_    0.039317 0.266763 0.011340 0.264304
C108  C     C_3   0.906177 0.234314 0.961875 -0.590342
H78   H     H_    0.909114 0.293152 0.005542 0.231863
H79   H     H_    0.896624 0.189980 0.987009 0.265070
H80   H     H_    0.846855 0.203238 0.897665 0.209236
N35   N     N_2   0.100414 0.475314 0.266339 -0.260550
H81   H     H_    0.086424 0.524212 0.268315 0.207985
C109  C     C_3   0.020873 0.390715 0.213364 -0.553624
H82   H     H_    0.959627 0.397412 0.197712 0.197447
H83   H     H_    0.020382 0.356546 0.248938 0.252110
H84   H     H_    0.016954 0.351761 0.152566 0.257093
N36   N     N_2   0.299773 0.628208 0.414290 -0.216150
H85   H     H_    0.367128 0.673762 0.449197 0.233280
C110  C     C_3   0.242140 0.665412 0.419853 -0.673205
H86   H     H_    0.182532 0.620654 0.416814 0.258357
H87   H     H_    0.220433 0.679372 0.367743 0.224265
H88   H     H_    0.278806 0.726847 0.482355 0.217238
N37   N     N_2   0.596028 0.777361 0.569168 -0.292958
H89   H     H_    0.530313 0.756493 0.555387 0.200803
C111  C     C_3   0.661883 0.852012 0.653624 -0.577178
H90   H     H_    0.642176 0.845656 0.700776 0.221519
H91   H     H_    0.666375 0.912172 0.655212 0.218638
H92   H     H_    0.728419 0.855814 0.672399 0.293851
N38   N     N_2   0.526520 0.851148 0.476456 -0.263031
H93   H     H_    0.492098 0.828652 0.503788 0.227323
C112  C     C_3   0.562678 0.943345 0.510668 -0.732130
H94   H     H_    0.513417 0.962114 0.521130 0.230453
H95   H     H_    0.575301 0.961074 0.465153 0.255629
H96   H     H_    0.626260 0.980096 0.572805 0.239769

loop_
_geom_bond_atom_site_label_1
_geom_bond_atom_site_label_2
_geom_bond_distance
_ccdc_geom_bond_type
C7    C56   1.445520 S    
C5    C8    1.532683 S    
C100  H46   1.108191 S    
N27   O46   1.301369 A    
C27   C28   1.404920 A    
C63   N21   1.423020 S    
C6    C11   1.534288 S    
C51   N17   1.436628 S    
O11   C56   1.280194 A    
C71   C76   1.444079 A    
N5    O29   1.298929 A    
C92   H16   1.112034 S    
O10   Zn4   2.020226 S    
C111  H90   1.110429 S    
N8    C94   1.452151 S    
C102  H54   1.104972 S    
C35   C36   1.432122 A    
C91   H12   1.111547 S    
N22   C103  1.447942 S    
C77   C78   1.393712 A    
O18   Zn6   2.015938 S    
C5    C12   1.535444 S    
N9    O33   1.300005 A    
C88   N33   1.427147 S    
C39   C40   1.398506 A    
C41   C42   1.412915 A    
C108  H80   1.112102 S    
Zn1   O7    2.048721 S    
C100  H47   1.111396 S    
C87   N32   1.440971 S    
C15   C16   1.382736 A    
C65   C66   1.400380 A    
O17   Zn5   2.036362 S    
C103  H60   1.110057 S    
C65   N22   1.427135 S    
C23   H4    1.081299 S    
C104  H63   1.111073 S    
C17   C18   1.397066 A    
C107  H75   1.111243 S    
C77   N29   1.439094 S    
Zn3   O13   2.020266 S    
C23   C24   1.386219 A    
C110  H88   1.110953 S    
O2    C1    1.285452 A    
C101  H51   1.109869 S    
O4    C2    1.280091 A    
Zn2   O6    2.026265 S    
O7    C4    1.279881 A    
N15   C99   1.448074 S    
C97   H35   1.110608 S    
N37   H89   1.029274 S    
Zn6   O22   2.036360 S    
C70   C71   1.401359 A    
C1    C22   1.453546 S    
C78   C79   1.392637 A    
C2    C12   1.442551 S    
C18   C22   1.437065 A    
C43   N15   1.428050 S    
O21   C61   1.301603 A    
C7    C10   1.553598 S    
C79   C80   1.414948 A    
O14   C57   1.299101 A    
C52   N18   1.431654 S    
C45   C47   1.430230 A    
C8    C9    1.540178 S    
N16   H45   1.029675 S    
C85   C90   1.444127 A    
C99   H43   1.111232 S    
O5    C3    1.305265 A    
N11   H29   1.030983 S    
C64   C65   1.373856 A    
C84   C87   1.418395 A    
C67   C68   1.410504 A    
C94   H23   1.111285 S    
C13   C18   1.447061 A    
N10   H25   1.028198 S    
N7    O32   1.299778 A    
C34   C37   1.439407 A    
N8    H21   1.027404 S    
C106  H71   1.110883 S    
N2    H9    1.032168 S    
C112  H95   1.109412 S    
O12   Zn4   2.060034 S    
N20   O41   1.298646 A    
C25   C26   1.405250 A    
C105  H67   1.111284 S    
C27   C32   1.430401 A    
C109  H83   1.101239 S    
C76   N26   1.436543 S    
C89   N27   1.434610 S    
C11   N36   1.451407 S    
C33   C58   1.438750 S    
C77   C82   1.422896 A    
C106  H72   1.108940 S    
C110  H87   1.110855 S    
C14   C15   1.392421 A    
C74   N25   1.423900 S    
N36   H85   1.030352 S    
N19   C101  1.444834 S    
C63   C68   1.451930 A    
C48   C51   1.431757 A    
C44   C45   1.425579 A    
N9    O34   1.299097 A    
N38   H93   1.027498 S    
O1    Zn1   2.026266 S    
C11   C12   1.545585 S    
C81   C82   1.407949 A    
N16   C100  1.450959 S    
N30   O52   1.301236 A    
C37   N10   1.419350 S    
C66   C67   1.445738 A    
N23   C104  1.449024 S    
C9    N28   1.459937 S    
O15   C58   1.284994 A    
C28   N6    1.422522 S    
C106  H70   1.110520 S    
N22   H57   1.031054 S    
O16   C58   1.275802 A    
N12   O36   1.296863 A    
Zn5   O23   2.043577 S    
C42   C43   1.396321 A    
C31   C33   1.431987 A    
C96   H31   1.108920 S    
C100  H48   1.105925 S    
N25   C106  1.447467 S    
N5    O30   1.298881 A    
C105  H68   1.107933 S    
C21   C26   1.448370 A    
O12   C56   1.274783 A    
C48   C49   1.387579 A    
C37   C38   1.408866 A    
C33   C34   1.431172 A    
C55   C72   1.451544 S    
C107  H76   1.109158 S    
Zn4   O14   2.030627 S    
C13   C14   1.422858 A    
O3    C2    1.276383 A    
C104  H62   1.110028 S    
N3    H13   1.030924 S    
C101  H52   1.106695 S    
C16   H3    1.078252 S    
C74   C75   1.383497 A    
N29   O50   1.301660 A    
H5    C53   1.073367 S    
N30   O51   1.301324 A    
C97   H36   1.111215 S    
C91   H11   1.110037 S    
N33   H73   1.029088 S    
O23   C62   1.292668 A    
O3    Zn1   2.028353 S    
C108  H78   1.106846 S    
O18   C59   1.291554 A    
C103  H58   1.109796 S    
C78   H8    1.082751 S    
N17   O37   1.296022 A    
C45   C46   1.407390 A    
O1    C1    1.289094 A    
C24   C25   1.385390 A    
N7    O31   1.301452 A    
C99   H44   1.109741 S    
N28   O48   1.299475 A    
N13   H33   1.027731 S    
C98   H39   1.107110 S    
C5    N9    1.459171 S    
C42   N14   1.424086 S    
C110  H86   1.108696 S    
C79   N30   1.437869 S    
C46   C50   1.423206 A    
N27   O45   1.299845 A    
N20   O42   1.300658 A    
C47   C62   1.449252 S    
N23   H61   1.029399 S    
O13   C57   1.292969 A    
Zn5   O21   2.015724 S    
C63   C64   1.399126 A    
C27   N5    1.437076 S    
C93   H20   1.111460 S    
N19   H49   1.026022 S    
C19   C20   1.404220 A    
Zn2   O8    2.028353 S    
C112  H96   1.110770 S    
C9    C12   1.548940 S    
C47   C48   1.424562 A    
N24   C105  1.449497 S    
C7    C8    1.544443 S    
C109  H84   1.105052 S    
N14   H37   1.031418 S    
C67   C69   1.423685 A    
N37   C111  1.444338 S    
C49   C54   1.416062 A    
C92   H14   1.107456 S    
C52   C53   1.390154 A    
C103  H59   1.110457 S    
C6    N1    1.454167 S    
C111  H91   1.109885 S    
C84   C85   1.421704 A    
C80   N31   1.433094 S    
N3    C92   1.453147 S    
N4    O28   1.300465 A    
C96   H30   1.110539 S    
C107  H74   1.110699 S    
O8    C4    1.294941 A    
H1    C25   1.083294 S    
O22   C61   1.292589 A    
N18   O40   1.300890 A    
C26   N3    1.419739 S    
O19   C60   1.301878 A    
C29   C30   1.410150 A    
O9    Zn3   2.030671 S    
C88   C89   1.395103 A    
O11   Zn3   2.016550 S    
N6    C93   1.445438 S    
C59   C69   1.426440 S    
C28   C29   1.391338 A    
C71   C72   1.440548 A    
C29   N7    1.438251 S    
C44   N16   1.435923 S    
C38   N11   1.423239 S    
C57   C86   1.486978 S    
C68   C72   1.450946 A    
C94   H24   1.111538 S    
C20   C23   1.414704 A    
C30   C31   1.442094 A    
N38   C112  1.448562 S    
N26   O44   1.297797 A    
N1    O25   1.300329 A    
C73   N24   1.420617 S    
C98   H38   1.111342 S    
Zn1   O5    2.016009 S    
C14   N38   1.429772 S    
N25   H69   1.031544 S    
N21   C102  1.454283 S    
H6    C75   1.083123 S    
C75   C76   1.392999 A    
N36   C110  1.446538 S    
C10   C11   1.546134 S    
C54   N20   1.438068 S    
C61   C83   1.479939 S    
C20   C21   1.417126 A    
C15   H2    1.082607 S    
C64   H7    1.081889 S    
Zn3   O15   2.060164 S    
C93   H19   1.110202 S    
N4    O27   1.300207 A    
O6    C3    1.259635 A    
C102  H55   1.109696 S    
N35   H81   1.030972 S    
N31   O53   1.300859 A    
O24   C62   1.288301 A    
C17   C19   1.405862 A    
C66   N23   1.424115 S    
C91   H10   1.110668 S    
C92   H15   1.111064 S    
C41   N13   1.418817 S    
C82   C86   1.418499 A    
C108  H79   1.109286 S    
C69   C70   1.417215 A    
C32   C36   1.424038 A    
N6    H17   1.030179 S    
C104  H64   1.111466 S    
C39   N4    1.433942 S    
C90   N34   1.423802 S    
C21   C22   1.451447 A    
C96   H32   1.111568 S    
C9    C10   1.546754 S    
C19   C60   1.469985 S    
N28   O47   1.298882 A    
C43   C44   1.406587 A    
N34   H77   1.028121 S    
N17   O38   1.300571 A    
N35   C109  1.445487 S    
C94   H22   1.107995 S    
C80   C81   1.431694 A    
C49   C50   1.401833 A    
C13   N37   1.422303 S    
N31   O54   1.300644 A    
C97   H34   1.109442 S    
C4    C36   1.461937 S    
O20   Zn6   2.043443 S    
C95   H27   1.109555 S    
C89   C90   1.411571 A    
C34   C35   1.409237 A    
C5    C6    1.530763 S    
C105  H66   1.110283 S    
N10   C95   1.450431 S    
N24   H65   1.024691 S    
N33   C107  1.445151 S    
N11   C96   1.448525 S    
C40   N12   1.436737 S    
C51   C52   1.409086 A    
N32   O56   1.299631 A    
C10   N35   1.454643 S    
N34   C108  1.454988 S    
C101  H50   1.110838 S    
C3    C50   1.441274 S    
C99   H42   1.110028 S    
C53   C54   1.397539 A    
Zn4   O16   2.016520 S    
C81   C83   1.420410 A    
C24   N2    1.425475 S    
C98   H40   1.112560 S    
C111  H92   1.107787 S    
Zn6   O24   1.999440 S    
N15   H41   1.030719 S    
C8    N19   1.446250 S    
C109  H82   1.111422 S    
C31   C32   1.402480 A    
N1    O26   1.298628 A    
O10   C55   1.280722 A    
C87   C88   1.406498 A    
O20   C60   1.285796 A    
C112  H94   1.110720 S    
N13   C97   1.449227 S    
N2    C91   1.446899 S    
N18   O39   1.300641 A    
C95   H26   1.109220 S    
O19   Zn5   1.999535 S    
O2    Zn2   2.016009 S    
C102  H56   1.111210 S    
N29   O49   1.299458 A    
C30   N8    1.419499 S    
O4    Zn2   2.048719 S    
C83   C84   1.428094 A    
O17   C59   1.275579 A    
O9    C55   1.287408 A    
C93   H18   1.110611 S    
N14   C98   1.448552 S    
C85   C86   1.429182 A    
C73   C74   1.405193 A    
N21   H53   1.029779 S    
C70   C73   1.438252 A    
N32   O55   1.293756 A    
N12   O35   1.301623 A    
C35   C40   1.435575 A    
C6    C7    1.542437 S    
C38   C39   1.390428 A    
N26   O43   1.301946 A    
C16   C17   1.409391 A    
C95   H28   1.111633 S    
C41   C46   1.432250 A    
