data_mof_unit_41963.cif
_audit_creation_date              2012-12-10T18:44:21-0500
_audit_creation_method            fapswitch 2.2
_symmetry_space_group_name_H-M    P1
_symmetry_Int_Tables_number       1
_space_group_crystal_system       triclinic
_cell_length_a                    12.899086
_cell_length_b                    10.790167
_cell_length_c                    9.832285
_cell_angle_alpha                 91.037008
_cell_angle_beta                  98.197592
_cell_angle_gamma                 91.024574
_cell_volume                      1353.99550452

loop_
_atom_site_label
_atom_site_type_symbol
_atom_type_description
_atom_site_fract_x
_atom_site_fract_y
_atom_site_fract_z
_atom_type_partial_charge
C1    C     C_R   0.498250 0.259808 0.497862 0.893388
C2    C     C_R   0.501750 0.740192 0.502138 0.893379
C3    C     C_R   0.501514 0.872769 0.505271 -0.088528
C4    C     C_R   0.498489 0.127232 0.494728 -0.088529
C5    C     C_R   0.565911 0.578085 0.084948 0.065625
C6    C     C_R   0.434088 0.421915 0.915052 0.065628
C7    C     C_R   0.565757 0.577592 0.941103 -0.158852
C8    C     C_R   0.434243 0.422407 0.058897 -0.158872
C9    C     C_R   0.297730 0.496404 0.471499 0.909590
C10   C     C_R   0.702270 0.503595 0.528501 0.909582
C11   C     C_R   0.815492 0.508840 0.548506 -0.118528
C12   C     C_R   0.184507 0.491157 0.451496 -0.118532
C13   C     C_R   0.014170 0.441851 0.321657 0.217867
C14   C     C_R   0.985828 0.558154 0.678343 0.217870
C15   C     C_R   0.123993 0.438194 0.332581 0.184307
C16   C     C_R   0.876005 0.561815 0.667415 0.184323
C17   C     C_R   0.137542 0.537153 0.560012 -0.301773
C18   C     C_R   0.862459 0.462831 0.439996 -0.301778
C19   C     C_R   0.031098 0.523591 0.560321 0.071692
C20   C     C_R   0.968902 0.476403 0.439684 0.071703
C21   C     C_R   0.467896 0.056875 0.372457 0.196416
C22   C     C_R   0.532110 0.943125 0.627541 0.196407
C23   C     C_R   0.469634 0.929823 0.380293 -0.220607
C24   C     C_R   0.530373 0.070177 0.619704 -0.220611
H1    H     H_    0.814170 0.417444 0.353681 0.191972
H2    H     H_    0.185832 0.582525 0.646335 0.191977
H3    H     H_    0.445050 0.874768 0.287545 0.173198
H4    H     H_    0.554958 0.125231 0.712453 0.173198
H5    H     H_    0.618099 0.639093 0.896388 0.140475
H6    H     H_    0.381902 0.360906 0.103612 0.140482
N1    N     N_R   0.499970 0.499970 0.857200 -0.101447
N2    N     N_R   0.500030 0.500030 0.142800 -0.101448
O1    O     O_R   0.499990 0.316750 0.614620 -0.624122
O2    O     O_R   0.500010 0.683250 0.385380 -0.624120
O3    O     O_R   0.499990 0.316780 0.385290 -0.621730
O4    O     O_R   0.500010 0.683220 0.614710 -0.621732
O5    O     O_R   0.346360 0.499970 0.595710 -0.620062
O6    O     O_R   0.653640 0.500030 0.404290 -0.620059
O7    O     O_R   0.346360 0.499990 0.366380 -0.617163
O8    O     O_R   0.653640 0.500010 0.633620 -0.617161
Zn1   Zn    Zn3+2 0.500000 0.499980 0.653120 0.949568
Zn2   Zn    Zn3+2 0.500000 0.500020 0.346880 0.949565
C25   C     C_3   0.824529 0.629560 0.775501 -0.886885
H7    H     H_    0.877619 0.699487 0.834718 0.243113
H8    H     H_    0.758298 0.684047 0.725647 0.230817
H9    H     H_    0.796713 0.562247 0.847049 0.249554
C26   C     C_3   0.175470 0.370471 0.224479 -0.886884
H10   H     H_    0.122371 0.300585 0.165210 0.243120
H11   H     H_    0.203319 0.437804 0.152978 0.249563
H12   H     H_    0.241681 0.315946 0.274327 0.230817
C27   C     C_3   0.945827 0.414435 0.184830 -0.938331
H13   H     H_    0.989600 0.421265 0.096014 0.254270
H14   H     H_    0.909313 0.320510 0.185143 0.244367
H15   H     H_    0.883791 0.484683 0.165759 0.241926
C28   C     C_3   0.054172 0.585598 0.815163 -0.938349
H16   H     H_    0.010398 0.578859 0.903982 0.254274
H17   H     H_    0.116178 0.515317 0.834276 0.241928
H18   H     H_    0.090729 0.679494 0.814796 0.244357
C29   C     C_3   0.431769 0.111813 0.233772 -0.872725
H19   H     H_    0.364880 0.173149 0.240832 0.232900
H20   H     H_    0.497263 0.163759 0.197435 0.257463
H21   H     H_    0.404576 0.039684 0.153948 0.224705
C30   C     C_3   0.568234 0.888185 0.766225 -0.872709
H22   H     H_    0.635096 0.826807 0.759151 0.232906
H23   H     H_    0.595465 0.960310 0.846039 0.224709
H24   H     H_    0.502726 0.836275 0.802574 0.257450
C31   C     C_1   0.636303 0.662226 0.169481 0.207178
N3    N     N_1   0.693184 0.730187 0.236884 -0.209637
C32   C     C_1   0.363697 0.337774 0.830519 0.207181
N4    N     N_1   0.306816 0.269812 0.763116 -0.209639

loop_
_geom_bond_atom_site_label_1
_geom_bond_atom_site_label_2
_ccdc_geom_bond_type
C12   C17   A    
C6    C32   S    
C28   H16   S    
C30   H23   S    
C11   C18   A    
O6    Zn2   S    
C6    N1    A    
C7    H5    S    
C14   C16   A    
C23   H3    S    
O7    Zn2   S    
C11   C16   A    
C3    C22   A    
C3    C23   A    
C19   C20   A    
O2    Zn2   S    
C12   C15   A    
C15   C26   S    
C10   O6    A    
C27   H15   S    
O1    Zn1   S    
C1    C4    S    
C9    O5    A    
C2    C3    S    
C30   H24   S    
C8    H6    S    
C29   H19   S    
C26   H11   S    
C4    C21   A    
C25   H8    S    
C16   C25   S    
C2    O2    A    
O4    Zn1   S    
C18   H1    S    
C5    C31   S    
C25   H7    S    
C17   H2    S    
C14   C19   A    
O8    Zn1   S    
C17   C19   A    
C21   C29   S    
C26   H12   S    
C18   C20   A    
C28   H17   S    
C13   C15   A    
O5    Zn1   S    
C32   N4    T    
C4    C24   A    
C25   H9    S    
C22   C24   A    
C29   H20   S    
C7    N1    A    
C9    C12   S    
C1    O1    A    
C31   N3    T    
C8    N2    A    
C26   H10   S    
C24   H4    S    
C9    O7    A    
C14   C28   S    
C1    O3    A    
C10   O8    A    
C10   C11   S    
C28   H18   S    
C2    O4    A    
C5    C7    A    
O3    Zn2   S    
N2    Zn2   S    
C29   H21   S    
C6    C8    A    
N1    Zn1   S    
C13   C20   A    
C22   C30   S    
C13   C27   S    
C21   C23   A    
C5    N2    A    
C27   H13   S    
C30   H22   S    
C27   H14   S    
