data_mof_unit_32225.cif
_audit_creation_date              2012-12-10T18:04:50-0500
_audit_creation_method            fapswitch 2.2
_symmetry_space_group_name_H-M    P1
_symmetry_Int_Tables_number       1
_space_group_crystal_system       triclinic
_cell_length_a                    10.904619
_cell_length_b                    9.625754
_cell_length_c                    17.926005
_cell_angle_alpha                 89.997224
_cell_angle_beta                  93.378907
_cell_angle_gamma                 90.003984
_cell_volume                      1878.33533759

loop_
_atom_site_label
_atom_site_type_symbol
_atom_type_description
_atom_site_fract_x
_atom_site_fract_y
_atom_site_fract_z
_atom_type_partial_charge
C1    C     C_R   0.262823 0.500318 0.506469 0.895891
C2    C     C_R   0.737180 0.500336 0.493547 0.895999
C3    C     C_1   0.492071 0.512758 0.966572 0.134584
C4    C     C_1   0.507634 0.512746 0.033433 0.134528
C5    C     C_R   0.061876 0.375945 0.511717 0.242280
C6    C     C_R   0.937660 0.627734 0.487788 0.275517
C7    C     C_R   0.938076 0.376007 0.488143 0.241571
C8    C     C_R   0.062373 0.627689 0.512333 0.275489
C9    C     C_R   0.507577 0.500216 0.355570 0.786188
C10   C     C_R   0.492451 0.500216 0.644435 0.785996
C11   C     C_R   0.872141 0.501445 0.486901 -0.302457
C12   C     C_R   0.127861 0.501384 0.513135 -0.302675
C13   C     C_R   0.480735 0.635662 0.846262 -0.083841
C14   C     C_R   0.542015 0.383405 0.151430 -0.041559
C15   C     C_R   0.519239 0.635645 0.153742 -0.083889
C16   C     C_R   0.457688 0.383453 0.848571 -0.041647
C17   C     C_R   0.485654 0.632336 0.767845 -0.070317
C18   C     C_R   0.548148 0.379619 0.230621 -0.123070
C19   C     C_R   0.514478 0.632336 0.232167 -0.070482
C20   C     C_R   0.451724 0.379664 0.769381 -0.123118
C21   C     C_R   0.477749 0.502968 0.727924 -0.096658
C22   C     C_R   0.522282 0.502957 0.272085 -0.096528
C23   C     C_R   0.427982 0.074351 0.448070 0.120690
C24   C     C_R   0.579117 0.925754 0.548172 0.132373
C25   C     C_R   0.572023 0.074351 0.551927 0.120622
C26   C     C_R   0.420889 0.925748 0.451820 0.132244
C27   C     C_R   0.474308 0.510818 0.886244 0.043416
C28   C     C_R   0.525456 0.510785 0.113759 0.043344
Cu1   Cu    Cu3+1 0.500000 0.640660 0.500000 1.040584
Cu2   Cu    Cu3+1 0.500000 0.359340 0.500000 1.000656
N1    N     N_R   0.500000 0.852070 0.500000 -0.243687
N2    N     N_R   0.500000 0.147930 0.500000 -0.259340
O1    O     O_R   0.319640 0.618740 0.499990 -0.568233
O2    O     O_R   0.680360 0.381260 0.500010 -0.567674
O3    O     O_R   0.680360 0.618740 0.500010 -0.568228
O4    O     O_R   0.319640 0.381260 0.499990 -0.567585
O5    O     O_R   0.500000 0.618830 0.391250 -0.581144
O6    O     O_R   0.500000 0.381170 0.608750 -0.638927
O7    O     O_R   0.500000 0.618830 0.608750 -0.580971
O8    O     O_R   0.500000 0.381170 0.391250 -0.639066
C29   C     C_2   0.480008 0.771764 0.886214 0.475770
H1    H     H_    0.535837 0.857617 0.868522 0.064129
O9    O     O_2   0.412624 0.790729 0.937277 -0.485560
C30   C     C_2   0.550280 0.251443 0.108234 0.535056
H2    H     H_    0.507875 0.157475 0.128146 0.084282
O10   O     O_2   0.608889 0.245169 0.052362 -0.502083
C31   C     C_2   0.520031 0.771741 0.113782 0.475789
H3    H     H_    0.464313 0.857649 0.131502 0.064035
O11   O     O_2   0.587348 0.790632 0.062677 -0.485541
C32   C     C_2   0.449172 0.251511 0.891767 0.535110
H4    H     H_    0.491481 0.157467 0.871886 0.084330
O12   O     O_2   0.390468 0.245345 0.947605 -0.502029
C33   C     C_2   0.492586 0.768545 0.729667 0.369692
H5    H     H_    0.575217 0.830924 0.737193 0.068996
O13   O     O_2   0.403558 0.814859 0.693385 -0.443629
C34   C     C_2   0.595256 0.249090 0.267279 0.491869
H6    H     H_    0.561230 0.208881 0.317763 0.146292
O14   O     O_2   0.678138 0.183427 0.240736 -0.453604
C35   C     C_2   0.507886 0.768560 0.270362 0.370376
H7    H     H_    0.425418 0.831203 0.262844 0.068645
O15   O     O_2   0.597023 0.814581 0.306662 -0.442726
C36   C     C_2   0.404663 0.249148 0.732703 0.491358
H8    H     H_    0.438982 0.208800 0.682336 0.146291
O16   O     O_2   0.321561 0.183635 0.759115 -0.453450
C37   C     C_2   0.357414 0.148592 0.386713 0.473538
H9    H     H_    0.307804 0.242660 0.396363 0.140295
O17   O     O_2   0.353773 0.103689 0.322874 -0.583694
C38   C     C_2   0.678230 0.852401 0.593660 0.499312
H10   H     H_    0.669771 0.747919 0.612647 0.079961
O18   O     O_2   0.776269 0.908844 0.609641 -0.469891
C39   C     C_2   0.642636 0.148583 0.613272 0.472616
H11   H     H_    0.692214 0.242679 0.603623 0.140130
O19   O     O_2   0.646356 0.103631 0.677105 -0.583360
C40   C     C_2   0.321815 0.852377 0.406295 0.499248
H12   H     H_    0.330263 0.747876 0.387350 0.079948
O20   O     O_2   0.223816 0.908824 0.390226 -0.469529
S1    S     S_3+6 0.116234 0.234735 0.567200 0.102121
O21   O     O_2   0.208350 0.287335 0.625694 -0.229265
O22   O     O_2   0.012384 0.168943 0.605987 -0.222981
O23   O     O_3   0.183079 0.116384 0.514485 -0.484102
H13   H     H_    0.115993 0.052956 0.497305 0.423163
S2    S     S_3+6 0.889087 0.757438 0.422046 0.100655
O24   O     O_2   0.778669 0.835217 0.445231 -0.217564
O25   O     O_2   0.990709 0.859226 0.411851 -0.211858
O26   O     O_3   0.852873 0.678408 0.340002 -0.487615
H14   H     H_    0.848519 0.754055 0.302484 0.411031
S3    S     S_3+6 0.883661 0.235241 0.432345 0.102248
O27   O     O_2   0.792133 0.288580 0.373719 -0.229505
O28   O     O_2   0.987551 0.169193 0.393728 -0.222056
O29   O     O_3   0.816000 0.116895 0.484679 -0.484332
H15   H     H_    0.882951 0.053912 0.502521 0.422478
S4    S     S_3+6 0.111050 0.757347 0.578077 0.100536
O30   O     O_2   0.221407 0.835184 0.554821 -0.217957
O31   O     O_2   0.009434 0.859085 0.588363 -0.211055
O32   O     O_3   0.147415 0.678258 0.660083 -0.487968
H16   H     H_    0.152832 0.754015 0.697539 0.411182

loop_
_geom_bond_atom_site_label_1
_geom_bond_atom_site_label_2
_ccdc_geom_bond_type
C2    O3    A    
S3    O27   D    
C6    S2    S    
C29   H1    S    
C14   C18   A    
O32   H16   S    
C15   C31   S    
C13   C29   S    
O29   H15   S    
C1    O1    A    
C31   O11   D    
O26   H14   S    
C7    C11   A    
C36   H8    S    
C40   O20   D    
C16   C20   A    
C16   C32   S    
C9    C22   S    
Cu1   O1    S    
C34   H6    S    
Cu2   O6    S    
C23   C26   A    
C36   O16   D    
C7    S3    S    
C38   H10   S    
C37   O17   D    
C32   O12   D    
C8    S4    S    
C18   C34   S    
C2    O2    A    
C16   C27   A    
S1    O22   D    
C26   N1    A    
C29   O9    D    
C1    C12   S    
C2    C11   S    
S4    O31   D    
C4    C28   S    
C30   O10   D    
C5    C7    A    
C33   O13   D    
C10   C21   S    
C35   O15   D    
C40   H12   S    
Cu2   O2    S    
C19   C22   A    
C24   C25   A    
C5    C12   A    
C6    C11   A    
C39   O19   D    
C6    C8    A    
C19   C35   S    
S1    O21   D    
S4    O32   S    
C17   C21   A    
C10   O7    A    
C15   C19   A    
Cu1   Cu2   S    
C31   H3    S    
C8    C12   A    
Cu1   O7    S    
C9    O5    A    
C32   H4    S    
Cu2   O8    S    
C25   C39   S    
C37   H9    S    
S2    O25   D    
S3    O28   D    
C5    S1    S    
C3    C4    T    
C17   C33   S    
C30   H2    S    
C14   C30   S    
S1    O23   S    
C18   C22   A    
O23   H13   S    
C33   H5    S    
Cu2   O4    S    
S2    O26   S    
Cu1   O3    S    
C13   C17   A    
C10   O6    A    
C23   N2    A    
C23   C37   S    
C3    C27   S    
C24   N1    A    
C39   H11   S    
Cu1   N1    S    
Cu2   N2    S    
C15   C28   A    
C25   N2    A    
S4    O30   D    
C26   C40   S    
C34   O14   D    
C9    O8    A    
C20   C36   S    
C24   C38   S    
C35   H7    S    
C20   C21   A    
C38   O18   D    
S2    O24   D    
S3    O29   S    
Cu1   O5    S    
C13   C27   A    
C14   C28   A    
C1    O4    A    
