data_mof_unit_23266.cif
_audit_creation_date              2012-12-10T20:43:35-0500
_audit_creation_method            fapswitch 2.2
_symmetry_space_group_name_H-M    P1
_symmetry_Int_Tables_number       1
_space_group_crystal_system       triclinic
_cell_length_a                    18.712011
_cell_length_b                    18.518006
_cell_length_c                    18.884536
_cell_angle_alpha                 109.374632
_cell_angle_beta                  109.688826
_cell_angle_gamma                 108.772258
_cell_volume                      5072.67444965

loop_
_atom_site_label
_atom_site_type_symbol
_atom_type_description
_atom_site_fract_x
_atom_site_fract_y
_atom_site_fract_z
_atom_type_partial_charge
C1    C     C_R   0.379623 0.500514 0.380481 0.886003
C2    C     C_R   0.763682 0.895047 0.822469 -0.090896
C3    C     C_R   0.927755 0.786450 0.980594 0.466725
C4    C     C_R   0.923646 0.764945 0.044594 0.454980
C5    C     C_R   0.999692 0.778407 0.109686 -0.063947
C6    C     C_R   0.286933 0.541149 0.964103 -0.130989
C7    C     C_R   0.202797 0.474387 0.898804 -0.110766
C8    C     C_R   0.169775 0.391833 0.893366 0.096850
C9    C     C_R   0.224071 0.375581 0.950871 -0.182443
C10   C     C_R   0.308281 0.442334 0.015847 -0.146459
C11   C     C_R   0.339495 0.525281 0.022883 -0.054502
C12   C     C_R   0.077957 0.252758 0.756711 -0.225032
C13   C     C_R   0.818007 0.827861 0.575164 -0.258232
C14   C     C_R   0.997692 0.185431 0.685290 -0.084042
C15   C     C_R   0.919470 0.183134 0.678032 0.030225
C16   C     C_R   0.923283 0.246832 0.745601 -0.204261
C17   C     C_R   0.003629 0.314578 0.816676 -0.023083
C18   C     C_R   0.082303 0.319596 0.821816 0.013734
C19   C     C_R   0.786215 0.144751 0.550435 -0.259042
C20   C     C_R   0.710086 0.082679 0.471506 0.707779
C21   C     C_R   0.681811 0.993357 0.441591 -0.228282
C22   C     C_R   0.728222 0.966019 0.491879 -0.224846
C23   C     C_R   0.803151 0.027771 0.571583 -0.097831
C24   C     C_R   0.814357 0.810756 0.496333 -0.071290
C25   C     C_R   0.834049 0.117497 0.600032 0.032153
C26   C     C_R   0.744212 0.736044 0.418772 -0.004487
C27   C     C_R   0.683681 0.673861 0.423601 -0.214626
C28   C     C_R   0.686877 0.690134 0.502703 -0.077366
C29   C     C_R   0.751832 0.771312 0.579186 0.008353
C30   C     C_R   0.655545 0.714551 0.273361 -0.178730
C31   C     C_R   0.639236 0.694952 0.189523 -0.125351
C32   C     C_R   0.698162 0.682380 0.163997 -0.098053
C33   C     C_R   0.621549 0.621263 0.501848 0.874089
C34   C     C_R   0.774209 0.691102 0.222794 -0.131230
C35   C     C_R   0.790791 0.711238 0.306886 -0.118981
C36   C     C_R   0.730836 0.721453 0.332217 0.126507
C37   C     C_R   0.481287 0.799681 0.514532 -0.153917
C38   C     C_R   0.412983 0.713596 0.460227 -0.146323
C39   C     C_R   0.399747 0.663860 0.377932 -0.012131
C40   C     C_R   0.456260 0.700789 0.350295 0.553228
C41   C     C_R   0.522294 0.787793 0.404351 -0.203728
C42   C     C_R   0.535494 0.837084 0.486353 -0.198464
C43   C     C_R   0.256269 0.575021 0.249483 -0.170303
C44   C     C_R   0.618969 0.498108 0.619506 0.939832
C45   C     C_R   0.183942 0.494859 0.183433 -0.101996
C46   C     C_R   0.173295 0.415884 0.183776 0.010092
C47   C     C_R   0.239098 0.419797 0.249930 -0.201488
C48   C     C_R   0.311742 0.500416 0.315840 -0.115251
C49   C     C_R   0.320211 0.578724 0.316360 0.016457
C50   C     C_R   0.045415 0.277850 0.139351 -0.106309
C51   C     C_R   0.974847 0.194609 0.076669 -0.209148
C52   C     C_R   0.955212 0.160551 0.990442 -0.255105
C53   C     C_R   0.007062 0.209915 0.965853 0.608603
C54   C     C_R   0.075906 0.294687 0.029321 -0.204598
C55   C     C_R   0.378402 0.379719 0.498471 0.889235
C56   C     C_R   0.096441 0.328672 0.116165 0.046601
C57   C     C_R   0.239089 0.538225 0.582544 -0.133982
C58   C     C_R   0.248316 0.465744 0.580874 -0.216584
C59   C     C_R   0.229528 0.398810 0.503431 0.016673
C60   C     C_R   0.200241 0.404398 0.427586 0.624759
C61   C     C_R   0.191081 0.476974 0.429489 -0.206361
C62   C     C_R   0.210768 0.543978 0.506979 -0.196663
C63   C     C_R   0.178080 0.257207 0.500882 -0.233836
C64   C     C_R   0.185796 0.183648 0.496997 -0.088340
C65   C     C_R   0.256761 0.174567 0.493885 0.018394
C66   C     C_R   0.689485 0.864354 0.745476 -0.167729
C67   C     C_R   0.318603 0.239672 0.493082 -0.266139
C68   C     C_R   0.310972 0.313213 0.496994 -0.050744
C69   C     C_R   0.240868 0.323014 0.501763 0.067447
C70   C     C_R   0.338542 0.109019 0.558329 -0.215435
C71   C     C_R   0.351642 0.037797 0.553645 -0.255931
C72   C     C_R   0.293446 0.953569 0.479807 0.614941
C73   C     C_R   0.224692 0.944087 0.410627 -0.209288
C74   C     C_R   0.210993 0.015147 0.415825 -0.223752
C75   C     C_R   0.267714 0.097938 0.489880 0.146012
C76   C     C_R   0.544795 0.562267 0.849981 0.656321
C77   C     C_R   0.684421 0.821300 0.666125 -0.100901
C78   C     C_R   0.614726 0.563558 0.837643 -0.231468
C79   C     C_R   0.601587 0.492467 0.767211 0.085482
C80   C     C_R   0.517845 0.419774 0.709750 -0.140777
C81   C     C_R   0.448195 0.418466 0.722704 -0.234234
C82   C     C_R   0.461558 0.489757 0.792479 -0.198226
C83   C     C_R   0.741716 0.493536 0.817658 -0.219050
C84   C     C_R   0.813548 0.495140 0.809432 -0.194255
C85   C     C_R   0.820639 0.495003 0.737457 -0.099462
C86   C     C_R   0.754333 0.493732 0.674245 0.607217
C87   C     C_R   0.683312 0.494191 0.683755 -0.259798
C88   C     C_R   0.751742 0.804928 0.662468 0.138693
C89   C     C_R   0.676195 0.493525 0.755448 -0.044867
C90   C     C_R   0.954653 0.568983 0.730199 0.628142
C91   C     C_R   0.025512 0.567230 0.719808 -0.247173
C92   C     C_R   0.034291 0.492079 0.701321 -0.178794
C93   C     C_R   0.973816 0.418541 0.694444 -0.125232
C94   C     C_R   0.905210 0.420375 0.707723 -0.209347
C95   C     C_R   0.895586 0.495460 0.726363 0.112415
C96   C     C_R   0.998679 0.877424 0.380796 0.877821
C97   C     C_R   0.880243 0.877116 0.497055 0.859681
C98   C     C_R   0.998752 0.119514 0.619609 0.863483
C99   C     C_R   0.826994 0.838081 0.740566 -0.219893
C100  C     C_R   0.119998 0.118699 0.498486 0.875794
C101  C     C_R   0.002689 0.379969 0.882520 0.860698
C102  C     C_R   0.119530 0.497096 0.117772 0.874050
C103  C     C_R   0.998466 0.620490 0.118144 0.891127
C104  C     C_R   0.880111 0.498077 0.877935 0.916346
C105  C     C_R   0.111867 0.769024 0.549255 -0.269906
C106  C     C_R   0.098880 0.783954 0.479217 -0.060317
C107  C     C_R   0.020039 0.728484 0.400620 0.025715
C108  C     C_R   0.956345 0.654927 0.391900 -0.298353
C109  C     C_R   0.969285 0.640285 0.462152 0.706065
C110  C     C_R   0.832891 0.883042 0.820011 -0.112904
C111  C     C_R   0.046970 0.697448 0.540856 -0.222838
C112  C     C_R   0.005028 0.677350 0.256262 -0.240519
C113  C     C_R   0.000100 0.687367 0.185081 -0.079365
C114  C     C_R   0.998541 0.761056 0.180298 0.085781
C115  C     C_R   0.997918 0.821986 0.246023 -0.260210
C116  C     C_R   0.001827 0.811874 0.316908 -0.108216
C117  C     C_R   0.008711 0.740482 0.324390 0.022139
C118  C     C_R   0.079639 0.818190 0.113550 -0.186368
C119  C     C_R   0.083982 0.842190 0.051893 -0.200960
C120  C     C_R   0.008724 0.827122 0.986058 -0.273694
H1    H     H_    0.768248 0.929563 0.884003 0.130255
H2    H     H_    0.684772 0.665719 0.098674 0.170762
H3    H     H_    0.819812 0.681556 0.202882 0.163929
H4    H     H_    0.849613 0.718279 0.352193 0.113350
H5    H     H_    0.587400 0.904365 0.527966 0.166303
H6    H     H_    0.491673 0.837782 0.578137 0.125003
H7    H     H_    0.369067 0.686429 0.481300 0.149580
H8    H     H_    0.562303 0.816673 0.381166 0.140892
H9    H     H_    0.263327 0.635321 0.248865 0.174208
H10   H     H_    0.234215 0.359726 0.249640 0.209428
H11   H     H_    0.636672 0.875612 0.747250 0.124530
H12   H     H_    0.059662 0.303161 0.205845 0.197835
H13   H     H_    0.935124 0.156299 0.094974 0.165870
H14   H     H_    0.899328 0.096296 0.943802 0.135113
H15   H     H_    0.114386 0.334088 0.011131 0.126053
H16   H     H_    0.203757 0.600160 0.508396 0.153868
H17   H     H_    0.254016 0.589993 0.642429 0.139895
H18   H     H_    0.270819 0.462101 0.639830 0.146315
H19   H     H_    0.168582 0.481274 0.370955 0.157966
H20   H     H_    0.628750 0.802088 0.607451 0.150494
H21   H     H_    0.123347 0.263560 0.503862 0.154981
H22   H     H_    0.373550 0.233553 0.490470 0.162742
H23   H     H_    0.383984 0.173103 0.615189 0.149948
H24   H     H_    0.407873 0.049361 0.607141 0.140859
H25   H     H_    0.181448 0.880868 0.352428 0.165648
H26   H     H_    0.157238 0.006088 0.361567 0.142729
H27   H     H_    0.407439 0.488569 0.802132 0.150801
H28   H     H_    0.678987 0.619953 0.882478 0.205147
H29   H     H_    0.882165 0.831380 0.739955 0.123157
H30   H     H_    0.506796 0.364048 0.655618 0.123899
H31   H     H_    0.383878 0.362084 0.678949 0.165842
H32   H     H_    0.737495 0.493895 0.873698 0.184546
H33   H     H_    0.074122 0.623916 0.726263 0.132893
H34   H     H_    0.088191 0.490896 0.692417 0.147934
H35   H     H_    0.980430 0.360191 0.679018 0.149973
H36   H     H_    0.858903 0.363053 0.702659 0.128983
H37   H     H_    0.057425 0.685681 0.594974 0.138757
H38   H     H_    0.891493 0.909161 0.879720 0.154476
H39   H     H_    0.172585 0.812496 0.609792 0.147711
H40   H     H_    0.150383 0.838404 0.485994 0.165781
H41   H     H_    0.896741 0.608968 0.330614 0.167485
H42   H     H_    0.008926 0.621333 0.259910 0.164258
H43   H     H_    0.996923 0.879243 0.243125 0.149723
H44   H     H_    0.138847 0.831592 0.165169 0.170522
H45   H     H_    0.146015 0.873417 0.055684 0.169508
H46   H     H_    0.013562 0.847650 0.939701 0.161615
H47   H     H_    0.869637 0.889413 0.632993 0.138218
H48   H     H_    0.404774 0.576881 0.073072 0.146217
H49   H     H_    0.311673 0.604930 0.968613 0.132893
H50   H     H_    0.163534 0.486878 0.852339 0.137298
H51   H     H_    0.201232 0.311127 0.945114 0.151763
H52   H     H_    0.349575 0.429421 0.060163 0.128095
H53   H     H_    0.137758 0.254768 0.760286 0.154711
H54   H     H_    0.863482 0.245100 0.741653 0.143968
H55   H     H_    0.809373 0.213879 0.571608 0.160299
H56   H     H_    0.632538 0.613295 0.364760 0.153025
H57   H     H_    0.624295 0.945658 0.379234 0.161737
H58   H     H_    0.707496 0.897148 0.468917 0.165471
H59   H     H_    0.839064 0.005913 0.609490 0.108811
H60   H     H_    0.609662 0.724405 0.292582 0.163000
H61   H     H_    0.580656 0.688899 0.144213 0.154340
O1    O     O_R   0.408360 0.551710 0.460090 -0.626819
O2    O     O_R   0.948280 0.908380 0.356650 -0.621744
O3    O     O_R   0.960110 0.908350 0.551690 -0.622571
O4    O     O_R   0.856660 0.908370 0.448270 -0.610111
O5    O     O_R   0.051720 0.091580 0.643310 -0.627762
O6    O     O_R   0.948270 0.091600 0.539890 -0.604227
O7    O     O_R   0.143340 0.091590 0.551680 -0.617588
O8    O     O_R   0.039890 0.091610 0.448270 -0.617080
O9    O     O_R   0.051730 0.460050 0.908360 -0.631525
O10   O     O_R   0.948290 0.356630 0.908390 -0.612187
O11   O     O_R   0.143340 0.551690 0.091580 -0.612782
O12   O     O_R   0.408400 0.448280 0.356670 -0.631569
O13   O     O_R   0.039900 0.448270 0.091610 -0.616609
O14   O     O_R   0.051710 0.643320 0.091560 -0.620553
O15   O     O_R   0.948270 0.539900 0.091590 -0.620569
O16   O     O_R   0.960100 0.551680 0.908340 -0.615343
O17   O     O_R   0.856660 0.448270 0.908370 -0.624954
O18   O     O_R   0.591600 0.643340 0.551710 -0.636589
O19   O     O_R   0.591630 0.539900 0.448290 -0.600239
O20   O     O_R   0.591600 0.551720 0.643330 -0.626922
O21   O     O_R   0.591640 0.448290 0.539910 -0.561263
O22   O     O_R   0.408370 0.460100 0.551710 -0.621907
O23   O     O_R   0.408400 0.356660 0.448290 -0.616881
O24   O     O_R   0.051730 0.908360 0.460060 -0.626127
Zn1   Zn    Zn3+2 0.499980 0.569060 0.569060 0.971824
Zn2   Zn    Zn3+2 0.500020 0.430940 0.430940 1.028914
Zn3   Zn    Zn3+2 0.069070 0.999960 0.569030 0.948128
Zn4   Zn    Zn3+2 0.930930 0.999990 0.430930 0.985650
Zn5   Zn    Zn3+2 0.069070 0.569030 0.999960 0.974999
Zn6   Zn    Zn3+2 0.930930 0.430930 0.000000 0.975275
O25   O     O_3   0.442885 0.657307 0.267525 -0.624747
C121  C     C_3   0.450675 0.580927 0.253107 -0.357486
H62   H     H_    0.385148 0.522234 0.212471 0.203157
H63   H     H_    0.487196 0.580700 0.313304 0.142986
H64   H     H_    0.485438 0.574732 0.216029 0.180975
O26   O     O_3   0.991729 0.181795 0.881388 -0.616783
C122  C     C_3   0.950007 0.089702 0.830525 -0.324071
H65   H     H_    0.879109 0.060470 0.807401 0.178395
H66   H     H_    0.979758 0.059944 0.865456 0.154431
H67   H     H_    0.957742 0.073683 0.772456 0.192955
F1    F     F_    0.179789 0.338962 0.352042 -0.723390
O27   O     O_3   0.303613 0.880096 0.469046 -0.606934
C123  C     C_3   0.337252 0.878735 0.547388 -0.354948
H68   H     H_    0.307213 0.898941 0.586739 0.140303
H69   H     H_    0.409103 0.920357 0.585287 0.171636
H70   H     H_    0.322157 0.810530 0.531893 0.195197
F2    F     F_    0.557791 0.631196 0.917933 -0.702241
F3    F     F_    0.760162 0.494559 0.604577 -0.642989
O28   O     O_3   0.944825 0.643181 0.750392 -0.650636
C124  C     C_3   0.951144 0.675370 0.693380 -0.282383
H71   H     H_    0.918767 0.621938 0.625348 0.237867
H72   H     H_    0.020265 0.719281 0.716436 0.144011
H73   H     H_    0.917706 0.715046 0.693166 0.182409
F4    F     F_    0.906904 0.569981 0.453569 -0.661758
O29   O     O_3   0.852558 0.772313 0.916658 -0.630543
C125  C     C_3   0.835000 0.713095 0.835301 -0.222223
H74   H     H_    0.840027 0.655214 0.835235 0.184600
H75   H     H_    0.879713 0.745146 0.815613 0.180844
H76   H     H_    0.767654 0.690057 0.786514 0.203845
O30   O     O_3   0.844144 0.723009 0.038701 -0.619566
C126  C     C_3   0.817372 0.784832 0.067447 -0.274098
H77   H     H_    0.831795 0.835247 0.047012 0.180454
H78   H     H_    0.847263 0.817551 0.138847 0.165693
H79   H     H_    0.745884 0.749517 0.039520 0.217145
F5    F     F_    0.664963 0.109159 0.422921 -0.655593

loop_
_geom_bond_atom_site_label_1
_geom_bond_atom_site_label_2
_ccdc_geom_bond_type
C8    C9    A    
O6    Zn4   S    
C34   H3    S    
O12   Zn2   S    
C5    C114  S    
C76   F2    S    
C52   H14   S    
C41   C42   A    
C35   C36   A    
C77   H20   S    
C22   H58   S    
C123  H68   S    
C81   C82   A    
C96   O24   A    
C120  H46   S    
C7    C8    A    
C105  H39   S    
C45   C46   A    
C116  C117  A    
C97   O4    A    
C99   H29   S    
C118  H44   S    
C70   H23   S    
C37   C38   A    
C53   O26   S    
C54   H15   S    
C97   O3    A    
C13   C29   A    
C35   H4    S    
C100  O7    A    
C76   C78   A    
C91   H33   S    
C109  C111  A    
C85   C86   A    
C112  C117  A    
C34   C35   A    
C43   H9    S    
C106  H40   S    
C13   H47   S    
C106  C107  A    
C33   O18   A    
C10   H52   S    
C15   C16   A    
C104  O16   A    
C108  C109  A    
C17   C18   A    
O30   C126  S    
C73   C74   A    
C62   H16   S    
C37   C42   A    
C17   C101  S    
C118  C119  A    
C29   C88   S    
O27   C123  S    
O16   Zn5   S    
C42   H5    S    
O13   Zn6   S    
C113  C114  A    
O15   Zn6   S    
O7    Zn3   S    
C100  O8    A    
C77   C88   A    
C16   C17   A    
C65   C67   A    
C48   C49   A    
C102  O11   A    
O20   Zn1   S    
C70   C71   A    
C37   H6    S    
C61   H19   S    
C44   C87   S    
C9    C10   A    
C119  H45   S    
C23   H59   S    
C61   C62   A    
C110  H38   S    
C78   H28   S    
C72   C73   A    
C58   H18   S    
C21   H57   S    
C105  C111  A    
C59   C60   A    
O25   C121  S    
C21   C22   A    
C31   H61   S    
C44   O21   A    
C41   H8    S    
O28   C124  S    
C103  O14   A    
C102  O13   A    
C112  C113  A    
C14   C98   S    
C57   C58   A    
C121  H63   S    
C82   H27   S    
C83   C89   A    
O22   Zn1   S    
C54   C56   A    
C126  H79   S    
C74   C75   A    
C47   H10   S    
C51   C52   A    
C47   C48   A    
C63   C69   A    
C93   H35   S    
C84   C85   A    
O14   Zn5   S    
O29   C125  S    
C126  H78   S    
C76   C82   A    
C91   C92   A    
C55   C68   S    
C78   C79   A    
C68   C69   A    
C33   O19   A    
C57   C62   A    
O26   C122  S    
C53   C54   A    
C99   C110  A    
O18   Zn1   S    
C50   C56   A    
C67   C68   A    
C13   C24   A    
C73   H25   S    
C60   C61   A    
O1    Zn1   S    
C32   C34   A    
C71   H24   S    
C1    O12   A    
C98   O6    A    
C32   H2    S    
C3    O29   S    
C2    H1    S    
C7    H50   S    
C122  H66   S    
C83   C84   A    
C14   C15   A    
O23   Zn2   S    
C121  H62   S    
C30   C31   A    
C107  C108  A    
C55   O22   A    
C8    C18   S    
C50   C51   A    
C63   H21   S    
C57   H17   S    
C124  H72   S    
C93   C94   A    
C85   C95   S    
C119  C120  A    
O17   Zn6   S    
C43   C45   A    
O11   Zn5   S    
C50   H12   S    
C59   C69   S    
C101  O10   A    
C109  F4    S    
C26   C36   S    
C40   C41   A    
C39   C49   S    
C12   C14   A    
C28   C33   S    
C101  O9    A    
O19   Zn2   S    
O21   Zn2   S    
C125  H75   S    
C26   C27   A    
C11   H48   S    
C84   C104  S    
O4    Zn4   S    
C79   C80   A    
C9    H51   S    
C58   C59   A    
O2    Zn4   S    
C103  O15   A    
C83   H32   S    
C96   O2    A    
C90   C91   A    
C3    C4    A    
C28   C29   A    
C123  H70   S    
C4    O30   S    
C6    C11   A    
C52   C53   A    
C122  H67   S    
C66   H11   S    
C108  H41   S    
O24   Zn3   S    
C16   H54   S    
C3    C120  A    
C66   C77   A    
C121  H64   S    
C46   C47   A    
C2    C110  A    
C103  C113  S    
C86   C87   A    
C86   F3    S    
C104  O17   A    
C74   H26   S    
C31   C32   A    
C43   C49   A    
C24   C26   A    
C80   C81   A    
C2    C66   A    
C123  H69   S    
C27   H56   S    
C1    O1    A    
C1    C48   S    
C114  C115  A    
C6    C7    A    
O5    Zn3   S    
C72   O27   S    
C112  H42   S    
C105  C106  A    
C40   O25   S    
C46   C56   S    
C60   F1    S    
O3    Zn3   S    
C30   C36   A    
C5    C118  A    
C10   C11   A    
C64   C65   A    
C19   C20   A    
C87   C89   A    
O9    Zn5   S    
C64   C100  S    
C71   C72   A    
C98   O5    A    
C115  H43   S    
O8    Zn4   S    
C51   H13   S    
C122  H65   S    
C38   C39   A    
C38   H7    S    
C55   O23   A    
C126  H77   S    
C20   F5    S    
C92   C93   A    
C80   H30   S    
C124  H73   S    
C24   C97   S    
C23   C25   A    
C90   O28   S    
C111  H37   S    
C94   C95   A    
C19   C25   A    
C19   H55   S    
C79   C89   S    
C88   C99   A    
C15   C25   S    
C45   C102  S    
C63   C64   A    
C39   C40   A    
C4    C5    A    
C81   H31   S    
C20   C21   A    
C70   C75   A    
C94   H36   S    
C125  H76   S    
C12   C18   A    
C124  H71   S    
C30   H60   S    
C22   C23   A    
C96   C116  S    
C92   H34   S    
C44   O20   A    
C125  H74   S    
C67   H22   S    
C107  C117  S    
C90   C95   A    
C65   C75   S    
C115  C116  A    
O10   Zn6   S    
C12   H53   S    
C27   C28   A    
C6    H49   S    
