data_mof_unit_65323.cif
_audit_creation_date              2012-12-10T18:09:08-0500
_audit_creation_method            fapswitch 2.2
_symmetry_space_group_name_H-M    P1
_symmetry_Int_Tables_number       1
_space_group_crystal_system       triclinic
_cell_length_a                    21.643984
_cell_length_b                    21.643987
_cell_length_c                    18.269278
_cell_angle_alpha                 90.000083
_cell_angle_beta                  90.000161
_cell_angle_gamma                 90.0
_cell_volume                      8558.4644894

loop_
_atom_site_label
_atom_site_type_symbol
_atom_type_description
_atom_site_fract_x
_atom_site_fract_y
_atom_site_fract_z
_atom_type_partial_charge
C1    C     C_R   1.000000 0.379554 0.500000 0.997688
C2    C     C_R   0.500000 1.000000 0.358986 0.903365
C3    C     C_3   0.643201 0.336380 0.145009 -0.752372
C4    C     C_3   0.390359 0.315838 0.122920 0.178647
C5    C     C_3   0.336380 0.356801 0.145008 -0.752375
C6    C     C_3   0.315838 0.609639 0.122923 0.178646
C7    C     C_3   0.356801 0.663618 0.145011 -0.752371
C8    C     C_3   0.609640 0.315838 0.877079 0.178644
C9    C     C_3   0.663621 0.356798 0.854991 -0.752373
C10   C     C_3   0.684161 0.609641 0.877080 0.178642
C11   C     C_3   0.643201 0.663623 0.854993 -0.752364
C12   C     C_3   0.390359 0.684161 0.877079 0.178637
C13   C     C_R   1.000000 0.500000 0.641014 0.903365
C14   C     C_3   0.336376 0.643203 0.854992 -0.752367
C15   C     C_3   0.315836 0.390359 0.877077 0.178650
C16   C     C_3   0.356800 0.336381 0.854989 -0.752382
C17   C     C_R   0.500000 1.000000 0.641014 0.903365
C18   C     C_R   0.500000 1.000000 0.858986 0.903365
C19   C     C_R   0.000000 0.500000 0.858986 0.903365
C20   C     C_R   0.500000 1.000000 0.141014 0.903364
C21   C     C_R   1.000000 0.500000 0.141014 0.903365
C22   C     C_1   1.000000 0.500000 0.282419 -0.157643
C23   C     C_1   0.500000 1.000000 0.282419 -0.157644
C24   C     C_1   0.000000 0.500000 0.717581 -0.157643
C25   C     C_R   0.379554 0.000000 0.500000 0.997688
C26   C     C_1   0.500000 1.000000 0.717581 -0.157643
C27   C     C_1   0.500000 1.000000 0.782418 -0.157643
C28   C     C_1   0.000000 0.500000 0.782418 -0.157643
C29   C     C_1   0.500000 1.000000 0.217581 -0.157644
C30   C     C_1   1.000000 0.500000 0.217581 -0.157643
C31   C     C_R   0.052855 0.280847 0.523497 0.482214
C32   C     C_R   0.280847 0.947145 0.523496 0.482216
C33   C     C_R   0.947145 0.719153 0.523496 0.482216
C34   C     C_R   0.719153 0.052855 0.523496 0.482215
C35   C     C_R   0.052855 0.719153 0.476504 0.482215
C36   C     C_R   0.000000 0.620446 0.500000 0.997687
C37   C     C_R   0.280847 0.052855 0.476504 0.482217
C38   C     C_R   0.947145 0.280847 0.476504 0.482215
C39   C     C_R   0.719153 0.947145 0.476502 0.482212
C40   C     C_R   0.552856 0.780847 0.023494 0.482190
C41   C     C_R   0.780847 0.447145 0.023496 0.482218
C42   C     C_R   0.447145 0.219153 0.023496 0.482216
C43   C     C_R   0.219153 0.552855 0.023496 0.482218
C44   C     C_R   0.552855 0.219153 0.976504 0.482219
C45   C     C_R   0.780847 0.552855 0.976505 0.482204
C46   C     C_R   0.447144 0.780847 0.976504 0.482221
C47   C     C_R   0.620446 1.000000 0.500000 0.997688
C48   C     C_R   0.219153 0.447145 0.976502 0.482211
C49   C     C_R   0.052174 0.216865 0.525880 0.294895
C50   C     C_R   0.216865 0.947826 0.525879 0.294897
C51   C     C_R   0.947826 0.783135 0.525879 0.294896
C52   C     C_R   0.783135 0.052174 0.525880 0.294897
C53   C     C_R   0.052174 0.783134 0.474121 0.294896
C54   C     C_R   0.216865 0.052174 0.474121 0.294897
C55   C     C_R   0.947826 0.216865 0.474121 0.294896
C56   C     C_R   0.783134 0.947827 0.474119 0.294896
C57   C     C_R   0.552174 0.716865 0.025878 0.294901
C58   C     C_R   0.500000 0.879554 1.000000 0.997687
C59   C     C_R   0.716865 0.447826 0.025879 0.294893
C60   C     C_R   0.447826 0.283135 0.025879 0.294898
C61   C     C_R   0.283135 0.552174 0.025880 0.294894
C62   C     C_R   0.552174 0.283135 0.974121 0.294894
C63   C     C_R   0.716865 0.552174 0.974122 0.294901
C64   C     C_R   0.447825 0.716866 0.974121 0.294887
C65   C     C_R   0.283135 0.447826 0.974119 0.294899
C66   C     C_R   1.000000 0.185693 0.500000 -0.442683
C67   C     C_R   0.185693 0.000000 0.500000 -0.442686
C68   C     C_R   1.000000 0.814307 0.500000 -0.442685
C69   C     C_R   0.879554 0.500000 0.000000 0.997688
C70   C     C_R   0.814307 0.000000 0.500000 -0.442683
C71   C     C_R   0.499999 0.685693 1.000000 -0.442673
C72   C     C_R   0.685693 0.500000 0.000000 -0.442673
C73   C     C_R   0.500000 0.314307 1.000000 -0.442686
C74   C     C_R   0.314307 0.500000 1.000000 -0.442684
C75   C     C_R   0.879868 1.000000 0.500000 1.112153
C76   C     C_R   0.000000 0.120132 0.500000 1.112152
C77   C     C_R   0.120132 0.000000 0.500000 1.112153
C78   C     C_R   1.000000 0.879868 0.500000 1.112154
C79   C     C_R   0.379868 0.500000 1.000000 1.112149
C80   C     C_R   0.500000 0.120446 1.000000 0.997688
C81   C     C_R   0.499999 0.620132 1.000000 1.112161
C82   C     C_R   0.620132 0.500000 0.000000 1.112157
C83   C     C_R   0.500000 0.379868 1.000000 1.112153
C84   C     C_R   1.000000 0.312918 0.500000 -0.443298
C85   C     C_R   0.312918 1.000000 0.500000 -0.443301
C86   C     C_R   0.000000 0.687082 0.500000 -0.443301
C87   C     C_R   0.687082 0.000000 0.499999 -0.443298
C88   C     C_R   0.500000 0.812918 0.999999 -0.443289
C89   C     C_R   0.812918 0.500000 0.000000 -0.443298
C90   C     C_R   0.500000 0.187082 1.000000 -0.443302
C91   C     C_R   0.120446 0.500000 1.000000 0.997688
C92   C     C_R   0.187082 0.500000 0.999999 -0.443298
C93   C     C_3   0.109642 0.184163 0.622922 0.178646
C94   C     C_3   0.163622 0.143202 0.645009 -0.752374
C95   C     C_3   0.184163 0.890359 0.622921 0.178647
C96   C     C_3   0.143201 0.836380 0.645008 -0.752371
C97   C     C_3   0.890359 0.815838 0.622920 0.178647
C98   C     C_3   0.836380 0.856800 0.645007 -0.752376
C99   C     C_3   0.815838 0.109640 0.622922 0.178645
C100  C     C_3   0.856800 0.163619 0.645011 -0.752375
C101  C     C_3   0.109640 0.815837 0.377079 0.178648
C102  C     C_R   1.000000 0.500000 0.358986 0.903365
C103  C     C_3   0.163619 0.856800 0.354990 -0.752374
C104  C     C_3   0.184162 0.109641 0.377079 0.178645
C105  C     C_3   0.143200 0.163620 0.354992 -0.752375
C106  C     C_3   0.890359 0.184163 0.377078 0.178648
C107  C     C_3   0.836381 0.143199 0.354990 -0.752378
C108  C     C_3   0.815836 0.890359 0.377077 0.178648
C109  C     C_3   0.856799 0.836381 0.354989 -0.752376
C110  C     C_3   0.609649 0.684172 0.122918 0.178689
C111  C     C_3   0.663609 0.643185 0.145008 -0.752447
C112  C     C_3   0.684163 0.390360 0.122921 0.178648
F1    F     F_    0.104828 0.311161 0.544778 -0.624312
F2    F     F_    0.811161 0.395171 0.044776 -0.624310
F3    F     F_    0.395171 0.188839 0.044776 -0.624310
F4    F     F_    0.188839 0.604828 0.044778 -0.624310
F5    F     F_    0.604828 0.188839 0.955223 -0.624309
F6    F     F_    0.811161 0.604829 0.955224 -0.624311
F7    F     F_    0.395171 0.811162 0.955224 -0.624307
F8    F     F_    0.188838 0.395172 0.955221 -0.624313
F9    F     F_    0.311161 0.895171 0.544776 -0.624310
F10   F     F_    0.895171 0.688839 0.544776 -0.624310
F11   F     F_    0.688839 0.104828 0.544778 -0.624310
F12   F     F_    0.104829 0.688839 0.455224 -0.624310
F13   F     F_    0.311161 0.104829 0.455223 -0.624310
F14   F     F_    0.895171 0.311161 0.455223 -0.624310
F15   F     F_    0.688838 0.895172 0.455221 -0.624313
F16   F     F_    0.604830 0.811161 0.044772 -0.624327
H1    H     H_    0.066960 0.165540 0.648967 0.118027
H2    H     H_    0.095069 0.844604 0.626480 0.252922
H3    H     H_    0.933041 0.834461 0.648965 0.118028
H4    H     H_    0.881446 0.768499 0.644174 0.182121
H5    H     H_    0.792993 0.839473 0.619842 0.281640
H6    H     H_    0.831218 0.856605 0.705476 0.192215
H7    H     H_    0.844604 0.904931 0.626479 0.252923
H8    H     H_    0.834461 0.066958 0.648966 0.118029
H9    H     H_    0.768499 0.118552 0.644176 0.182121
H10   H     H_    0.839471 0.207006 0.619848 0.281638
H11   H     H_    0.856606 0.168778 0.705479 0.192215
H12   H     H_    0.118554 0.231502 0.644175 0.182123
H13   H     H_    0.904931 0.155396 0.626480 0.252925
H14   H     H_    0.066958 0.834459 0.351034 0.118027
H15   H     H_    0.118554 0.768498 0.355825 0.182122
H16   H     H_    0.207006 0.839473 0.380154 0.281638
H17   H     H_    0.168778 0.856606 0.294522 0.192215
H18   H     H_    0.155394 0.904931 0.373520 0.252925
H19   H     H_    0.165538 0.066959 0.351035 0.118029
H20   H     H_    0.231500 0.118553 0.355825 0.182120
H21   H     H_    0.160528 0.207007 0.380155 0.281639
H22   H     H_    0.143394 0.168781 0.294523 0.192214
H23   H     H_    0.207008 0.160530 0.619845 0.281639
H24   H     H_    0.095069 0.155396 0.373521 0.252924
H25   H     H_    0.933042 0.165541 0.351034 0.118026
H26   H     H_    0.881445 0.231501 0.355825 0.182123
H27   H     H_    0.792994 0.160525 0.380155 0.281639
H28   H     H_    0.831220 0.143395 0.294521 0.192215
H29   H     H_    0.844607 0.095068 0.373518 0.252923
H30   H     H_    0.834458 0.933042 0.351032 0.118026
H31   H     H_    0.768497 0.881445 0.355824 0.182124
H32   H     H_    0.839472 0.792993 0.380152 0.281637
H33   H     H_    0.856605 0.831221 0.294520 0.192215
H34   H     H_    0.168783 0.143396 0.705478 0.192215
H35   H     H_    0.904930 0.844605 0.373518 0.252926
H36   H     H_    0.566960 0.665576 0.148976 0.117995
H37   H     H_    0.618589 0.731510 0.144157 0.182162
H38   H     H_    0.707000 0.660476 0.119817 0.281659
H39   H     H_    0.668786 0.643401 0.205475 0.192230
H40   H     H_    0.655350 0.595052 0.126509 0.252919
H41   H     H_    0.665539 0.433042 0.148966 0.118027
H42   H     H_    0.731502 0.381447 0.144175 0.182120
H43   H     H_    0.660529 0.292993 0.119846 0.281637
H44   H     H_    0.643395 0.331221 0.205478 0.192214
H45   H     H_    0.155398 0.095070 0.626480 0.252924
H46   H     H_    0.595070 0.344603 0.126479 0.252924
H47   H     H_    0.433042 0.334460 0.148965 0.118028
H48   H     H_    0.381446 0.268499 0.144175 0.182121
H49   H     H_    0.292993 0.339474 0.119843 0.281639
H50   H     H_    0.331219 0.356606 0.205476 0.192215
H51   H     H_    0.344605 0.404932 0.126479 0.252923
H52   H     H_    0.334461 0.566957 0.148967 0.118028
H53   H     H_    0.268499 0.618552 0.144177 0.182121
H54   H     H_    0.339473 0.707005 0.119847 0.281639
H55   H     H_    0.356605 0.668779 0.205480 0.192216
H56   H     H_    0.165540 0.933041 0.648966 0.118027
H57   H     H_    0.404932 0.655394 0.126483 0.252924
H58   H     H_    0.566958 0.334463 0.851035 0.118031
H59   H     H_    0.618550 0.268499 0.855824 0.182118
H60   H     H_    0.707007 0.339468 0.880153 0.281638
H61   H     H_    0.668779 0.356605 0.794522 0.192214
H62   H     H_    0.655399 0.404929 0.873522 0.252924
H63   H     H_    0.665535 0.566960 0.851036 0.118031
H64   H     H_    0.731500 0.618551 0.855825 0.182117
H65   H     H_    0.660532 0.707008 0.880157 0.281639
H66   H     H_    0.643395 0.668783 0.794525 0.192212
H67   H     H_    0.231502 0.881446 0.644174 0.182121
H68   H     H_    0.595070 0.655401 0.873523 0.252923
H69   H     H_    0.433039 0.665533 0.851037 0.118034
H70   H     H_    0.381451 0.731500 0.855823 0.182115
H71   H     H_    0.292990 0.660537 0.880152 0.281636
H72   H     H_    0.331218 0.643394 0.794523 0.192213
H73   H     H_    0.344594 0.595073 0.873526 0.252924
H74   H     H_    0.334456 0.433042 0.851031 0.118026
H75   H     H_    0.268497 0.381444 0.855825 0.182126
H76   H     H_    0.339474 0.292994 0.880153 0.281638
H77   H     H_    0.356605 0.331221 0.794520 0.192216
H78   H     H_    0.160528 0.792993 0.619843 0.281639
H79   H     H_    0.404931 0.344607 0.873517 0.252926
H80   H     H_    0.143396 0.831219 0.705477 0.192214
O1    O     O_R   0.948270 0.408400 0.500040 -0.567158
O2    O     O_R   0.908400 0.551730 0.000040 -0.567158
O3    O     O_R   0.551730 0.091600 0.000040 -0.567159
O4    O     O_R   0.091600 0.448270 0.000040 -0.567158
O5    O     O_R   0.448270 0.091600 0.999960 -0.567158
O6    O     O_R   0.908400 0.448270 0.999960 -0.567158
O7    O     O_R   0.551730 0.908400 0.999960 -0.567156
O8    O     O_R   0.091600 0.551730 0.999960 -0.567159
O9    O     O_R   0.948270 0.500020 0.392700 -0.617994
O10   O     O_R   0.500020 0.051730 0.392700 -0.617994
O11   O     O_R   0.051730 0.499980 0.392700 -0.617994
O12   O     O_R   0.408400 0.051730 0.500040 -0.567158
O13   O     O_R   0.499980 0.948270 0.392700 -0.617994
O14   O     O_R   0.948270 0.499980 0.607300 -0.617994
O15   O     O_R   0.500020 0.948270 0.607300 -0.617994
O16   O     O_R   0.051730 0.500020 0.607300 -0.617994
O17   O     O_R   0.499980 0.051730 0.607300 -0.617994
O18   O     O_R   0.448270 0.000020 0.892700 -0.617995
O19   O     O_R   0.000020 0.551730 0.892700 -0.617994
O20   O     O_R   0.551730 0.999980 0.892700 -0.617994
O21   O     O_R   0.999980 0.448270 0.892700 -0.617994
O22   O     O_R   0.448270 0.999980 0.107300 -0.617994
O23   O     O_R   0.051730 0.591600 0.500040 -0.567159
O24   O     O_R   0.000020 0.448270 0.107300 -0.617994
O25   O     O_R   0.551730 0.000020 0.107300 -0.617996
O26   O     O_R   0.999980 0.551730 0.107300 -0.617994
O27   O     O_R   0.908270 0.000020 0.560600 -0.645155
O28   O     O_R   0.000020 0.091730 0.560600 -0.645153
O29   O     O_R   0.091730 0.999980 0.560600 -0.645153
O30   O     O_R   0.999980 0.908270 0.560600 -0.645155
O31   O     O_R   0.908270 0.999980 0.439400 -0.645153
O32   O     O_R   0.000020 0.908270 0.439400 -0.645154
O33   O     O_R   0.091730 0.000020 0.439400 -0.645156
O34   O     O_R   0.591600 0.948270 0.500040 -0.567159
O35   O     O_R   0.999980 0.091730 0.439400 -0.645154
O36   O     O_R   0.408270 0.500020 0.060600 -0.645156
O37   O     O_R   0.500020 0.591730 0.060600 -0.645138
O38   O     O_R   0.591730 0.499980 0.060600 -0.645163
O39   O     O_R   0.499980 0.408270 0.060600 -0.645155
O40   O     O_R   0.408270 0.499980 0.939400 -0.645150
O41   O     O_R   0.500020 0.408270 0.939400 -0.645155
O42   O     O_R   0.591730 0.500020 0.939400 -0.645156
O43   O     O_R   0.499980 0.591730 0.939400 -0.645161
O44   O     O_3   0.104624 0.184386 0.545869 -0.528972
O45   O     O_R   0.948270 0.591600 0.499960 -0.567158
O46   O     O_3   0.184386 0.895375 0.545868 -0.528971
O47   O     O_3   0.895375 0.815613 0.545867 -0.528971
O48   O     O_3   0.815613 0.104624 0.545869 -0.528971
O49   O     O_3   0.104625 0.815613 0.454132 -0.528971
O50   O     O_3   0.184387 0.104625 0.454132 -0.528971
O51   O     O_3   0.895375 0.184386 0.454132 -0.528971
O52   O     O_3   0.815614 0.895376 0.454130 -0.528972
O53   O     O_3   0.604624 0.684384 0.045866 -0.528982
O54   O     O_3   0.684387 0.395375 0.045868 -0.528971
O55   O     O_3   0.395375 0.315613 0.045867 -0.528971
O56   O     O_R   0.408400 0.948270 0.499960 -0.567158
O57   O     O_3   0.315613 0.604624 0.045869 -0.528971
O58   O     O_3   0.604625 0.315613 0.954132 -0.528969
O59   O     O_3   0.684386 0.604625 0.954133 -0.528970
O60   O     O_3   0.395374 0.684387 0.954133 -0.528970
O61   O     O_3   0.315614 0.395376 0.954130 -0.528973
O62   O     O_R   0.051730 0.408400 0.499960 -0.567158
O63   O     O_R   0.591600 0.051730 0.499960 -0.567159
O64   O     O_R   0.448270 0.908400 0.000040 -0.567159
Zn1   Zn    Zn3+2 0.930920 0.500000 0.500000 1.064807
Zn2   Zn    Zn3+2 0.000000 1.000000 0.419070 0.944347
Zn3   Zn    Zn3+2 0.500000 0.500000 0.080930 0.944349
Zn4   Zn    Zn3+2 0.500000 0.500000 0.919070 0.944347
Zn5   Zn    Zn3+2 0.500000 0.069080 0.500000 1.064806
Zn6   Zn    Zn3+2 0.069080 0.500000 0.500000 1.064806
Zn7   Zn    Zn3+2 0.500000 0.930920 0.500000 1.064806
Zn8   Zn    Zn3+2 0.430920 0.000000 0.000000 1.064807
Zn9   Zn    Zn3+2 0.000000 0.569080 0.000000 1.064806
Zn10  Zn    Zn3+2 0.569080 0.000000 0.000000 1.064806
Zn11  Zn    Zn3+2 0.000000 0.430920 0.000000 1.064806
Zn12  Zn    Zn3+2 0.000000 1.000000 0.580930 0.944347

loop_
_geom_bond_atom_site_label_1
_geom_bond_atom_site_label_2
_ccdc_geom_bond_type
C45   F6    S    
C41   C89   A    
O6    Zn11  S    
C52   C70   A    
C34   F11   S    
C35   C53   A    
C104  H20   S    
C59   O54   S    
C75   O31   A    
C95   C96   S    
C67   C77   S    
C11   H66   S    
C39   C87   A    
C13   O14   A    
C9    H60   S    
C51   O47   S    
C103  H16   S    
C55   C66   A    
C97   C98   S    
C78   O30   A    
C44   C90   A    
C48   F8    S    
C108  H31   S    
C12   H70   S    
C1    C84   S    
O9    Zn1   S    
C105  H22   S    
C98   H5    S    
C57   O53   S    
C26   C27   T    
C93   C94   S    
C4    H48   S    
C77   O33   A    
C17   C26   S    
C23   C29   T    
C37   C85   A    
O38   Zn3   S    
C31   C49   A    
O40   Zn4   S    
C111  H40   S    
C15   O61   S    
C100  H13   S    
C4    O55   S    
O4    Zn11  S    
C9    H61   S    
C3    H44   S    
C96   H80   S    
C99   O48   S    
C108  H30   S    
C106  C107  S    
O21   Zn11  S    
C15   C16   S    
C40   F16   S    
C14   H73   S    
C58   O64   A    
C60   C73   A    
O56   Zn7   S    
C108  C109  S    
C57   C71   A    
C64   C71   A    
O29   Zn12  S    
C53   C68   A    
C19   O19   A    
C110  C111  S    
C5    H51   S    
C110  O53   S    
C2    O10   A    
C18   O18   A    
C102  O9    A    
C107  H29   S    
C49   O44   S    
C17   O17   A    
C112  H42   S    
C38   C55   A    
C21   O26   A    
C8    C9    S    
C106  H26   S    
C4    H47   S    
C101  O49   S    
C46   F7    S    
O36   Zn3   S    
C95   H67   S    
C12   H69   S    
C62   C73   A    
C75   O27   A    
O42   Zn4   S    
C48   C65   A    
C45   C89   A    
C50   C67   A    
C41   F2    S    
C46   C88   A    
C107  H28   S    
O23   Zn6   S    
C93   O44   S    
C59   C72   A    
C97   O47   S    
C6    H52   S    
C58   O7    A    
C16   H79   S    
O25   Zn10  S    
O5    Zn8   S    
O16   Zn6   S    
C101  C103  S    
C83   O41   A    
C10   H63   S    
C77   O29   A    
C104  H19   S    
C60   O55   S    
O12   Zn5   S    
C56   O52   S    
C31   F1    S    
O34   Zn7   S    
C81   O43   A    
C93   H1    S    
O19   Zn9   S    
C104  C105  S    
C38   F14   S    
C7    H57   S    
C37   F13   S    
C20   C29   S    
C8    H59   S    
C68   C78   S    
O41   Zn4   S    
C53   O49   S    
C10   O59   S    
C82   O38   A    
C6    H53   S    
C1    O1    A    
C81   O37   A    
O24   Zn11  S    
C76   O35   A    
C20   O22   A    
C11   H68   S    
C97   H3    S    
C8    O58   S    
C16   H77   S    
C64   O60   S    
C42   C60   A    
C91   C92   S    
O3    Zn10  S    
C25   O56   A    
C110  H36   S    
C4    C5    S    
C104  O50   S    
C1    O62   A    
C44   C62   A    
C94   H23   S    
C21   O24   A    
C14   H72   S    
C98   H7    S    
C45   C63   A    
C2    O13   A    
C10   H64   S    
C65   C74   A    
C13   C24   S    
C46   C64   A    
C49   C66   A    
C42   C90   A    
C39   F15   S    
C47   C87   S    
O33   Zn2   S    
O22   Zn8   S    
C61   O57   S    
C33   C86   A    
C12   O60   S    
C91   O8    A    
C50   O46   S    
C100  H11   S    
C43   F4    S    
O11   Zn6   S    
C101  H14   S    
C3    H46   S    
C96   H78   S    
C112  H41   S    
O35   Zn2   S    
C3    C112  S    
C106  H25   S    
C66   C76   S    
C6    O57   S    
C25   C85   S    
O7    Zn10  S    
C76   O28   A    
C111  H38   S    
O18   Zn8   S    
C79   O36   A    
O43   Zn4   S    
C19   C28   S    
C19   O21   A    
C95   O46   S    
C41   C59   A    
O37   Zn3   S    
C6    C7    S    
C100  H10   S    
C102  O11   A    
C80   O3    A    
C37   C54   A    
O26   Zn9   S    
C12   C14   S    
C5    H49   S    
C56   C70   A    
C74   C79   S    
C3    H43   S    
C109  H35   S    
C106  O51   S    
C54   O50   S    
C79   O40   A    
O13   Zn7   S    
C111  H39   S    
C13   O16   A    
O39   Zn3   S    
C9    H62   S    
C39   C56   A    
C70   C75   S    
C15   H74   S    
C65   O61   S    
C80   C90   S    
C103  H17   S    
C24   C28   T    
C96   H2    S    
C21   C30   S    
O20   Zn10  S    
C105  H24   S    
C94   H34   S    
C35   F12   S    
C78   O32   A    
C40   C57   A    
C22   C30   T    
C7    H54   S    
C38   C84   A    
O2    Zn9   S    
C32   F9    S    
C82   O42   A    
C51   C68   A    
C69   O6    A    
C43   C92   A    
C97   H4    S    
C91   O4    A    
C58   C88   S    
C47   O34   A    
C15   H75   S    
C80   O5    A    
C54   C67   A    
O27   Zn12  S    
C61   C74   A    
C33   C51   A    
C105  H21   S    
C14   H71   S    
C98   H6    S    
C69   C89   S    
C34   C52   A    
C36   O45   A    
C22   C102  S    
C99   C100  S    
C7    H55   S    
C18   C27   S    
O1    Zn1   S    
C36   C86   S    
O8    Zn9   S    
O62   Zn6   S    
O14   Zn1   S    
C52   O48   S    
C93   H12   S    
C109  H33   S    
C62   O58   S    
C101  H15   S    
C43   C61   A    
C33   F10   S    
C8    H58   S    
C44   F5    S    
C36   O23   A    
C32   C85   A    
C17   O15   A    
C110  H37   S    
O32   Zn2   S    
C99   H8    S    
C32   C50   A    
C55   O51   S    
C34   C87   A    
C108  O52   S    
O10   Zn5   S    
C95   H56   S    
O28   Zn12  S    
C107  H27   S    
C5    H50   S    
O30   Zn12  S    
C10   C11   S    
C31   C84   A    
C94   H45   S    
C47   O63   A    
C42   F3    S    
O63   Zn5   S    
O15   Zn7   S    
C63   C72   A    
O64   Zn8   S    
C20   O25   A    
C48   C92   A    
O31   Zn2   S    
C83   O39   A    
C2    C23   S    
C18   O20   A    
O17   Zn5   S    
C99   H9    S    
C25   O12   A    
O45   Zn1   S    
C69   O2    A    
C16   H76   S    
C109  H32   S    
C63   O59   S    
C35   C86   A    
C73   C83   S    
C72   C82   S    
C40   C88   A    
C103  H18   S    
C112  O54   S    
C71   C81   S    
C11   H65   S    
