data_mof_unit_65190.cif
_audit_creation_date              2013-03-05T16:57:01-0500
_audit_creation_method            fapswitch 2.2
_symmetry_space_group_name_H-M    P1
_symmetry_Int_Tables_number       1
_space_group_crystal_system       triclinic
_cell_length_a                    17.53075
_cell_length_b                    16.776136
_cell_length_c                    15.75352
_cell_angle_alpha                 90.09527
_cell_angle_beta                  90.596858
_cell_angle_gamma                 90.005899
_cell_volume                      4632.82478395

loop_
_atom_site_label
_atom_site_type_symbol
_atom_site_description
_atom_site_fract_x
_atom_site_fract_y
_atom_site_fract_z
_atom_type_partial_charge
O1    O     O_R   0.389130 0.566570 0.500000 -0.605050
O2    O     O_R   0.389130 0.433430 0.500000 -0.606388
C1    C     C_R   0.353204 0.500049 0.501160 0.928572
O3    O     O_R   0.500020 0.566570 0.377150 -0.596307
O4    O     O_R   0.500020 0.433430 0.377150 -0.593705
C2    C     C_R   0.500031 0.499942 0.338004 0.936212
Zn1   Zn    Zn3+2 0.500020 0.588860 0.500000 0.991674
Zn2   Zn    Zn3+2 0.500020 0.411140 0.500000 0.992856
O5    O     O_R   0.610900 0.566520 0.500010 -0.624721
O6    O     O_R   0.610900 0.433480 0.500010 -0.624430
O7    O     O_R   0.500010 0.566510 0.622860 -0.617199
O8    O     O_R   0.500010 0.433490 0.622860 -0.617937
C3    C     C_R   0.646771 0.500008 0.501164 0.899832
C4    C     C_R   0.499971 0.500057 0.662018 0.908418
C5    C     C_3   0.462396 0.578022 0.047645 0.054146
C6    C     C_3   0.460265 0.422931 0.047161 0.055663
C7    C     C_3   0.456736 0.426260 0.949377 -0.448037
C8    C     C_3   0.458588 0.574918 0.949860 -0.447012
H1    H     H_    0.496287 0.370891 0.065414 0.155557
H2    H     H_    0.499925 0.628905 0.066063 0.155030
C9    C     C_1   0.500092 0.500166 0.750743 -0.123475
C10   C     C_3   0.499358 0.499872 0.082705 0.125338
C11   C     C_3   0.501239 0.500041 0.917339 0.140872
C12   C     C_3   0.585153 0.498848 0.953121 0.315257
C13   C     C_3   0.583165 0.498654 0.051789 -0.541857
C14   C     C_1   0.500476 0.500154 0.825952 -0.003314
C15   C     C_1   0.499642 0.499791 0.174045 0.000476
C16   C     C_1   0.499894 0.499817 0.249265 -0.105701
C17   C     C_R   0.849196 0.568913 0.497111 0.182540
C18   C     C_R   0.844278 0.436203 0.560175 0.183537
C19   C     C_R   0.770658 0.567388 0.485835 -0.212386
C20   C     C_R   0.765918 0.434752 0.547202 -0.201135
H3    H     H_    0.742305 0.618255 0.457297 0.184662
H4    H     H_    0.733776 0.383165 0.567555 0.182789
C21   C     C_R   0.729056 0.500199 0.510072 -0.113509
C22   C     C_R   0.885856 0.503185 0.534444 0.001044
C23   C     C_1   0.966296 0.502109 0.540016 0.077395
C24   C     C_1   0.034083 0.500852 0.539990 0.079568
C25   C     C_R   0.156286 0.568522 0.553248 0.179664
C26   C     C_R   0.150570 0.430660 0.503918 0.176663
C27   C     C_R   0.234417 0.568866 0.540333 -0.201703
C28   C     C_R   0.228920 0.431213 0.492775 -0.192297
H5    H     H_    0.266621 0.622275 0.555298 0.190796
H6    H     H_    0.256680 0.377853 0.469965 0.200801
C29   C     C_R   0.270920 0.500343 0.510124 -0.116969
C30   C     C_R   0.114417 0.499429 0.534394 0.001027
C31   C     C_R   0.457132 0.837391 0.453681 -0.299840
C32   C     C_R   0.459292 0.162369 0.451526 -0.297308
C33   C     C_R   0.453548 0.753506 0.449614 0.300283
C34   C     C_R   0.455687 0.246219 0.447366 0.299600
N1    N     N_R   0.500030 0.707230 0.500020 -0.129280
N2    N     N_R   0.500030 0.292770 0.500020 -0.126135
C35   C     C_R   0.550358 0.743392 0.554595 -0.059595
C36   C     C_R   0.548361 0.256835 0.556834 -0.056813
C37   C     C_R   0.555667 0.827272 0.560418 0.113086
C38   C     C_R   0.553609 0.172967 0.562833 0.112992
C39   C     C_R   0.508301 0.875642 0.509230 0.041948
C40   C     C_R   0.508341 0.124365 0.509396 0.042110
C41   C     C_1   0.510785 0.963463 0.512059 0.058199
C42   C     C_1   0.510811 0.036552 0.512149 0.058080
H7    H     H_    0.398099 0.573033 0.927849 0.218002
H8    H     H_    0.396359 0.429725 0.927217 0.217868
H9    H     H_    0.419856 0.872614 0.413284 0.185224
H10   H     H_    0.423718 0.126964 0.409317 0.185474
I1    I     I_    0.374012 0.703682 0.362813 -0.228036
I2    I     I_    0.379744 0.295319 0.356491 -0.250826
H11   H     H_    0.586930 0.706784 0.594176 0.173368
H12   H     H_    0.583427 0.293609 0.598036 0.166719
I3    I     I_    0.635857 0.876578 0.647062 -0.210088
I4    I     I_    0.630524 0.124082 0.653158 -0.211540
I5    I     I_    0.353942 0.612220 0.100216 -0.219094
I6    I     I_    0.350760 0.392104 0.099291 -0.218285
H13   H     H_    0.480278 0.370198 0.922500 0.202210
H14   H     H_    0.483403 0.630390 0.923209 0.202154
H15   H     H_    0.614529 0.550989 0.077984 0.210858
H16   H     H_    0.613018 0.445254 0.077505 0.211288
I7    I     I_    0.650633 0.600228 0.909942 -0.276160
I8    I     I_    0.648162 0.395982 0.909004 -0.275478
I9    I     I_    0.908898 0.671201 0.454599 -0.216320
I10   I     I_    0.896055 0.335726 0.618807 -0.200182
I11   I     I_    0.105283 0.673893 0.601233 -0.217510
I12   I     I_    0.090340 0.324887 0.471683 -0.214229

loop_
_geom_bond_atom_site_label_1
_geom_bond_atom_site_label_2
_geom_bond_distance
_ccdc_geom_bond_type
C5    C8    1.542004 S    
C9    C14   1.184765 T    
C6    I6    2.158981 S    
C31   C33   1.409993 A    
Zn1   O7    1.972073 S    
C17   C22   1.403294 A    
C7    C11   1.550991 S    
C33   I1    2.113972 S    
C4    C9    1.397702 S    
C22   C23   1.412110 S    
C3    C21   1.447873 S    
C31   H9    1.083451 S    
O4    C2    1.275788 A    
O7    C4    1.275010 A    
C39   C41   1.474520 S    
C36   H12   1.081691 S    
C40   C42   1.474505 S    
C11   C14   1.439596 S    
O5    C3    1.280938 A    
C5    C10   1.561709 S    
C2    C16   1.397933 S    
C6    C7    1.542143 S    
C33   N1    1.373290 A    
C10   C13   1.552763 S    
C34   N2    1.373493 A    
C11   C12   1.570025 S    
C19   H3    1.083555 S    
Zn2   N2    1.985792 S    
C18   I10   2.122817 S    
C32   C34   1.409704 A    
C41   C42   1.226153 T    
C8    H14   1.112005 S    
C7    H13   1.112006 S    
C27   H5    1.083286 S    
C28   H6    1.081641 S    
O3    Zn1   1.970504 S    
N2    C36   1.366920 A    
C35   C37   1.413024 A    
C5    H2    1.113892 S    
C36   C38   1.413255 A    
C8    C11   1.550954 S    
C20   C21   1.399869 A    
C26   I12   2.122946 S    
C12   C13   1.555129 S    
C25   I11   2.122655 S    
C25   C27   1.386819 A    
C1    C29   1.450868 S    
N1    C35   1.366743 A    
C28   C29   1.398711 A    
C20   H4    1.083460 S    
C26   C30   1.402787 A    
C23   C24   1.188554 T    
C7    H8    1.112624 S    
C31   C39   1.401391 A    
C17   I9    2.122890 S    
Zn2   O8    1.970849 S    
C34   I2    2.113027 S    
C37   I3    2.116491 S    
C25   C30   1.401669 A    
C12   I8    2.166464 S    
O8    C4    1.274902 A    
C38   I4    2.116496 S    
C10   C15   1.438883 S    
C37   C39   1.409459 A    
C19   C21   1.398310 A    
O3    C2    1.275698 A    
C13   H15   1.112386 S    
Zn1   O5    1.979648 S    
C6    C10   1.561632 S    
O1    Zn1   1.979583 S    
O2    Zn2   1.979659 S    
O6    C3    1.280996 A    
O4    Zn2   1.971725 S    
C8    H7    1.112651 S    
C32   C40   1.400967 A    
C5    I5    2.159021 S    
C18   C22   1.402073 A    
C13   H16   1.112402 S    
O2    C1    1.283100 A    
Zn1   N1    1.985791 S    
C17   C19   1.386628 A    
C18   C20   1.386915 A    
C6    H1    1.113932 S    
C26   C28   1.386558 A    
C38   C40   1.409576 A    
C35   H11   1.081682 S    
C24   C30   1.412181 S    
C32   H10   1.083436 S    
C12   I7    2.166251 S    
Zn2   O6    1.979572 S    
C15   C16   1.184941 T    
C27   C29   1.400770 A    
O1    C1    1.281615 A    
