data_mof_unit_62971.cif
_audit_creation_date              2012-12-10T16:55:20-0500
_audit_creation_method            fapswitch 2.2
_symmetry_space_group_name_H-M    P1
_symmetry_Int_Tables_number       1
_space_group_crystal_system       triclinic
_cell_length_a                    29.360871
_cell_length_b                    30.661931
_cell_length_c                    21.185463
_cell_angle_alpha                 89.989924
_cell_angle_beta                  133.248771
_cell_angle_gamma                 89.997288
_cell_volume                      13892.0958045

loop_
_atom_site_label
_atom_site_type_symbol
_atom_type_description
_atom_site_fract_x
_atom_site_fract_y
_atom_site_fract_z
_atom_type_partial_charge
C1    C     C_R   0.307221 0.190587 0.118631 0.876594
C2    C     C_R   0.632730 0.873400 0.685090 -0.090949
C3    C     C_R   0.283622 0.820851 0.233607 0.412466
C4    C     C_R   0.800744 0.689563 0.253122 0.414929
C5    C     C_R   0.230441 0.332337 0.787157 0.405910
C6    C     C_R   0.199241 0.689550 0.746861 0.415071
C7    C     C_R   0.783621 0.320852 0.233605 0.412466
C8    C     C_R   0.310810 0.195338 0.327540 -0.273210
C9    C     C_R   0.738611 0.835335 0.729308 -0.321315
C10   C     C_R   0.689190 0.195323 0.672450 -0.273420
C11   C     C_R   0.282094 0.820967 0.298389 -0.321848
C12   C     C_R   0.810810 0.695338 0.327540 -0.273210
C13   C     C_R   0.618094 0.133088 0.671340 -0.006648
C14   C     C_R   0.238603 0.335329 0.729297 -0.321317
C15   C     C_R   0.189190 0.695323 0.672450 -0.273420
C16   C     C_R   0.782091 0.320968 0.298386 -0.321847
C17   C     C_R   0.357916 0.172863 0.402997 -0.285772
C18   C     C_R   0.692474 0.853347 0.647838 -0.170721
C19   C     C_R   0.642100 0.172853 0.597011 -0.285817
C20   C     C_R   0.327877 0.842202 0.376111 -0.171243
C21   C     C_R   0.857916 0.672863 0.402997 -0.285771
C22   C     C_R   0.192467 0.353343 0.647829 -0.170719
C23   C     C_R   0.142100 0.672853 0.597011 -0.285817
C24   C     C_R   0.373697 0.870235 0.321936 -0.088711
C25   C     C_R   0.827874 0.342204 0.376108 -0.171244
C26   C     C_R   0.394001 0.141796 0.405120 0.426881
C27   C     C_R   0.638791 0.871111 0.623608 0.420976
C28   C     C_R   0.606019 0.141791 0.594898 0.426947
C29   C     C_R   0.374841 0.865410 0.390257 0.414642
C30   C     C_R   0.894001 0.641796 0.405120 0.426881
C31   C     C_R   0.138787 0.371110 0.623602 0.420972
C32   C     C_R   0.106019 0.641791 0.594898 0.426947
C33   C     C_R   0.874839 0.365411 0.390256 0.414642
C34   C     C_R   0.881915 0.633096 0.328674 -0.006666
C35   C     C_R   0.132728 0.373399 0.685087 -0.090950
C36   C     C_R   0.118094 0.633088 0.671340 -0.006648
C37   C     C_R   0.873696 0.370236 0.321936 -0.088711
C38   C     C_R   0.339682 0.160580 0.255294 -0.005910
C39   C     C_R   0.675016 0.848825 0.762763 0.025990
C40   C     C_R   0.660309 0.160572 0.744702 -0.005718
C41   C     C_R   0.691889 0.809457 0.881448 0.883312
C42   C     C_R   0.331578 0.843909 0.246629 0.024971
C43   C     C_R   0.839682 0.660580 0.255294 -0.005910
C44   C     C_R   0.175013 0.348822 0.762759 0.025991
C45   C     C_R   0.160309 0.660572 0.744702 -0.005718
C46   C     C_R   0.831577 0.343909 0.246629 0.024970
C47   C     C_R   0.337181 0.157443 0.185917 -0.057271
C48   C     C_R   0.661130 0.842734 0.814525 -0.045629
C49   C     C_R   0.662801 0.157442 0.814075 -0.057559
C50   C     C_R   0.338079 0.842493 0.185967 -0.052110
C51   C     C_R   0.837181 0.657443 0.185917 -0.057272
C52   C     C_R   0.692767 0.190584 0.881362 0.877020
C53   C     C_R   0.161130 0.342734 0.814525 -0.045631
C54   C     C_R   0.162801 0.657442 0.814075 -0.057559
C55   C     C_R   0.838079 0.342493 0.185967 -0.052110
C56   C     C_R   0.369576 0.124635 0.184917 -0.219831
C57   C     C_R   0.611944 0.865155 0.796181 -0.238463
C58   C     C_R   0.630404 0.124637 0.815078 -0.219639
C59   C     C_R   0.379752 0.870104 0.194608 -0.233715
C60   C     C_R   0.869576 0.624635 0.184917 -0.219832
C61   C     C_R   0.111946 0.365156 0.796184 -0.238464
C62   C     C_R   0.130404 0.624637 0.815078 -0.219639
C63   C     C_R   0.307643 0.809413 0.118636 0.884942
C64   C     C_R   0.879752 0.370104 0.194609 -0.233716
C65   C     C_R   0.405295 0.094950 0.251966 -0.234021
C66   C     C_R   0.576729 0.894407 0.728129 -0.148926
C67   C     C_R   0.594701 0.094952 0.748047 -0.233209
C68   C     C_R   0.415344 0.899459 0.262280 -0.161951
C69   C     C_R   0.905295 0.594950 0.251966 -0.234020
C70   C     C_R   0.076732 0.394409 0.728132 -0.148931
C71   C     C_R   0.094701 0.594952 0.748047 -0.233209
C72   C     C_R   0.915344 0.399459 0.262281 -0.161948
C73   C     C_R   0.411213 0.098347 0.323014 -0.074712
C74   C     C_R   0.807221 0.690587 0.118631 0.876594
C75   C     C_R   0.587499 0.899819 0.673669 -0.104560
C76   C     C_R   0.588796 0.098339 0.677006 -0.075343
C77   C     C_R   0.411980 0.900617 0.324952 -0.097603
C78   C     C_R   0.911213 0.598347 0.323014 -0.074712
C79   C     C_R   0.087499 0.399819 0.673669 -0.104557
C80   C     C_R   0.088796 0.598339 0.677006 -0.075343
C81   C     C_R   0.911980 0.400617 0.324952 -0.097603
C82   C     C_R   0.942884 0.437105 0.385831 0.815841
C83   C     C_R   0.057523 0.562460 0.615091 0.956444
C84   C     C_R   0.056761 0.436716 0.613361 0.817304
C85   C     C_R   0.191889 0.309457 0.881448 0.883316
C86   C     C_R   0.942489 0.562469 0.384935 0.955414
C87   C     C_R   0.442884 0.937105 0.385830 0.815840
C88   C     C_R   0.557523 0.062460 0.615091 0.956445
C89   C     C_R   0.556761 0.936716 0.613361 0.817305
C90   C     C_R   0.442489 0.062469 0.384935 0.955414
C91   C     C_R   0.335267 0.248989 0.001413 0.859856
C92   C     C_R   0.665187 0.750483 0.999543 0.846467
C93   C     C_R   0.664754 0.249064 0.998646 0.858061
C94   C     C_R   0.334815 0.750480 0.000454 0.848224
C95   C     C_R   0.835267 0.748989 0.001413 0.859853
C96   C     C_R   0.192767 0.690584 0.881362 0.877020
C97   C     C_R   0.165187 0.250483 0.999543 0.846467
C98   C     C_R   0.164755 0.749064 0.998646 0.858060
C99   C     C_R   0.834815 0.250480 0.000454 0.848224
C100  C     C_1   0.386765 0.248278 0.001803 -0.191619
C101  C     C_1   0.613993 0.750737 0.999731 -0.179545
C102  C     C_1   0.613321 0.248508 0.998388 -0.189484
C103  C     C_1   0.386007 0.750732 0.000263 -0.179454
C104  C     C_1   0.886765 0.748278 0.001803 -0.191614
C105  C     C_1   0.113993 0.250737 0.999731 -0.179545
C106  C     C_1   0.113322 0.748508 0.998389 -0.189483
C107  C     C_R   0.807643 0.309413 0.118636 0.884943
C108  C     C_1   0.886007 0.250732 0.000263 -0.179454
C109  C     C_1   0.429056 0.248066 0.001406 -0.013493
C110  C     C_1   0.571575 0.750820 0.999866 -0.004677
C111  C     C_1   0.571063 0.248265 0.998850 -0.009949
C112  C     C_1   0.428425 0.750816 0.000125 -0.004322
C113  C     C_1   0.929056 0.748066 0.001406 -0.013494
C114  C     C_1   0.071575 0.250820 0.999866 -0.004677
C115  C     C_1   0.071064 0.748265 0.998850 -0.009948
C116  C     C_1   0.928425 0.250816 0.000125 -0.004322
C117  C     C_1   0.479022 0.248042 0.000544 0.003651
C118  C     C_R   0.381915 0.133096 0.328674 -0.006666
C119  C     C_1   0.521229 0.750852 0.999964 0.005296
C120  C     C_1   0.521111 0.248107 0.999739 0.003776
C121  C     C_1   0.478770 0.750851 0.000026 0.005417
C122  C     C_1   0.979022 0.748042 0.000544 0.003650
C123  C     C_1   0.021229 0.250852 0.999964 0.005296
C124  C     C_1   0.021111 0.748107 0.999739 0.003775
C125  C     C_1   0.978770 0.250851 0.000026 0.005417
C126  C     C_R   0.300745 0.189563 0.253122 0.414929
C127  C     C_R   0.730447 0.832342 0.787166 0.405906
C128  C     C_R   0.699241 0.189550 0.746861 0.415071
Cu1   Cu    Cu3+1 0.280720 0.280980 0.061500 0.996587
Cu2   Cu    Cu3+1 0.957580 0.500000 0.500070 1.011531
Cu3   Cu    Cu3+1 0.542420 0.000000 0.499930 1.013231
Cu4   Cu    Cu3+1 0.457580 0.000000 0.500070 1.011530
Cu5   Cu    Cu3+1 0.719280 0.719020 0.938500 0.983993
Cu6   Cu    Cu3+1 0.719280 0.280980 0.938500 0.990714
Cu7   Cu    Cu3+1 0.280720 0.719020 0.061500 0.987497
Cu8   Cu    Cu3+1 0.780720 0.780980 0.061500 0.996589
Cu9   Cu    Cu3+1 0.219280 0.219020 0.938500 0.983994
Cu10  Cu    Cu3+1 0.219280 0.780980 0.938500 0.990714
Cu11  Cu    Cu3+1 0.780720 0.219020 0.061500 0.987497
Cu12  Cu    Cu3+1 0.042420 0.500000 0.499930 1.013231
H1    H     H_    0.367586 0.122198 0.132015 0.150115
H2    H     H_    0.780421 0.822694 0.746699 0.158296
H3    H     H_    0.717791 0.217728 0.672619 0.153945
H4    H     H_    0.245827 0.803650 0.289351 0.156776
H5    H     H_    0.782205 0.717747 0.327361 0.154269
H6    H     H_    0.280411 0.322685 0.746684 0.158295
H7    H     H_    0.217791 0.717728 0.672619 0.153945
H8    H     H_    0.745824 0.303651 0.289348 0.156776
H9    H     H_    0.365913 0.179443 0.460165 0.153545
H10   H     H_    0.697922 0.852782 0.602187 0.176351
H11   H     H_    0.634112 0.179433 0.539846 0.153332
H12   H     H_    0.601349 0.860403 0.835694 0.135178
H13   H     H_    0.327856 0.839666 0.427092 0.176357
H14   H     H_    0.865914 0.679443 0.460165 0.153545
H15   H     H_    0.197913 0.352777 0.602175 0.176350
H16   H     H_    0.134112 0.679433 0.539846 0.153332
H17   H     H_    0.827852 0.339668 0.427088 0.176358
H18   H     H_    0.427906 0.068727 0.247808 0.153312
H19   H     H_    0.541530 0.913483 0.719018 0.163514
H20   H     H_    0.572089 0.068735 0.752216 0.153857
H21   H     H_    0.444893 0.922049 0.264682 0.157921
H22   H     H_    0.927906 0.568727 0.247808 0.153312
H23   H     H_    0.632383 0.122200 0.867970 0.150026
H24   H     H_    0.041535 0.413487 0.719024 0.163513
H25   H     H_    0.072089 0.568735 0.752216 0.153857
H26   H     H_    0.944894 0.422048 0.264683 0.157921
H27   H     H_    0.228406 0.228296 0.186723 0.317309
H28   H     H_    0.814908 0.810229 0.877776 0.317411
H29   H     H_    0.771559 0.228282 0.813237 0.317156
H30   H     H_    0.206975 0.786831 0.157737 0.316819
H31   H     H_    0.728406 0.728296 0.186723 0.317309
H32   H     H_    0.314897 0.310215 0.877758 0.317409
H33   H     H_    0.271559 0.728282 0.813237 0.317156
H34   H     H_    0.384645 0.868963 0.148341 0.140277
H35   H     H_    0.706973 0.286832 0.157735 0.316818
H36   H     H_    0.445654 0.132251 0.528955 0.315647
H37   H     H_    0.551636 0.876825 0.520687 0.290711
H38   H     H_    0.554384 0.132257 0.471073 0.315657
H39   H     H_    0.461945 0.876251 0.485967 0.284132
H40   H     H_    0.945654 0.632251 0.528955 0.315647
H41   H     H_    0.051631 0.376826 0.520684 0.290708
H42   H     H_    0.054384 0.632257 0.471073 0.315657
H43   H     H_    0.961943 0.376252 0.485967 0.284133
H44   H     H_    0.867586 0.622198 0.132015 0.150115
H45   H     H_    0.101354 0.360407 0.835700 0.135180
H46   H     H_    0.132383 0.622200 0.867970 0.150026
H47   H     H_    0.884647 0.368963 0.148343 0.140277
H48   H     H_    0.282205 0.217747 0.327361 0.154269
O1    O     O_R   0.321010 0.231060 0.142100 -0.560285
O2    O     O_R   0.730960 0.821350 0.961860 -0.569351
O3    O     O_R   0.730960 0.178650 0.961860 -0.590999
O4    O     O_R   0.269040 0.821350 0.038140 -0.582308
O5    O     O_R   0.769040 0.678650 0.038140 -0.590727
O6    O     O_R   0.230960 0.321350 0.961860 -0.569357
O7    O     O_R   0.230960 0.678650 0.961860 -0.590999
O8    O     O_R   0.769040 0.321350 0.038140 -0.582307
O9    O     O_R   0.337910 0.276140 0.051940 -0.555100
O10   O     O_R   0.662090 0.723860 0.948060 -0.566819
O11   O     O_R   0.662090 0.276140 0.948060 -0.562275
O12   O     O_R   0.678990 0.768940 0.857900 -0.578482
O13   O     O_R   0.337910 0.723860 0.051940 -0.566979
O14   O     O_R   0.837910 0.776140 0.051940 -0.555098
O15   O     O_R   0.162090 0.223860 0.948060 -0.566820
O16   O     O_R   0.162090 0.776140 0.948060 -0.562275
O17   O     O_R   0.837910 0.223860 0.051940 -0.566979
O18   O     O_R   0.285940 0.223740 0.947980 -0.563899
O19   O     O_R   0.714060 0.776260 0.052020 -0.556479
O20   O     O_R   0.714060 0.223740 0.052020 -0.557541
O21   O     O_R   0.285940 0.776260 0.947980 -0.555913
O22   O     O_R   0.785940 0.723740 0.947980 -0.563903
O23   O     O_R   0.678990 0.231060 0.857900 -0.559579
O24   O     O_R   0.214060 0.276260 0.052020 -0.556479
O25   O     O_R   0.214060 0.723740 0.052020 -0.557542
O26   O     O_R   0.785940 0.276260 0.947980 -0.555913
O27   O     O_R   0.990910 0.454660 0.410130 -0.582140
O28   O     O_R   0.009090 0.545340 0.589870 -0.590824
O29   O     O_R   0.009090 0.454660 0.589870 -0.576762
O30   O     O_R   0.990910 0.545340 0.410130 -0.590707
O31   O     O_R   0.490910 0.954660 0.410130 -0.582142
O32   O     O_R   0.509090 0.045340 0.589870 -0.590824
O33   O     O_R   0.509090 0.954660 0.589870 -0.576762
O34   O     O_R   0.321010 0.768940 0.142100 -0.566397
O35   O     O_R   0.490910 0.045340 0.410130 -0.590706
O36   O     O_R   0.919170 0.454670 0.410130 -0.553605
O37   O     O_R   0.080830 0.545330 0.589870 -0.565565
O38   O     O_R   0.080830 0.454670 0.589870 -0.555347
O39   O     O_R   0.919170 0.545330 0.410130 -0.566668
O40   O     O_R   0.419170 0.954670 0.410130 -0.553606
O41   O     O_R   0.580830 0.045330 0.589870 -0.565565
O42   O     O_R   0.580830 0.954670 0.589870 -0.555349
O43   O     O_R   0.419170 0.045330 0.410130 -0.566668
O44   O     O_3   0.250782 0.209858 0.176826 -0.744137
O45   O     O_R   0.821010 0.731060 0.142100 -0.560285
O46   O     O_3   0.778005 0.816403 0.869591 -0.749958
O47   O     O_3   0.749185 0.209846 0.823141 -0.744257
O48   O     O_3   0.236450 0.800656 0.155650 -0.749378
O49   O     O_3   0.750782 0.709858 0.176826 -0.744137
O50   O     O_3   0.277998 0.316394 0.869579 -0.749958
O51   O     O_3   0.249185 0.709846 0.823141 -0.744257
O52   O     O_3   0.736449 0.300657 0.155649 -0.749377
O53   O     O_3   0.443330 0.121875 0.482465 -0.710731
O54   O     O_3   0.591916 0.882432 0.537714 -0.709959
O55   O     O_3   0.556701 0.121881 0.517562 -0.710733
O56   O     O_R   0.178990 0.268940 0.857900 -0.578476
O57   O     O_3   0.423049 0.879780 0.473536 -0.712923
O58   O     O_3   0.943330 0.621875 0.482465 -0.710730
O59   O     O_3   0.091911 0.382432 0.537710 -0.709958
O60   O     O_3   0.056701 0.621881 0.517562 -0.710733
O61   O     O_3   0.923046 0.379781 0.473534 -0.712921
O62   O     O_R   0.178990 0.731060 0.857900 -0.559579
O63   O     O_R   0.821010 0.268940 0.142100 -0.566398
O64   O     O_R   0.269040 0.178650 0.038140 -0.590727

loop_
_geom_bond_atom_site_label_1
_geom_bond_atom_site_label_2
_ccdc_geom_bond_type
C61   C70   A    
C60   H44   S    
Cu7   Cu10  S    
C111  C120  S    
C27   O54   S    
C3    C42   A    
Cu5   O10   S    
Cu5   O22   S    
C97   O24   A    
Cu2   O29   S    
C24   C42   A    
C84   O29   A    
C51   C74   S    
C96   O62   A    
C57   C66   A    
C65   H18   S    
C59   H34   S    
C84   O38   A    
C91   O18   A    
Cu8   O14   S    
C83   O28   A    
C102  C111  T    
C1    O64   A    
C109  C117  S    
C48   C57   A    
Cu7   O13   S    
H40   O58   S    
C68   H21   S    
C8    H48   S    
C95   O14   A    
C99   C108  S    
Cu12  O37   S    
C9    C127  A    
C41   O2    A    
C99   O17   A    
C17   C26   A    
C32   C36   A    
C98   O16   A    
C93   O11   A    
C73   C90   S    
Cu11  O3    S    
Cu4   O40   S    
C89   O33   A    
C79   C84   S    
C59   C68   A    
C92   O10   A    
C85   O6    A    
C123  C125  T    
C82   O36   A    
C63   O4    A    
C40   C128  A    
C57   H12   S    
C16   C25   A    
C65   C73   A    
Cu3   O31   S    
H35   O52   S    
C86   O30   A    
Cu10  O4    S    
C24   C29   A    
C107  O8    A    
C13   C40   A    
Cu11  O17   S    
Cu12  O27   S    
H39   O57   S    
C6    C15   A    
Cu9   O56   S    
Cu10  O16   S    
C2    C39   A    
C96   O7    A    
C113  C122  S    
Cu1   O1    S    
C46   C55   A    
C52   O23   A    
C19   H11   S    
C21   H14   S    
C13   C28   A    
Cu2   O28   S    
C2    C27   A    
C73   C118  A    
C28   O55   S    
C87   O31   A    
C91   C100  S    
C4    C12   A    
C30   O58   S    
C11   H4    S    
C76   C88   S    
C54   C96   S    
C72   C81   A    
Cu9   O18   S    
C97   C105  S    
C78   C86   S    
C128  O47   S    
C15   C23   A    
H37   O54   S    
C74   O5    A    
Cu2   Cu12  S    
C100  C109  T    
C23   H16   S    
Cu8   O45   S    
C50   C63   S    
C63   O34   A    
C31   O59   S    
C69   C78   A    
C53   C61   A    
C97   O15   A    
C80   C83   S    
C10   C128  A    
C58   H23   S    
C44   C53   A    
C66   H19   S    
C38   C126  A    
C81   C82   S    
C86   O39   A    
C20   C29   A    
C119  C121  T    
C5    O50   S    
Cu6   O11   S    
C53   C85   S    
C17   H9    S    
C11   C20   A    
C26   O53   S    
C39   C127  A    
C22   C31   A    
C30   C34   A    
C6    C45   A    
C94   C103  S    
Cu4   O33   S    
C7    C46   A    
C105  C114  T    
H27   O44   S    
C69   H22   S    
C36   C80   A    
C117  C120  T    
Cu6   Cu11  S    
Cu1   O6    S    
C1    C47   S    
H31   O49   S    
C101  C110  T    
H30   O48   S    
C12   C21   A    
C85   O56   A    
C33   C37   A    
C49   C58   A    
C88   O32   A    
Cu8   O2    S    
C103  C112  T    
C74   O45   A    
C52   O3    A    
C91   O9    A    
C12   H5    S    
C110  C119  S    
C37   C81   A    
C126  O44   S    
H43   O61   S    
C35   C44   A    
H42   O60   S    
C3    O48   S    
Cu5   Cu8   S    
C9    C18   A    
C18   H10   S    
C13   C76   A    
C10   C19   A    
C4    O49   S    
C49   C52   S    
C55   C64   A    
C25   C33   A    
C61   H45   S    
C5    C14   A    
C36   C45   A    
C94   O13   A    
Cu1   O24   S    
C33   O61   S    
C19   C28   A    
C47   C56   A    
C38   C47   A    
C67   H20   S    
C94   O21   A    
C92   C101  S    
C42   C50   A    
C114  C123  S    
Cu3   O42   S    
C8    C126  A    
C7    C16   A    
C4    C43   A    
C98   O25   A    
C32   O60   S    
C45   C54   A    
C87   O40   A    
Cu5   O12   S    
C116  C125  S    
C25   H17   S    
C14   C22   A    
C89   O42   A    
C31   C35   A    
C90   O43   A    
C35   C79   A    
C50   C59   A    
C122  C124  T    
Cu3   Cu4   S    
Cu4   O43   S    
C115  C124  S    
Cu9   O64   S    
C95   C104  S    
H28   O46   S    
H38   O55   S    
C83   O37   A    
Cu12  O30   S    
C68   C77   A    
Cu7   O34   S    
C127  O46   S    
Cu6   O23   S    
H29   O47   S    
C70   C79   A    
C95   O22   A    
C29   O57   S    
C5    C44   A    
Cu11  O63   S    
C18   C27   A    
C26   C118  A    
C20   H13   S    
Cu10  O62   S    
C70   H24   S    
C93   C102  S    
Cu2   O39   S    
Cu8   O19   S    
C71   C80   A    
C9    H2    S    
H33   O51   S    
C6    O51   S    
C51   C60   A    
C99   O26   A    
C107  O63   A    
Cu9   O15   S    
C21   C30   A    
C14   H6    S    
Cu10  O21   S    
Cu12  O38   S    
C8    C17   A    
C98   C106  S    
C62   H46   S    
C106  C115  T    
C16   H8    S    
C23   C32   A    
C108  C116  T    
Cu2   O36   S    
C112  C121  S    
C92   O19   A    
C41   O12   A    
C34   C78   A    
C56   H1    S    
C15   H7    S    
C82   O27   A    
Cu3   O41   S    
C40   C49   A    
Cu7   O25   S    
C60   C69   A    
C43   C51   A    
C66   C75   A    
Cu6   O8    S    
C104  C113  T    
C41   C48   S    
C62   C71   A    
C88   O41   A    
C10   H3    S    
C64   C72   A    
H36   O53   S    
C64   H47   S    
C3    C11   A    
Cu11  O20   S    
C75   C89   S    
Cu7   O7    S    
C22   H15   S    
C38   C118  A    
C58   C67   A    
C90   O35   A    
Cu1   Cu9   S    
C7    O52   S    
C77   C87   S    
Cu6   O26   S    
Cu5   O5    S    
C72   H26   S    
C71   H25   S    
C55   C107  S    
C24   C77   A    
C54   C62   A    
Cu3   O35   S    
C67   C76   A    
H41   O59   S    
Cu4   O32   S    
C37   C46   A    
C34   C43   A    
C93   O20   A    
Cu1   O9    S    
C2    C75   A    
C56   C65   A    
C1    O1    A    
C39   C48   A    
H32   O50   S    
