data_mof_unit_59844.cif
_audit_creation_date              2012-10-26T18:56:19-0400
_audit_creation_method            fapswitch 2.2
_symmetry_space_group_name_H-M    P1
_symmetry_Int_Tables_number       1
_space_group_crystal_system       triclinic
_cell_length_a                    10.631187
_cell_length_b                    10.644875
_cell_length_c                    9.439739
_cell_angle_alpha                 89.751684
_cell_angle_beta                  90.127568
_cell_angle_gamma                 89.901043
_cell_volume                      1068.25885101

loop_
_atom_site_label
_atom_site_type_symbol
_atom_type_description
_atom_site_fract_x
_atom_site_fract_y
_atom_site_fract_z
_atom_type_partial_charge
C1    C     C_R   0.501106 0.259846 0.500225 0.568372
C2    C     C_3   0.386169 0.512401 0.050273 -0.024023
C3    C     C_R   0.259695 0.502481 0.499735 0.574699
C4    C     C_R   0.740305 0.497520 0.500265 0.574791
C5    C     C_3   0.042330 0.520993 0.632495 -0.121495
C6    C     C_3   0.957670 0.479011 0.367506 -0.121492
C7    C     C_3   0.962653 0.407816 0.585486 0.048895
C8    C     C_3   0.037346 0.592189 0.414514 0.048857
C9    C     C_3   0.876968 0.496494 0.501062 0.004774
C10   C     C_3   0.123032 0.503510 0.498938 0.004751
C11   C     C_3   0.955045 0.610703 0.547031 -0.143962
C12   C     C_R   0.498893 0.740153 0.499775 0.568264
C13   C     C_3   0.044954 0.389301 0.452970 -0.143937
C14   C     C_3   0.527659 0.039396 0.628626 0.232429
C15   C     C_3   0.472332 0.960604 0.371375 0.232458
C16   C     C_3   0.615421 0.955973 0.539037 -0.190011
C17   C     C_3   0.384569 0.044026 0.460964 -0.189904
C18   C     C_3   0.498746 0.876461 0.499874 -0.007754
C19   C     C_3   0.501247 0.123538 0.500128 -0.007724
C20   C     C_2   0.926630 0.303187 0.684203 0.566447
C21   C     C_2   0.073364 0.696819 0.315795 0.566494
C22   C     C_2   0.315415 0.912645 0.694443 0.621047
C23   C     C_3   0.412646 0.959321 0.591354 -0.020076
C24   C     C_2   0.684578 0.087366 0.305568 0.621113
C25   C     C_3   0.587344 0.040678 0.408648 -0.020082
C26   C     C_3   0.565543 0.589921 0.048660 0.325341
C27   C     C_3   0.434457 0.410080 0.951340 0.325344
C28   C     C_3   0.453382 0.604454 0.948482 -0.019103
C29   C     C_3   0.546618 0.395545 0.051517 -0.019138
C30   C     C_3   0.613831 0.487599 0.949726 -0.024053
Cu1   Cu    Cu3+1 0.500030 0.499990 0.643150 1.063352
Cu2   Cu    Cu3+1 0.499970 0.500010 0.356850 1.063350
H1    H     H_    0.078620 0.538063 0.741119 0.168050
H2    H     H_    0.290541 0.520739 0.096258 0.148148
H3    H     H_    0.788774 0.205614 0.780759 0.369118
H4    H     H_    0.211210 0.794370 0.219195 0.369136
H5    H     H_    0.580458 0.009519 0.820244 0.345288
H6    H     H_    0.419553 0.990482 0.179749 0.345326
H7    H     H_    0.219028 0.819699 0.544281 0.317312
H8    H     H_    0.781291 0.179800 0.455866 0.317339
H9    H     H_    0.667235 0.736872 0.024613 0.325330
H10   H     H_    0.332817 0.263091 0.975382 0.325372
H11   H     H_    0.921380 0.461941 0.258881 0.168023
H12   H     H_    0.916138 0.701362 0.585021 0.150261
H13   H     H_    0.083862 0.298642 0.414980 0.150263
H14   H     H_    0.708605 0.918706 0.572204 0.137225
H15   H     H_    0.291386 0.081293 0.427796 0.137262
H16   H     H_    0.415999 0.692498 0.900980 0.160920
H17   H     H_    0.584001 0.307503 0.099020 0.160995
H18   H     H_    0.709458 0.479260 0.903741 0.148131
N1    N     N_3   0.500090 0.499970 0.858290 -0.243152
N2    N     N_3   0.499910 0.500030 0.141710 -0.243161
O1    O     O_R   0.500060 0.316850 0.620870 -0.384051
O2    O     O_R   0.800171 0.277930 0.711802 -0.690307
O3    O     O_2   0.990897 0.759566 0.259153 -0.464565
O4    O     O_R   0.199820 0.722054 0.288154 -0.690328
O5    O     O_3   0.556265 0.084535 0.763829 -0.613815
O6    O     O_3   0.443726 0.915464 0.236172 -0.613833
O7    O     O_2   0.322995 0.941160 0.819211 -0.430229
O8    O     O_R   0.216054 0.836960 0.649531 -0.662548
O9    O     O_2   0.676840 0.059104 0.180737 -0.430444
O10   O     O_R   0.784115 0.162783 0.350558 -0.662480
O11   O     O_3   0.636904 0.687172 0.106694 -0.597755
O12   O     O_R   0.499940 0.683150 0.379130 -0.384064
O13   O     O_3   0.363096 0.312828 0.893305 -0.597718
O14   O     O_R   0.500000 0.316860 0.379090 -0.545787
O15   O     O_R   0.500000 0.683140 0.620910 -0.545797
O16   O     O_R   0.316880 0.499960 0.620870 -0.473827
O17   O     O_R   0.683120 0.500040 0.379130 -0.473843
O18   O     O_R   0.316830 0.499970 0.379090 -0.494625
O19   O     O_R   0.683170 0.500030 0.620910 -0.494621
O20   O     O_2   0.009093 0.240458 0.740878 -0.464570

loop_
_geom_bond_atom_site_label_1
_geom_bond_atom_site_label_2
_ccdc_geom_bond_type
C15   C18   S    
C30   N1    S    
C24   O9    D    
C27   C29   S    
C3    O16   A    
C6    C9    S    
C29   H17   S    
Cu1   O15   S    
C17   C23   S    
H4    O4    S    
C5    C11   S    
C22   O8    S    
C12   O12   A    
C28   N1    S    
C15   C25   S    
H8    O10   S    
C15   C17   S    
C1    O1    A    
Cu2   N2    S    
H6    O6    S    
C5    H1    S    
H10   O13   S    
C2    C27   S    
C2    H2    S    
Cu1   O19   S    
C30   H18   S    
H3    O2    S    
C4    O17   A    
C27   N1    S    
C8    C21   S    
C5    C7    S    
Cu1   O16   S    
C12   O15   A    
C1    C19   S    
C18   C23   S    
C3    O18   A    
C24   C25   S    
Cu2   O12   S    
C20   O2    S    
C16   H14   S    
C22   O7    D    
C21   O3    D    
Cu2   O18   S    
C14   C23   S    
C26   O11   S    
C29   C30   S    
C27   O13   S    
C26   N2    S    
Cu1   Cu2   S    
C1    O14   A    
C11   H12   S    
Cu1   O1    S    
C9    C11   S    
C2    N2    S    
C8    C10   S    
C26   C30   S    
C6    H11   S    
C15   O6    S    
C14   C16   S    
H9    O11   S    
Cu2   O14   S    
C16   C25   S    
C7    C9    S    
C14   O5    S    
C28   H16   S    
C24   O10   S    
C14   C19   S    
C17   H15   S    
Cu1   N1    S    
C10   C13   S    
C21   O4    S    
C6    C8    S    
Cu2   O17   S    
C26   C28   S    
C5    C10   S    
C3    C10   S    
C6    C13   S    
C13   H13   S    
C8    C11   S    
H7    O8    S    
C17   C19   S    
C19   C25   S    
C7    C13   S    
C16   C18   S    
C7    C20   S    
C12   C18   S    
C22   C23   S    
C20   O20   D    
C2    C28   S    
C4    C9    S    
C4    O19   A    
H5    O5    S    
C29   N2    S    
