data_mof_unit_52633.cif
_audit_creation_date              2012-12-10T20:30:15-0500
_audit_creation_method            fapswitch 2.2
_symmetry_space_group_name_H-M    P1
_symmetry_Int_Tables_number       1
_space_group_crystal_system       triclinic
_cell_length_a                    9.922041
_cell_length_b                    10.612763
_cell_length_c                    13.00578
_cell_angle_alpha                 89.647211
_cell_angle_beta                  71.412106
_cell_angle_gamma                 88.983028
_cell_volume                      1297.8679593

loop_
_atom_site_label
_atom_site_type_symbol
_atom_type_description
_atom_site_fract_x
_atom_site_fract_y
_atom_site_fract_z
_atom_type_partial_charge
C1    C     C_R   0.499993 0.739394 0.497714 0.886898
C2    C     C_R   0.388564 0.417091 0.808997 -0.167069
C3    C     C_R   0.391818 0.936765 0.565833 0.120468
C4    C     C_R   0.425267 0.474807 0.700123 0.893488
C5    C     C_R   0.500119 0.871377 0.489513 -0.225193
C6    C     C_R   0.604852 0.935716 0.406908 0.454748
C7    C     C_R   0.606484 0.066082 0.412482 -0.173815
C8    C     C_R   0.503297 0.128852 0.496174 -0.193761
C9    C     C_R   0.391513 0.065231 0.568013 0.162670
C10   C     C_3   0.342730 0.069302 0.689234 -0.459114
C11   C     C_3   0.345156 0.926628 0.686747 -0.417114
C12   C     C_R   0.454178 0.394800 0.971937 0.038973
C13   C     C_R   0.892299 0.550952 0.584501 0.101549
C14   C     C_R   0.961974 0.438342 0.422071 -0.069611
C15   C     C_R   0.105455 0.437716 0.422400 -0.033233
C16   C     C_R   0.501042 0.260591 0.500014 0.858287
C17   C     C_R   0.034284 0.554207 0.583364 0.061737
C18   C     C_3   0.015457 0.688714 0.625554 -0.235006
C19   C     C_3   0.858857 0.680856 0.630596 0.148702
C20   C     C_R   0.577856 0.499749 0.295702 0.844077
C21   C     C_R   0.804013 0.476977 0.003010 -0.126320
C22   C     C_R   0.623075 0.485780 0.178315 -0.061714
C23   C     C_R   0.495384 0.393723 0.858358 -0.059920
C24   C     C_R   0.247612 0.386814 0.866733 -0.198696
C25   C     C_R   0.211380 0.350525 0.975850 0.020323
C26   C     C_R   0.311731 0.364883 0.030289 -0.212437
C27   C     C_2   0.028257 0.702496 0.737777 0.827118
C28   C     C_2   0.095465 0.788318 0.546071 0.981498
C29   C     C_2   0.070367 0.296564 0.032073 0.884478
C30   C     C_R   0.557981 0.425124 0.021054 0.078548
C31   C     C_R   0.702548 0.436862 0.956603 0.066675
C32   C     C_R   0.744264 0.403123 0.847674 -0.229201
C33   C     C_R   0.642214 0.372781 0.799918 0.439732
C34   C     C_R   0.520635 0.452001 0.131139 -0.221032
C35   C     C_R   0.764826 0.499831 0.114017 -0.161986
H1    H     H_    0.844894 0.527444 0.149471 0.174140
H2    H     H_    0.856065 0.396647 0.800407 0.186616
H3    H     H_    0.913896 0.488459 0.953729 0.177827
H4    H     H_    0.410930 0.448516 0.181324 0.157527
H5    H     H_    0.167176 0.389475 0.826677 0.208349
H6    H     H_    0.279529 0.343944 0.115970 0.156468
H7    H     H_    0.982489 0.807590 0.873710 0.348968
H8    H     H_    0.209629 0.833467 0.392328 0.341800
H9    H     H_    0.871766 0.749536 0.486434 0.367698
H10   H     H_    0.898289 0.208220 0.018625 0.361703
H11   H     H_    0.607285 0.265610 0.692459 0.327753
H12   H     H_    0.687630 0.118112 0.352180 0.186590
H13   H     H_    0.680266 0.788092 0.317072 0.326361
H14   H     H_    0.422854 0.109177 0.722689 0.188242
H15   H     H_    0.233849 0.110723 0.723026 0.243486
H16   H     H_    0.428166 0.883425 0.717193 0.210268
H17   H     H_    0.238124 0.885645 0.720674 0.244876
H18   H     H_    0.935907 0.390564 0.357822 0.175027
H19   H     H_    0.186689 0.389055 0.358548 0.134423
H20   H     H_    0.780658 0.679047 0.713800 0.155905
N1    N     N_R   0.856940 0.500860 0.500710 -0.085437
N2    N     N_R   0.142580 0.500820 0.500710 -0.075532
O1    O     O_R   0.385310 0.683210 0.499990 -0.593129
O2    O     O_R   0.968579 0.808747 0.799786 -0.753898
O3    O     O_2   0.089597 0.898066 0.575506 -0.577813
O4    O     O_R   0.163772 0.757883 0.437107 -0.793535
O5    O     O_3   0.818256 0.768453 0.563523 -0.677561
O6    O     O_2   0.024222 0.294336 0.131216 -0.653969
O7    O     O_R   0.991789 0.243939 0.971368 -0.808453
O8    O     O_3   0.688597 0.312177 0.701142 -0.712820
O9    O     O_3   0.707428 0.876418 0.322586 -0.741366
O10   O     O_R   0.614650 0.683240 0.500000 -0.565384
O11   O     O_R   0.328390 0.499940 0.653610 -0.572860
O12   O     O_R   0.557730 0.499980 0.653620 -0.587932
O13   O     O_R   0.385350 0.316760 0.500000 -0.615213
O14   O     O_R   0.614690 0.316790 0.500010 -0.593675
O15   O     O_R   0.442270 0.500020 0.346380 -0.612590
O16   O     O_R   0.671610 0.500060 0.346390 -0.624027
O17   O     O_2   0.087550 0.621020 0.775270 -0.652439
Zn1   Zn    Zn3+2 0.346870 0.499980 0.499990 0.995551
Zn2   Zn    Zn3+2 0.653130 0.500020 0.500010 1.003307

loop_
_geom_bond_atom_site_label_1
_geom_bond_atom_site_label_2
_ccdc_geom_bond_type
C14   N1    A    
C29   O6    D    
N1    Zn2   S    
C35   H1    S    
C3    C11   S    
C33   O8    S    
C7    C8    A    
O11   Zn1   S    
C22   C35   A    
C21   C31   A    
C12   C23   A    
C1    C5    S    
O14   Zn2   S    
C19   O5    S    
O12   Zn2   S    
C18   C19   S    
C11   H17   S    
C1    O10   A    
C21   H3    S    
C8    C9    A    
C23   C33   A    
C27   O17   D    
C9    C10   S    
C13   N1    A    
C28   O4    S    
C29   O7    S    
C8    C16   S    
C15   N2    A    
C16   O14   A    
O15   Zn1   S    
C4    O12   A    
O1    Zn1   S    
C28   O3    D    
C25   C29   S    
C22   C34   A    
C30   C34   A    
C34   H4    S    
C15   H19   S    
C18   C28   S    
C24   C25   A    
H11   O8    S    
C4    O11   A    
C13   C19   S    
H9    O5    S    
C25   C26   A    
C12   C26   A    
C7    H12   S    
C2    C4    S    
C3    C9    A    
C31   C32   A    
C30   C31   A    
C17   C18   S    
C16   O13   A    
C32   H2    S    
C20   C22   S    
C2    C24   A    
O16   Zn2   S    
C10   H15   S    
O13   Zn1   S    
H8    O4    S    
C19   H20   S    
C12   C30   A    
C18   C27   S    
C3    C5    A    
H7    O2    S    
C6    C7    A    
C21   C35   A    
H10   O7    S    
C13   C17   A    
C32   C33   A    
N2    Zn1   S    
C27   O2    S    
C1    O1    A    
C5    C6    A    
C24   H5    S    
C20   O16   A    
C11   H16   S    
C10   C11   S    
C6    O9    S    
C14   H18   S    
C2    C23   A    
C14   C15   A    
C20   O15   A    
O10   Zn2   S    
H13   O9    S    
C10   H14   S    
C26   H6    S    
C17   N2    A    
