data_mof_unit_54688.cif
_audit_creation_date              2013-03-05T15:40:44-0500
_audit_creation_method            fapswitch 2.2
_symmetry_space_group_name_H-M    P1
_symmetry_Int_Tables_number       1
_space_group_crystal_system       triclinic
_cell_length_a                    6.92692
_cell_length_b                    17.283393
_cell_length_c                    24.135741
_cell_angle_alpha                 104.754679
_cell_angle_beta                  90.229367
_cell_angle_gamma                 89.99789
_cell_volume                      2794.24109967

loop_
_atom_site_label
_atom_site_type_symbol
_atom_site_description
_atom_site_fract_x
_atom_site_fract_y
_atom_site_fract_z
_atom_type_partial_charge
O1    O     O_R   0.494290 0.391990 0.999150 -0.541720
O2    O     O_R   0.827170 0.534410 0.082350 -0.540518
O3    O     O_R   0.994360 0.608010 0.000850 -0.566512
C1    C     C_R   0.657843 0.547246 0.106153 0.882505
O4    O     O_R   0.824210 0.388010 0.004470 -0.561040
O5    O     O_R   0.991370 0.460560 0.922410 -0.565930
C2    C     C_R   0.654515 0.354896 0.001497 0.888922
O6    O     O_R   0.497270 0.539440 0.077590 -0.531542
O7    O     O_3   0.659770 0.523970 0.973170 -0.300010
V1    V     V_3+5 0.935840 0.495550 0.004980 1.175928
O8    O     O_R   0.320910 0.465590 0.917650 -0.571766
C3    C     C_R   0.151847 0.451624 0.894170 0.818270
O9    O     O_R   0.323870 0.611990 0.995530 -0.572932
C4    C     C_R   0.154371 0.645105 0.998476 0.852878
V2    V     V_3+5 0.435470 0.504450 0.995020 1.160925
O10   O     O_3   0.161670 0.476030 0.026830 -0.230494
C5    C     C_2   0.142715 0.730370 0.998398 -0.260018
H1    H     H_    0.277351 0.761654 0.996170 0.094364
C6    C     C_2   0.972484 0.769485 0.001295 -0.254578
H2    H     H_    0.837763 0.738205 0.003468 0.094111
C7    C     C_R   0.916737 0.308926 0.624540 0.570711
N1    N     N_R   0.083445 0.347355 0.647981 -0.447777
C8    C     C_R   0.232528 0.357606 0.612886 0.561671
C9    C     C_R   0.216478 0.329659 0.552788 -0.032831
C10   C     C_R   0.050967 0.286465 0.528934 -0.046027
C11   C     C_R   0.900304 0.275385 0.565037 -0.026255
C12   C     C_R   0.363320 0.342700 0.516078 -0.094029
C13   C     C_R   0.347174 0.312111 0.456720 -0.069983
C14   C     C_R   0.184954 0.266730 0.432574 -0.024956
C15   C     C_R   0.036502 0.253880 0.468859 -0.046366
C16   C     C_R   0.874121 0.208102 0.445270 -0.027863
C17   C     C_R   0.725279 0.196700 0.481862 -0.089861
C18   C     C_R   0.737296 0.230606 0.540906 -0.071467
C19   C     C_R   0.167334 0.233912 0.372962 0.577748
N2    N     N_R   0.010304 0.187562 0.350379 -0.447102
C20   C     C_R   0.865371 0.174154 0.385654 0.560767
O11   O     O_2   0.765965 0.303377 0.658540 -0.529622
O12   O     O_2   0.398028 0.393133 0.635791 -0.531152
H3    H     H_    0.491743 0.376347 0.533073 0.123748
H4    H     H_    0.463772 0.323128 0.429937 0.134544
O13   O     O_2   0.305591 0.249086 0.337931 -0.541767
O14   O     O_2   0.714153 0.127082 0.363406 -0.556997
H5    H     H_    0.598095 0.162067 0.464987 0.124806
H6    H     H_    0.619025 0.220936 0.567600 0.134217
C21   C     C_R   0.150378 0.106040 0.259437 -0.011833
H7    H     H_    0.278115 0.095422 0.282431 0.120428
C22   C     C_R   0.139746 0.073224 0.200088 -0.126699
H8    H     H_    0.260543 0.038634 0.178533 0.096650
C23   C     C_R   0.973978 0.084015 0.169067 -0.098067
C24   C     C_R   0.819913 0.129032 0.198698 -0.119283
H9    H     H_    0.691084 0.139110 0.175934 0.102183
C25   C     C_R   0.832730 0.163649 0.257778 0.001858
H10   H     H_    0.714057 0.199801 0.279209 0.137771
C26   C     C_R   0.997765 0.152321 0.288991 0.255469
C27   C     C_R   0.171002 0.452256 0.736681 -0.002864
H11   H     H_    0.205870 0.493208 0.710866 0.123949
C28   C     C_R   0.196615 0.477160 0.796505 -0.063424
C29   C     C_R   0.141212 0.425880 0.830943 -0.100810
C30   C     C_R   0.071237 0.349284 0.804577 -0.136104
H12   H     H_    0.030382 0.308911 0.830286 0.071111
C31   C     C_R   0.057864 0.323184 0.744919 -0.000982
H13   H     H_    0.010633 0.262503 0.725852 0.105445
C32   C     C_R   0.103645 0.374617 0.710040 0.247569
C33   C     C_R   0.491054 0.872653 0.613049 0.554389
N3    N     N_R   0.477838 0.821094 0.647792 -0.441480
C34   C     C_R   0.481741 0.739714 0.624921 0.558098
C35   C     C_R   0.504190 0.707495 0.565475 -0.032579
C36   C     C_R   0.520059 0.759768 0.529492 -0.044025
C37   C     C_R   0.511624 0.843042 0.553258 -0.030181
C38   C     C_R   0.513056 0.624433 0.541288 -0.072869
C39   C     C_R   0.538925 0.593817 0.482321 -0.071101
C40   C     C_R   0.555618 0.645463 0.445976 -0.032169
C41   C     C_R   0.545396 0.728698 0.469642 -0.044523
C42   C     C_R   0.560974 0.780935 0.433619 -0.030544
C43   C     C_R   0.551005 0.863977 0.457789 -0.071152
C44   C     C_R   0.527002 0.894632 0.516845 -0.073724
C45   C     C_R   0.582242 0.615920 0.386440 0.561635
N4    N     N_R   0.595034 0.667387 0.351565 -0.442094
C46   C     C_R   0.584849 0.748706 0.374184 0.553257
O15   O     O_2   0.488146 0.952377 0.636271 -0.558282
O16   O     O_2   0.464065 0.689968 0.659573 -0.544521
H14   H     H_    0.501150 0.582742 0.567867 0.134664
H15   H     H_    0.545665 0.529510 0.465350 0.124161
O17   O     O_2   0.596518 0.536296 0.363715 -0.535584
O18   O     O_2   0.595045 0.798360 0.339280 -0.555958
H16   H     H_    0.562319 0.905646 0.431184 0.135199
H17   H     H_    0.521022 0.958935 0.533855 0.126128
C47   C     C_R   0.774275 0.653697 0.260691 0.001442
H18   H     H_    0.887345 0.692037 0.283827 0.099070
C48   C     C_R   0.789662 0.623290 0.201230 -0.125380
H19   H     H_    0.913174 0.640209 0.179530 0.114983
C49   C     C_R   0.645373 0.573255 0.169841 -0.171944
C50   C     C_R   0.485855 0.552050 0.199866 0.292860
C51   C     C_R   0.470075 0.584820 0.259309 -0.058051
H20   H     H_    0.347265 0.569537 0.282085 0.132213
C52   C     C_R   0.613348 0.635391 0.290172 0.214418
C53   C     C_R   0.621889 0.835851 0.743492 -0.047204
H21   H     H_    0.741236 0.798881 0.723270 0.118341
C54   C     C_R   0.622252 0.866812 0.803191 0.308403
C55   C     C_R   0.467259 0.915927 0.830304 -0.197979
C56   C     C_R   0.316327 0.932186 0.795564 -0.134394
H22   H     H_    0.196799 0.969946 0.814511 0.145004
C57   C     C_R   0.318468 0.901047 0.735931 -0.009252
H23   H     H_    0.200605 0.914589 0.710341 0.101102
C58   C     C_R   0.471604 0.852647 0.709413 0.214250
C59   C     C_2   0.642817 0.269747 0.001958 -0.233616
H24   H     H_    0.777305 0.238865 0.005306 0.099939
C60   C     C_2   0.472650 0.230279 0.998061 -0.230798
H25   H     H_    0.338158 0.261174 0.994737 0.108230
O19   O     O_R   0.618210 0.960470 0.922400 -0.512605
O20   O     O_R   0.291310 0.111960 0.995450 -0.565992
O21   O     O_R   0.124210 0.039530 0.077580 -0.561284
C61   C     C_R   0.460988 0.145096 0.998455 0.852755
O22   O     O_R   0.288310 0.965490 0.917650 -0.535990
O23   O     O_R   0.121180 0.892010 0.999220 -0.559203
C62   C     C_R   0.457228 0.948529 0.893925 0.837007
O24   O     O_R   0.621230 0.107990 0.000760 -0.561854
O25   O     O_3   0.455770 0.976060 0.026840 -0.289073
V3    V     V_3+5 0.179680 0.004440 0.995020 1.172367
O26   O     O_R   0.791670 0.888040 0.004570 -0.561922
C63   C     C_R   0.961067 0.854803 0.001307 0.899030
O27   O     O_R   0.794680 0.034510 0.082370 -0.567888
C64   C     C_R   0.963733 0.050680 0.105963 0.823242
V4    V     V_3+5 0.680070 0.995560 0.005010 1.168079
O28   O     O_3   0.953840 0.023940 0.973160 -0.245599
C65   C     C_R   0.282925 0.556459 0.822261 0.004995
C66   C     C_R   0.475619 0.562046 0.841304 0.002310
C67   C     C_R   0.555097 0.636444 0.868477 0.009231
C68   C     C_R   0.443658 0.705723 0.876062 -0.049037
C69   C     C_R   0.253394 0.700802 0.856031 -0.068580
C70   C     C_R   0.172552 0.626357 0.829252 -0.057696
H26   H     H_    0.563023 0.508669 0.835911 0.081921
H27   H     H_    0.702641 0.640332 0.883937 0.077499
H28   H     H_    0.504342 0.763254 0.897656 0.092429
H29   H     H_    0.168476 0.754768 0.862077 0.154452
H30   H     H_    0.023903 0.622971 0.814745 0.115908
N5    N     N_R   0.343849 0.494737 0.171460 0.101399
O29   O     O_R   0.397881 0.428509 0.135728 -0.349091
O30   O     O_R   0.165075 0.501974 0.188344 -0.361235
N6    N     N_R   0.778558 0.845114 0.835134 0.067435
O31   O     O_R   0.910558 0.897842 0.856524 -0.368256
O32   O     O_R   0.818042 0.769768 0.828444 -0.430509

loop_
_geom_bond_atom_site_label_1
_geom_bond_atom_site_label_2
_geom_bond_distance
_ccdc_geom_bond_type
C27   H11   1.083211 S    
C47   C52   1.403590 A    
C65   C66   1.405237 A    
O23   C63   1.289629 A    
C41   C42   1.408292 A    
C20   O14   1.349250 S    
N2    C20   1.376149 A    
C55   C62   1.496785 S    
C9    C12   1.406916 A    
C1    O6    1.295034 A    
C67   C68   1.397328 A    
C53   H21   1.083642 S    
C28   C29   1.414734 A    
C22   C23   1.406444 A    
C45   N4    1.374611 A    
O26   C63   1.300269 A    
N5    O30   1.301263 A    
C56   H22   1.082370 S    
C13   C14   1.406942 A    
O24   V4    2.013380 S    
N6    O32   1.299978 A    
O5    C3    1.294814 A    
C15   C16   1.407403 A    
C59   H24   1.086555 S    
C13   H4    1.083203 S    
V2    O10   2.152115 S    
C23   C64   1.486219 S    
C60   H25   1.086577 S    
C37   C44   1.406661 A    
O20   V3    2.010362 S    
C19   N2    1.376564 A    
C31   C32   1.408114 A    
O25   V3    2.160544 S    
C49   C50   1.422022 A    
C43   H16   1.083089 S    
C40   C45   1.409938 A    
O19   V4    1.975885 S    
N1    C32   1.457383 S    
C66   H26   1.083515 S    
O8    V2    1.979205 S    
C22   H8    1.083157 S    
N4    C52   1.449715 S    
C36   C37   1.408424 A    
C27   C32   1.410627 A    
C24   C25   1.401263 A    
C8    C9    1.411208 A    
C38   C39   1.398586 A    
O1    V2    2.013004 S    
O7    V1    2.160543 S    
O22   V3    1.969111 S    
C3    C29   1.478316 S    
C34   C35   1.409849 A    
C30   H12   1.083491 S    
C56   C57   1.402515 A    
O9    C4    1.300403 A    
N2    C26   1.453658 S    
C33   O15   1.349016 S    
C4    C5    1.476354 S    
C31   H13   1.082461 S    
C19   O13   1.349163 S    
N3    C58   1.448651 S    
C53   C54   1.403460 A    
C7    C11   1.409319 A    
C25   C26   1.407463 A    
C24   H9    1.083222 S    
C39   H15   1.083289 S    
C21   C22   1.401536 A    
C30   C31   1.397663 A    
C42   C43   1.406723 A    
C35   C36   1.408170 A    
C9    C10   1.406794 A    
O21   C64   1.296514 A    
C57   C58   1.402593 A    
C70   H30   1.083025 S    
C12   H3    1.083233 S    
C28   C65   1.478311 S    
O4    C2    1.301104 A    
N4    C46   1.373987 A    
C45   O17   1.349236 S    
C36   C41   1.418717 A    
C21   H7    1.082838 S    
C14   C19   1.410550 A    
C60   C61   1.476917 S    
O2    C1    1.302091 A    
C43   C44   1.399003 A    
C14   C15   1.407128 A    
C11   C18   1.406542 A    
C48   C49   1.407493 A    
C16   C17   1.406338 A    
C5    H1    1.086401 S    
C2    C59   1.476765 S    
O20   C61   1.301119 A    
C50   C51   1.406565 A    
O25   V4    1.703597 S    
C33   C37   1.410740 A    
N6    O31   1.299885 A    
C51   C52   1.402246 A    
C44   H17   1.083108 S    
O3    C4    1.289231 A    
C61   O24   1.289987 A    
V3    O28   1.709723 S    
C69   H29   1.081014 S    
C47   C48   1.401487 A    
C21   C26   1.407665 A    
C23   C24   1.406550 A    
O6    V2    1.974815 S    
O23   V3    2.012740 S    
C42   C46   1.410782 A    
O9    V2    2.010139 S    
C54   N6    1.431040 S    
C29   C30   1.400325 A    
O27   V4    1.979293 S    
C66   C67   1.397939 A    
O2    V1    1.969063 S    
O19   C62   1.296157 A    
C46   O18   1.349035 S    
C25   H10   1.082802 S    
C68   C69   1.397103 A    
C10   C15   1.418614 A    
C6    C63   1.476638 S    
O1    C2    1.289949 A    
C18   H6    1.083189 S    
N1    C8    1.377953 A    
C40   C41   1.408028 A    
O5    V1    1.969142 S    
O21   V3    1.968919 S    
O22   C62   1.304893 A    
O8    C3    1.294565 A    
C8    O12   1.348691 S    
N5    O29   1.301472 A    
C54   C55   1.422712 A    
C35   C38   1.406739 A    
C17   C18   1.398148 A    
C6    H2    1.086628 S    
C27   C28   1.408192 A    
C69   C70   1.400136 A    
C10   C11   1.406218 A    
C53   C58   1.399731 A    
O4    V1    2.010236 S    
O3    V1    2.012776 S    
V1    O10   1.709668 S    
C67   H27   1.082802 S    
C33   N3    1.373658 A    
C34   O16   1.349369 S    
C48   H19   1.083246 S    
C59   C60   1.352804 D    
C65   C70   1.403425 A    
C55   C56   1.409972 A    
C5    C6    1.352365 D    
C17   H5    1.083195 S    
O7    V2    1.703868 S    
C51   H20   1.083225 S    
C38   H14   1.083246 S    
C50   N5    1.437920 S    
C68   H28   1.082284 S    
C39   C40   1.406888 A    
C7    O11   1.349171 S    
C47   H18   1.082786 S    
N3    C34   1.374175 A    
C57   H23   1.082769 S    
C16   C20   1.409824 A    
C1    C49   1.490475 S    
O27   C64   1.298949 A    
C7    N1    1.377738 A    
O26   V4    2.010208 S    
V4    O28   2.152115 S    
C12   C13   1.399067 A    
