data_mof_unit_47576.cif
_audit_creation_date              2012-12-10T17:15:09-0500
_audit_creation_method            fapswitch 2.2
_symmetry_space_group_name_H-M    P1
_symmetry_Int_Tables_number       1
_space_group_crystal_system       triclinic
_cell_length_a                    10.146861
_cell_length_b                    10.781936
_cell_length_c                    12.781667
_cell_angle_alpha                 91.541656
_cell_angle_beta                  90.717314
_cell_angle_gamma                 95.060926
_cell_volume                      1392.2387777

loop_
_atom_site_label
_atom_site_type_symbol
_atom_type_description
_atom_site_fract_x
_atom_site_fract_y
_atom_site_fract_z
_atom_type_partial_charge
C1    C     C_R   0.445783 0.267360 0.489694 0.908618
C2    C     C_R   0.606847 0.364313 0.042615 0.017663
C3    C     C_R   0.359536 0.567838 0.853396 -0.300309
C4    C     C_R   0.613120 0.393366 0.149101 -0.315101
C5    C     C_R   0.516925 0.411098 0.868022 0.482875
C6    C     C_R   0.466136 0.556796 0.127695 0.464076
C7    C     C_R   0.521816 0.428635 0.977374 -0.084112
C8    C     C_R   0.443788 0.520370 0.022894 -0.099060
C9    C     C_2   0.417305 0.134999 0.473151 -0.361754
C10   C     C_2   0.588634 0.864407 0.494235 -0.360098
C11   C     C_2   0.518848 0.065676 0.462399 -0.166063
C12   C     C_R   0.555482 0.732510 0.503313 0.939122
C13   C     C_2   0.495473 0.932991 0.459077 -0.162053
C14   C     C_3   0.511198 0.762343 0.169485 -0.291718
C15   C     C_3   0.500321 0.223441 0.781087 -0.335548
C16   C     C_2   0.240222 0.643342 0.005691 0.488283
C17   C     C_2   0.686649 0.262937 0.006523 0.480968
C18   C     C_3   0.911339 0.524428 0.304736 -0.246040
C19   C     C_3   0.114079 0.380441 0.650052 -0.236321
C20   C     C_2   0.069626 0.475355 0.495746 0.401342
C21   C     C_2   0.926897 0.498152 0.481002 0.420418
C22   C     C_R   0.472472 0.500709 0.698348 0.903728
C23   C     C_R   0.526663 0.496928 0.301538 0.914040
C24   C     C_R   0.541605 0.486295 0.190643 -0.180654
C25   C     C_R   0.448933 0.492784 0.808391 -0.195347
C26   C     C_R   0.350554 0.577667 0.961043 0.006033
H1    H     H_    0.669305 0.339084 0.200957 0.190936
H2    H     H_    0.467916 0.846322 0.201068 0.199905
H3    H     H_    0.544231 0.782223 0.088411 0.171738
H4    H     H_    0.432902 0.251757 0.718713 0.152231
H5    H     H_    0.441305 0.180806 0.845898 0.148575
H6    H     H_    0.558707 0.150719 0.746536 0.206621
H7    H     H_    0.202942 0.621236 0.082753 0.107754
H8    H     H_    0.645499 0.189548 0.953365 0.096885
H9    H     H_    0.874243 0.424075 0.298219 0.168747
H10   H     H_    0.017602 0.536142 0.284349 0.143955
H11   H     H_    0.856661 0.574143 0.245559 0.198756
H12   H     H_    0.298210 0.620399 0.804148 0.212722
H13   H     H_    0.031612 0.324831 0.687747 0.153118
H14   H     H_    0.117916 0.478744 0.680487 0.144980
H15   H     H_    0.205487 0.340173 0.675843 0.190841
H16   H     H_    0.397125 0.892317 0.435862 0.198751
H17   H     H_    0.621062 0.105997 0.464701 0.197095
H18   H     H_    0.686633 0.905654 0.517541 0.163652
H19   H     H_    0.315379 0.094143 0.471219 0.171870
H20   H     H_    0.864331 0.390049 0.598581 0.152895
H21   H     H_    0.135800 0.632534 0.427576 0.155751
H22   H     H_    0.597330 0.746109 0.220529 0.159334
N1    N     N_2   0.162330 0.550370 0.457540 -0.222160
N2    N     N_2   0.837670 0.449630 0.542460 -0.215428
O1    O     O_R   0.567930 0.307680 0.508550 -0.618016
O2    O     O_3   0.588805 0.324226 0.818022 -0.614973
O3    O     O_2   0.187134 0.720606 0.955675 -0.582802
O4    O     O_2   0.799235 0.257807 0.040042 -0.580214
O5    O     O_3   0.888994 0.577276 0.404641 -0.595758
O6    O     O_3   0.101781 0.365697 0.539909 -0.596938
O7    O     O_R   0.432070 0.692320 0.491450 -0.616614
O8    O     O_R   0.351090 0.340020 0.481290 -0.554614
O9    O     O_R   0.648910 0.659980 0.518710 -0.572460
O10   O     O_R   0.590490 0.486480 0.665020 -0.557029
O11   O     O_R   0.409510 0.513520 0.334980 -0.572662
O12   O     O_R   0.373660 0.518820 0.637760 -0.639662
O13   O     O_R   0.626340 0.481180 0.362240 -0.599194
O14   O     O_3   0.413482 0.660913 0.170288 -0.633705
Zn1   Zn    Zn3+2 0.644780 0.478400 0.518200 1.005222
Zn2   Zn    Zn3+2 0.355220 0.521600 0.481800 0.986907

loop_
_geom_bond_atom_site_label_1
_geom_bond_atom_site_label_2
_ccdc_geom_bond_type
C19   O6    S    
C2    C4    A    
C23   C24   S    
O13   Zn1   S    
C5    O2    S    
C11   H17   S    
C20   N1    D    
C16   H7    S    
C22   O12   A    
C8    C26   A    
C18   H9    S    
H20   N2    S    
C2    C7    A    
C23   O11   A    
O7    Zn2   S    
C20   O6    S    
C6    C24   A    
C23   O13   A    
C14   O14   S    
C15   H6    S    
H21   N1    S    
C10   C13   D    
C1    O8    A    
O9    Zn1   S    
C2    C17   S    
C16   C26   S    
C1    O1    A    
C17   H8    S    
C19   H13   S    
C18   O5    S    
C5    C25   A    
C12   O7    A    
C10   C12   S    
C13   H16   S    
C18   H11   S    
O10   Zn1   S    
C9    C11   D    
C22   O10   A    
C4    C24   A    
N2    Zn1   S    
C11   C13   S    
C7    C8    A    
C19   H14   S    
O12   Zn2   S    
C14   H3    S    
C10   H18   S    
C9    H19   S    
C3    C25   A    
C4    H1    S    
C1    C9    S    
C20   C21   S    
C15   H5    S    
C15   H4    S    
C21   O5    S    
O1    Zn1   S    
C6    O14   S    
C5    C7    A    
C14   H22   S    
C16   O3    D    
C21   N2    D    
C6    C8    A    
O11   Zn2   S    
C14   H2    S    
C15   O2    S    
C12   O9    A    
C18   H10   S    
C17   O4    D    
O8    Zn2   S    
C3    C26   A    
C19   H15   S    
C3    H12   S    
N1    Zn2   S    
C22   C25   S    
