data_mof_unit_14213.cif
_audit_creation_date              2012-12-10T17:56:46-0500
_audit_creation_method            fapswitch 2.2
_symmetry_space_group_name_H-M    P1
_symmetry_Int_Tables_number       1
_space_group_crystal_system       triclinic
_cell_length_a                    10.876747
_cell_length_b                    9.59535
_cell_length_c                    10.850219
_cell_angle_alpha                 91.240825
_cell_angle_beta                  92.634456
_cell_angle_gamma                 90.705646
_cell_volume                      1130.83353528

loop_
_atom_site_label
_atom_site_type_symbol
_atom_type_description
_atom_site_fract_x
_atom_site_fract_y
_atom_site_fract_z
_atom_type_partial_charge
C1    C     C_R   0.262282 0.499482 0.498504 0.853797
C2    C     C_R   0.737097 0.500849 0.490513 0.852919
C3    C     C_R   0.939392 0.626836 0.503122 0.192399
C4    C     C_R   0.064799 0.617776 0.530425 0.115684
C5    C     C_R   0.431222 0.072737 0.414332 0.001220
C6    C     C_R   0.570354 0.079843 0.583999 -0.033246
C7    C     C_R   0.429627 0.924546 0.413208 0.054240
C8    C     C_R   0.572140 0.932400 0.585753 0.122376
C9    C     C_R   0.507003 0.499082 0.262811 0.805059
C10   C     C_R   0.490512 0.502413 0.737325 0.835933
C11   C     C_R   0.604393 0.737249 0.126231 -0.208904
C12   C     C_R   0.486958 0.768332 0.896550 -0.111689
C13   C     C_R   0.602637 0.869005 0.073782 -0.038372
C14   C     C_R   0.532678 0.886877 0.962392 0.045592
C15   C     C_R   0.504318 0.633687 0.942517 0.075170
C16   C     C_R   0.542099 0.622626 0.067044 0.094890
C17   C     C_R   0.512727 0.498947 0.128624 -0.079423
C18   C     C_R   0.479028 0.509655 0.871929 -0.115378
C19   C     C_R   0.467573 0.382111 0.060595 -0.130079
C20   C     C_R   0.454890 0.386622 0.932994 -0.192575
C21   C     C_R   0.061490 0.386970 0.429299 -0.065116
C22   C     C_R   0.932602 0.383272 0.433670 -0.102427
C23   C     C_R   0.870798 0.503354 0.475543 -0.181164
C24   C     C_R   0.127988 0.499663 0.488399 -0.166131
Cu1   Cu    Cu3+1 0.500000 0.640660 0.500000 1.004368
Cu2   Cu    Cu3+1 0.500000 0.359340 0.500000 1.000280
H1    H     H_    0.441246 0.287508 0.105939 0.183684
H2    H     H_    0.422428 0.295326 0.881214 0.207622
H3    H     H_    0.656015 0.724629 0.212927 0.165204
H4    H     H_    0.431385 0.783235 0.813030 0.208041
H5    H     H_    0.376367 0.128672 0.346665 0.194182
H6    H     H_    0.626416 0.141629 0.650343 0.130136
N1    N     N_R   0.500000 0.852070 0.500000 -0.208008
N2    N     N_R   0.500000 0.147940 0.500000 -0.190114
O1    O     O_R   0.319640 0.618740 0.499990 -0.601449
O2    O     O_R   0.680360 0.618740 0.500010 -0.509995
O3    O     O_R   0.319620 0.381170 0.499990 -0.563807
O4    O     O_R   0.680380 0.381170 0.500010 -0.611452
O5    O     O_R   0.500000 0.618810 0.319650 -0.632245
O6    O     O_R   0.500000 0.618810 0.680350 -0.552331
O7    O     O_R   0.499970 0.381240 0.319640 -0.568860
O8    O     O_R   0.500030 0.381240 0.680360 -0.573201
C25   C     C_2   0.671053 0.983530 0.141338 0.384221
H7    H     H_    0.684439 0.980252 0.241018 0.100630
O9    O     O_2   0.719322 0.077882 0.086599 -0.498329
C26   C     C_2   0.502098 0.026398 0.915328 0.317780
H8    H     H_    0.541342 0.119129 0.959711 0.125489
O10   O     O_2   0.430118 0.039430 0.826685 -0.559724
C27   C     C_2   0.123618 0.274949 0.359520 0.490207
H9    H     H_    0.097381 0.166511 0.370130 0.091009
O11   O     O_2   0.199737 0.304122 0.284568 -0.536154
C28   C     C_2   0.863427 0.260662 0.379976 0.380305
H10   H     H_    0.817131 0.189192 0.439197 0.097634
O12   O     O_2   0.859027 0.238943 0.268666 -0.473479
I1    I     I_    0.873172 0.830897 0.460478 -0.345068
I2    I     I_    0.148268 0.779446 0.648377 -0.253130
C29   C     C_2   0.349442 0.853762 0.316034 0.384723
H11   H     H_    0.316591 0.748648 0.324371 0.152233
O13   O     O_2   0.316825 0.914751 0.222642 -0.552376
C30   C     C_2   0.656142 0.878890 0.686042 0.416533
H12   H     H_    0.691861 0.951004 0.757844 0.054694
O14   O     O_2   0.692796 0.760263 0.690650 -0.484027

loop_
_geom_bond_atom_site_label_1
_geom_bond_atom_site_label_2
_ccdc_geom_bond_type
C5    H5    S    
C15   C18   A    
C6    H6    S    
C25   H7    S    
Cu2   O3    S    
C10   O8    A    
C25   O9    D    
C11   C16   A    
C2    O4    A    
C3    C23   A    
C19   C20   A    
C12   C15   A    
C1    O3    A    
Cu2   N2    S    
C5    N2    A    
C13   C25   S    
C21   C27   S    
C12   C14   A    
C14   C26   S    
C13   C14   A    
C8    C30   S    
C11   C13   A    
Cu2   O8    S    
C29   H11   S    
C16   C17   A    
C3    I1    S    
Cu1   O1    S    
C9    C17   S    
C17   C19   A    
C10   C18   S    
C21   C22   A    
C22   C28   S    
C18   C20   A    
C8    N1    A    
Cu1   O6    S    
C4    C24   A    
C26   O10   D    
C29   O13   D    
Cu1   N1    S    
C7    N1    A    
Cu1   O2    S    
C15   C16   A    
C6    N2    A    
C4    I2    S    
C19   H1    S    
C28   H10   S    
C11   H3    S    
C1    C24   S    
C30   O14   D    
C27   H9    S    
C21   C24   A    
C2    O2    A    
C2    C23   S    
C5    C7    A    
C1    O1    A    
C22   C23   A    
Cu2   O4    S    
C10   O6    A    
C6    C8    A    
C20   H2    S    
C12   H4    S    
Cu1   Cu2   S    
C26   H8    S    
C9    O7    A    
C7    C29   S    
C9    O5    A    
Cu1   O5    S    
C3    C4    A    
Cu2   O7    S    
C28   O12   D    
C30   H12   S    
C27   O11   D    
