data_mof_unit_34940.cif
_audit_creation_date              2012-12-10T17:33:46-0500
_audit_creation_method            fapswitch 2.2
_symmetry_space_group_name_H-M    P1
_symmetry_Int_Tables_number       1
_space_group_crystal_system       triclinic
_cell_length_a                    11.702461
_cell_length_b                    12.346978
_cell_length_c                    13.072606
_cell_angle_alpha                 116.263178
_cell_angle_beta                  77.786606
_cell_angle_gamma                 101.019047
_cell_volume                      1645.25726349

loop_
_atom_site_label
_atom_site_type_symbol
_atom_type_description
_atom_site_fract_x
_atom_site_fract_y
_atom_site_fract_z
_atom_type_partial_charge
C1    C     C_R   0.506437 0.855089 0.285880 0.769536
C2    C     C_R   0.465780 0.227930 0.837190 -0.050103
C3    C     C_R   0.543225 0.816570 0.074550 -0.022471
C4    C     C_R   0.550908 0.735868 0.958868 -0.178717
C5    C     C_R   0.521867 0.612315 0.926580 -0.189649
C6    C     C_R   0.478068 0.565029 0.009766 0.086155
C7    C     C_R   0.454751 0.647818 0.126677 0.072851
C8    C     C_R   0.454709 0.438047 0.979907 0.050054
C9    C     C_R   0.396393 0.394975 0.064326 0.129583
C10   C     C_R   0.353617 0.479361 0.175361 -0.041075
C11   C     C_R   0.382300 0.603400 0.204050 -0.270440
C12   C     C_R   0.715761 0.999557 0.499836 0.821363
C13   C     C_R   0.490884 0.352572 0.868247 -0.229169
C14   C     C_R   0.416466 0.186367 0.922141 -0.204432
C15   C     C_R   0.499649 0.773354 0.161543 -0.149032
C16   C     C_R   0.687798 0.346397 0.327723 -0.267417
C17   C     C_R   0.331959 0.750194 0.635483 0.150783
C18   C     C_R   0.283076 0.642370 0.644804 -0.270244
C19   C     C_R   0.338603 0.537916 0.584878 -0.066486
C20   C     C_R   0.451744 0.542687 0.520436 -0.065601
C21   C     C_R   0.493519 0.651401 0.502472 0.243809
C22   C     C_R   0.521914 0.442531 0.467420 -0.028080
C23   C     C_R   0.484743 0.145013 0.714149 0.799075
C24   C     C_R   0.620649 0.444762 0.384251 0.157829
C25   C     C_R   0.653301 0.546008 0.359699 -0.265803
C26   C     C_R   0.593076 0.647881 0.419384 -0.155469
C27   C     C_R   0.501900 0.341987 0.496812 0.031903
C28   C     C_R   0.658513 0.247152 0.355538 0.118125
C29   C     C_R   0.284238 0.000454 0.500189 0.819474
C30   C     C_1   0.837399 0.999132 0.499994 -0.168764
C31   C     C_1   0.939995 0.999541 0.500026 0.023038
C32   C     C_1   0.060012 0.000377 0.500017 0.042522
C33   C     C_1   0.162610 0.000818 0.500033 -0.119684
C34   C     C_R   0.383411 0.268955 0.034872 -0.116110
Cu1   Cu    Cu3+1 0.526510 0.098270 0.475420 0.963507
Cu2   Cu    Cu3+1 0.473490 0.901730 0.524580 0.931850
H1    H     H_    0.402032 0.090313 0.901690 0.145147
H2    H     H_    0.728630 0.548012 0.295672 0.158467
H3    H     H_    0.762937 0.346630 0.263048 0.156439
H4    H     H_    0.439281 0.339942 0.569219 0.140590
H5    H     H_    0.197933 0.638925 0.696875 0.182809
H6    H     H_    0.626459 0.720999 0.395229 0.205223
H7    H     H_    0.348100 0.232454 0.097874 0.191328
H8    H     H_    0.540052 0.380690 0.803069 0.153232
H9    H     H_    0.530130 0.557048 0.835051 0.135928
H10   H     H_    0.581935 0.768598 0.892168 0.150450
H11   H     H_    0.340157 0.664835 0.285994 0.176811
H12   H     H_    0.710127 0.171058 0.312239 0.144296
N1    N     N_R   0.566700 0.246290 0.438210 -0.191215
N2    N     N_R   0.434010 0.754320 0.561170 -0.241576
O1    O     O_R   0.533340 0.972510 0.318140 -0.567654
O2    O     O_R   0.488570 0.806530 0.359650 -0.605239
O3    O     O_R   0.685190 0.083000 0.479260 -0.571501
O4    O     O_R   0.640410 0.917020 0.520770 -0.590424
O5    O     O_R   0.511430 0.193470 0.640350 -0.587775
O6    O     O_R   0.466660 0.027490 0.681860 -0.609043
O7    O     O_R   0.359590 0.082980 0.479230 -0.563613
O8    O     O_R   0.314810 0.917000 0.520740 -0.572405
C35   C     C_2   0.263109 0.854467 0.702280 0.428532
H13   H     H_    0.302175 0.940128 0.760066 0.072140
O9    O     O_2   0.158056 0.842970 0.697670 -0.552245
C36   C     C_1   0.266963 0.426431 0.578453 0.242050
N3    N     N_1   0.208718 0.337604 0.573340 -0.263999
C37   C     C_2   0.276179 0.444854 0.264649 0.354590
H14   H     H_    0.277163 0.505474 0.355137 0.091554
O10   O     O_2   0.205768 0.353560 0.239089 -0.540122
C38   C     C_1   0.577797 0.943144 0.098294 0.271223
N4    N     N_1   0.605173 0.044150 0.115445 -0.296709

loop_
_geom_bond_atom_site_label_1
_geom_bond_atom_site_label_2
_ccdc_geom_bond_type
C17   N2    A    
C14   C34   A    
C21   C26   A    
C24   C25   A    
Cu1   N1    S    
C6    C7    A    
Cu2   O6    S    
C23   O5    A    
C25   H2    S    
Cu1   O3    S    
C9    C10   A    
C11   H11   S    
C16   C28   A    
Cu2   O2    S    
C27   H4    S    
Cu1   O7    S    
C32   C33   T    
C7    C15   A    
C17   C18   A    
C8    C9    A    
C3    C15   A    
C35   H13   S    
C16   C24   A    
C4    H10   S    
C29   O8    A    
C14   H1    S    
C7    C11   A    
C1    O1    A    
C30   C31   T    
C36   N3    T    
C12   O3    A    
C3    C38   S    
C17   C35   S    
C1    C15   S    
C37   H14   S    
C21   N2    A    
C29   O7    A    
C9    C34   A    
Cu2   O8    S    
C22   C27   A    
C13   H8    S    
Cu1   O1    S    
C5    C6    A    
C2    C14   A    
C1    O2    A    
C22   C24   A    
C35   O9    D    
Cu2   O4    S    
C10   C11   A    
C12   O4    A    
C19   C36   S    
Cu1   O5    S    
C38   N4    T    
C8    C13   A    
C27   N1    A    
C23   O6    A    
Cu2   N2    S    
C20   C21   A    
C26   H6    S    
C18   C19   A    
C28   N1    A    
C18   H5    S    
C2    C23   S    
C2    C13   A    
C28   H12   S    
C6    C8    A    
C16   H3    S    
C12   C30   S    
C25   C26   A    
C34   H7    S    
C5    H9    S    
C31   C32   S    
C10   C37   S    
C3    C4    A    
C19   C20   A    
C29   C33   S    
C20   C22   A    
C4    C5    A    
Cu1   Cu2   S    
C37   O10   D    
