data_mof_unit_28507.cif
_audit_creation_date              2012-12-11T13:59:56-0500
_audit_creation_method            fapswitch 2.2
_symmetry_space_group_name_H-M    P1
_symmetry_Int_Tables_number       1
_space_group_crystal_system       triclinic
_cell_length_a                    11.330564
_cell_length_b                    11.311485
_cell_length_c                    18.907908
_cell_angle_alpha                 90.020008
_cell_angle_beta                  89.906708
_cell_angle_gamma                 119.971464
_cell_volume                      2099.27548818

loop_
_atom_site_label
_atom_site_type_symbol
_atom_type_description
_atom_site_fract_x
_atom_site_fract_y
_atom_site_fract_z
_atom_type_partial_charge
C1    C     C_R   0.577121 0.454109 0.861541 0.565219
C2    C     C_R   0.480617 0.545286 0.352100 0.580639
C3    C     C_R   0.070779 0.521638 0.353641 0.571434
C4    C     C_R   0.455373 0.937100 0.351384 0.559389
C5    C     C_2   0.007701 0.493616 0.580785 -0.110323
C6    C     C_2   0.512421 0.513249 0.578954 -0.122445
C7    C     C_2   0.492673 0.008390 0.576715 -0.114235
C8    C     C_2   0.488624 0.000562 0.421057 -0.119748
C9    C     C_2   0.507066 0.514593 0.423253 -0.097820
C10   C     C_2   0.025812 0.497500 0.426445 -0.136021
C11   C     C_2   0.069507 0.430476 0.469266 0.247239
C12   C     C_R   0.521867 0.065895 0.853388 0.554488
C13   C     C_2   0.606258 0.616603 0.462331 0.224451
C14   C     C_2   0.386766 0.995746 0.461123 0.230748
C15   C     C_2   0.396960 0.016197 0.537217 0.230850
C16   C     C_2   0.614894 0.609847 0.539088 0.230233
C17   C     C_2   0.020504 0.400005 0.541723 0.245935
C18   C     C_2   0.999801 0.499016 0.922197 -0.106498
C19   C     C_2   0.544340 0.471829 0.933879 -0.103496
C20   C     C_2   0.498792 0.999977 0.922225 -0.107811
C21   C     C_2   0.499643 0.001559 0.078197 -0.110548
C22   C     C_2   0.515715 0.490073 0.086163 -0.110008
C23   C     C_R   0.934074 0.456054 0.853393 0.557260
C24   C     C_2   0.998565 0.498083 0.078248 -0.110027
C25   C     C_2   0.015995 0.603406 0.037951 -0.165514
C26   C     C_2   0.421520 0.389504 0.046066 -0.163617
C27   C     C_2   0.586815 0.983328 0.037768 -0.163700
C28   C     C_2   0.604452 0.018982 0.962490 -0.163109
C29   C     C_2   0.453926 0.366816 0.973589 -0.167799
C30   C     C_2   0.980115 0.585279 0.962715 -0.169517
C31   C     C_3   0.089223 0.247750 0.429215 0.023923
C32   C     C_3   0.163410 0.210711 0.373664 -0.336117
C33   C     C_3   0.698473 0.844984 0.439002 0.039508
C34   C     C_R   0.480162 0.542135 0.148239 0.560862
C35   C     C_3   0.782044 0.949962 0.382681 -0.342263
C36   C     C_3   0.159339 0.848578 0.443304 0.020496
C37   C     C_3   0.042567 0.823958 0.394708 -0.336259
C38   C     C_3   0.305977 0.155176 0.556642 0.022016
C39   C     C_3   0.215795 0.177073 0.608732 -0.319146
C40   C     C_3   0.843401 0.698668 0.560968 0.020563
C41   C     C_3   0.953963 0.788384 0.613749 -0.331357
C42   C     C_3   0.865895 0.172087 0.557550 -0.004406
C43   C     C_3   0.837612 0.052102 0.605375 -0.322903
C44   C     C_R   0.065533 0.521721 0.146745 0.561455
C45   C     C_R   0.456213 0.934514 0.146752 0.560678
C46   C     C_R   0.544590 0.482113 0.648734 0.563212
C47   C     C_R   0.519355 0.064814 0.647919 0.561483
C48   C     C_R   0.936623 0.455282 0.648444 0.554677
Cr1   Cr    Cr6+3 0.464030 0.233680 0.750360 1.007521
Cr2   Cr    Cr6+3 0.766320 0.230350 0.750360 1.005223
Cr3   Cr    Cr6+3 0.769650 0.535970 0.750360 1.001395
Cr4   Cr    Cr6+3 0.233680 0.464030 0.249640 1.006064
Cr5   Cr    Cr6+3 0.230350 0.766320 0.249640 1.009740
Cr6   Cr    Cr6+3 0.535970 0.769650 0.249640 0.999702
H1    H     H_    0.060127 0.705700 0.059684 0.154395
H2    H     H_    0.396273 0.951422 0.943981 0.110065
H3    H     H_    0.597123 0.574890 0.955013 0.113340
H4    H     H_    0.048899 0.445391 0.943728 0.113423
H5    H     H_    0.987075 0.216343 0.406946 0.117952
H6    H     H_    0.079135 0.186905 0.476949 0.157330
H7    H     H_    0.270455 0.248194 0.388380 0.161532
H8    H     H_    0.115026 0.098924 0.368706 0.089058
H9    H     H_    0.157097 0.249270 0.320817 0.180804
H10   H     H_    0.736639 0.890988 0.491256 0.148644
H11   H     H_    0.590247 0.819136 0.435097 0.146045
H12   H     H_    0.317028 0.328682 0.064358 0.150251
H13   H     H_    0.759478 0.904344 0.329054 0.200332
H14   H     H_    0.763109 0.036897 0.383692 0.082481
H15   H     H_    0.890297 0.989579 0.392994 0.088291
H16   H     H_    0.123968 0.837617 0.498621 0.147290
H17   H     H_    0.188883 0.770020 0.433823 0.150186
H18   H     H_    0.079142 0.856436 0.339767 0.183682
H19   H     H_    0.962227 0.715166 0.394233 0.123188
H20   H     H_    0.997206 0.883389 0.414949 0.141244
H21   H     H_    0.273820 0.162378 0.502407 0.156746
H22   H     H_    0.413613 0.237002 0.563272 0.130850
H23   H     H_    0.644416 0.938624 0.059421 0.155422
H24   H     H_    0.238036 0.283896 0.609018 0.152955
H25   H     H_    0.109167 0.114732 0.592783 0.131789
H26   H     H_    0.227774 0.147926 0.663164 0.183501
H27   H     H_    0.884435 0.729330 0.507287 0.146525
H28   H     H_    0.816460 0.590488 0.567944 0.139744
H29   H     H_    0.909968 0.783187 0.666930 0.185633
H30   H     H_    0.032945 0.758749 0.618379 0.127795
H31   H     H_    0.006194 0.894300 0.595001 0.129618
H32   H     H_    0.852236 0.138136 0.501935 0.072300
H33   H     H_    0.788970 0.203667 0.567854 0.150249
H34   H     H_    0.706604 0.063803 0.940616 0.155355
H35   H     H_    0.876214 0.087574 0.659690 0.183644
H36   H     H_    0.728007 0.976296 0.608703 0.131993
H37   H     H_    0.887784 0.998678 0.583126 0.129060
H38   H     H_    0.957009 0.531173 0.445250 -0.001743
H39   H     H_    0.432907 0.419292 0.446825 0.045521
H40   H     H_    0.587289 0.030082 0.443151 0.000286
H41   H     H_    0.563168 0.981997 0.553316 0.006797
H42   H     H_    0.414771 0.444629 0.556232 0.043226
H43   H     H_    0.036646 0.592591 0.558594 0.003832
H44   H     H_    0.396382 0.265020 0.951225 0.149961
H45   H     H_    0.934592 0.642178 0.941085 0.149806
H46   H     H_    0.950501 0.395377 0.056639 0.108616
H47   H     H_    0.621360 0.546266 0.069025 0.106891
H48   H     H_    0.445527 0.050153 0.056658 0.106570
O1    O     O_R   0.434100 0.092480 0.829780 -0.528028
O2    O     O_R   0.362730 0.477510 0.175360 -0.503894
O3    O     O_R   0.114780 0.637270 0.175360 -0.500250
O4    O     O_R   0.522490 0.885220 0.175360 -0.501938
O5    O     O_R   0.432250 0.092620 0.670380 -0.463541
O6    O     O_R   0.907380 0.339630 0.670380 -0.469507
O7    O     O_R   0.660370 0.567750 0.670380 -0.462490
O8    O     O_R   0.092620 0.432250 0.329620 -0.489708
O9    O     O_R   0.339630 0.907380 0.329620 -0.467157
O10   O     O_R   0.567750 0.660370 0.329620 -0.479382
O11   O     O_R   0.475790 0.362860 0.676880 -0.529779
O12   O     O_R   0.907520 0.341620 0.829780 -0.517039
O13   O     O_R   0.637140 0.112930 0.676880 -0.531811
O14   O     O_R   0.887070 0.524210 0.676880 -0.533520
O15   O     O_R   0.362860 0.475790 0.323120 -0.501092
O16   O     O_R   0.112930 0.637140 0.323120 -0.527735
O17   O     O_R   0.524210 0.887070 0.323120 -0.536182
O18   O     O_3   0.666667 0.333333 0.749450 -0.278544
O19   O     O_3   0.333333 0.666667 0.250550 -0.255238
O20   O     O_3   0.161031 0.389245 0.445826 -0.522541
O21   O     O_3   0.713624 0.729365 0.429733 -0.549604
O22   O     O_3   0.268993 0.981275 0.430320 -0.544145
O23   O     O_R   0.658380 0.565900 0.829780 -0.516753
O24   O     O_3   0.290726 0.025170 0.569031 -0.543516
O25   O     O_3   0.729590 0.716495 0.570829 -0.543777
O26   O     O_3   0.000819 0.278656 0.570543 -0.552069
O27   O     O_R   0.092480 0.434100 0.170220 -0.524614
O28   O     O_R   0.341620 0.907520 0.170220 -0.521803
O29   O     O_R   0.565900 0.658380 0.170220 -0.524370
O30   O     O_R   0.477510 0.362730 0.824640 -0.490832
O31   O     O_R   0.637270 0.114780 0.824640 -0.499555
O32   O     O_R   0.885220 0.522490 0.824640 -0.513783

loop_
_geom_bond_atom_site_label_1
_geom_bond_atom_site_label_2
_ccdc_geom_bond_type
Cr1   O11   S    
C37   H20   S    
C20   H2    S    
C1    O30   A    
C33   H11   S    
Cr1   O5    S    
C38   H22   S    
C44   O3    A    
C19   H3    S    
C47   O13   A    
Cr6   O29   S    
C2    O10   A    
C43   H35   S    
C22   H47   S    
C29   H44   S    
Cr2   O18   S    
Cr4   O27   S    
C36   C37   S    
C36   O22   S    
C1    O23   A    
C32   H7    S    
C38   C39   S    
C13   O21   S    
Cr3   O32   S    
Cr1   O18   S    
C5    C17   D    
C3    O8    A    
C41   H29   S    
Cr2   O13   S    
C31   H5    S    
C9    C13   D    
C38   O24   S    
C18   H4    S    
C11   C17   S    
C15   O24   S    
C28   H34   S    
C4    O17   A    
C18   C30   D    
C35   H13   S    
C23   O32   A    
C36   H17   S    
C4    C8    S    
C48   O14   A    
Cr4   O15   S    
Cr5   O9    S    
C7    C15   D    
C21   C27   D    
C10   H38   S    
C45   O28   A    
Cr3   O7    S    
Cr6   O17   S    
Cr2   O6    S    
C37   H18   S    
Cr1   O30   S    
C2    O15   A    
C36   H16   S    
C21   C45   S    
C38   H21   S    
C22   C34   S    
C5    C48   S    
C1    C19   S    
C43   H36   S    
C14   O22   S    
Cr6   O4    S    
C18   C23   S    
C26   H12   S    
C39   H24   S    
C40   H28   S    
C8    H40   S    
C24   C25   D    
C32   H9    S    
C12   O1    A    
Cr5   O16   S    
C20   C28   D    
C44   O27   A    
C40   O25   S    
C30   H45   S    
C34   O2    A    
Cr2   O12   S    
Cr3   O23   S    
C31   H6    S    
C3    O16   A    
Cr4   O19   S    
C31   C32   S    
Cr4   O8    S    
C12   C20   S    
Cr3   O18   S    
Cr6   O10   S    
C39   H25   S    
C42   H32   S    
C21   H48   S    
C40   C41   S    
Cr6   O19   S    
C5    H43   S    
C34   O29   A    
C47   O5    A    
C12   O31   A    
C24   C44   S    
C13   C16   S    
C11   O20   S    
C42   C43   S    
C19   C29   D    
C9    H39   S    
C41   H31   S    
C45   O4    A    
C25   C30   S    
C37   H19   S    
Cr4   O2    S    
C8    C14   D    
C6    C46   S    
C46   O11   A    
C24   H46   S    
C40   H27   S    
C4    O9    A    
C25   H1    S    
C31   O20   S    
C27   H23   S    
Cr2   O31   S    
Cr1   O1    S    
C17   O26   S    
Cr5   O28   S    
C42   O26   S    
C7    H41   S    
C6    H42   S    
Cr3   O14   S    
C39   H26   S    
C32   H8    S    
C3    C10   S    
Cr5   O19   S    
C23   O12   A    
C41   H30   S    
C48   O6    A    
C35   H14   S    
C33   H10   S    
C33   C35   S    
C16   O25   S    
C43   H37   S    
C10   C11   D    
C6    C16   D    
Cr5   O3    S    
C35   H15   S    
C26   C29   S    
C22   C26   D    
C46   O7    A    
C27   C28   S    
C33   O21   S    
C14   C15   S    
C42   H33   S    
C2    C9    S    
C7    C47   S    
