data_mof_unit_30654.cif
_audit_creation_date              2012-12-10T17:59:45-0500
_audit_creation_method            fapswitch 2.2
_symmetry_space_group_name_H-M    P1
_symmetry_Int_Tables_number       1
_space_group_crystal_system       triclinic
_cell_length_a                    10.766196
_cell_length_b                    9.542784
_cell_length_c                    15.913826
_cell_angle_alpha                 90.082354
_cell_angle_beta                  90.515603
_cell_angle_gamma                 89.889441
_cell_volume                      1634.9073615

loop_
_atom_site_label
_atom_site_type_symbol
_atom_type_description
_atom_site_fract_x
_atom_site_fract_y
_atom_site_fract_z
_atom_type_partial_charge
C1    C     C_R   0.262537 0.500132 0.499991 0.791880
C2    C     C_3   0.632556 0.431247 0.950155 0.251691
C3    C     C_3   0.625840 0.413379 0.050881 0.175638
C4    C     C_1   0.502019 0.499299 0.824109 -0.103755
C5    C     C_1   0.504235 0.498649 0.175771 0.035080
C6    C     C_1   0.501968 0.499572 0.251064 -0.166045
C7    C     C_R   0.065594 0.448670 0.570901 0.088565
C8    C     C_R   0.063123 0.552921 0.429936 0.083366
C9    C     C_R   0.935946 0.448712 0.570811 0.113723
C10   C     C_R   0.933506 0.552650 0.430322 0.108091
C11   C     C_R   0.871143 0.499979 0.500454 -0.118355
C12   C     C_R   0.128637 0.500473 0.500244 -0.145674
C13   C     C_R   0.423687 0.074288 0.447055 -0.077375
C14   C     C_R   0.423729 0.925809 0.447029 -0.068774
C15   C     C_R   0.500104 0.499913 0.340365 0.814110
C16   C     C_R   0.576872 0.924890 0.553387 0.235813
C17   C     C_R   0.576911 0.074902 0.553349 0.234208
C18   C     C_R   0.737405 0.499928 0.500446 0.908515
C19   C     C_R   0.500244 0.500068 0.659608 0.841875
C20   C     C_3   0.514819 0.650973 0.049023 -0.008170
C21   C     C_3   0.387508 0.419179 0.049620 -0.010847
C22   C     C_3   0.389619 0.404285 0.949870 0.106040
C23   C     C_3   0.487802 0.655550 0.951296 0.103521
C24   C     C_1   0.501081 0.500045 0.748826 -0.197344
C25   C     C_3   0.507019 0.496720 0.083230 0.104143
C26   C     C_3   0.503259 0.497713 0.916772 0.065455
Cu1   Cu    Cu3+1 0.500020 0.640660 0.500000 0.974959
Cu2   Cu    Cu3+1 0.500020 0.359340 0.500000 0.965644
H1    H     H_    0.390058 0.313627 0.078773 0.199148
H2    H     H_    0.612697 0.683860 0.059627 0.179988
H3    H     H_    0.362323 0.130116 0.404519 0.142255
H4    H     H_    0.362452 0.870073 0.404441 0.136121
N1    N     N_R   0.500030 0.852070 0.500020 -0.159389
N2    N     N_R   0.500030 0.147930 0.500020 -0.161581
O1    O     O_R   0.319660 0.618740 0.500000 -0.589205
O2    O     O_R   0.319660 0.381260 0.500000 -0.590605
O3    O     O_R   0.500020 0.618840 0.379440 -0.567964
O4    O     O_R   0.500020 0.381160 0.379440 -0.586917
O5    O     O_R   0.680370 0.618830 0.500010 -0.549630
O6    O     O_R   0.680370 0.381170 0.500010 -0.552247
O7    O     O_R   0.500010 0.618730 0.620560 -0.556374
O8    O     O_R   0.500010 0.381270 0.620560 -0.555448
N3    N     N_3   0.361068 0.707634 0.933919 -0.557717
H5    H     H_    0.344545 0.706672 0.869012 0.230226
H6    H     H_    0.352591 0.812774 0.951746 0.255514
N4    N     N_3   0.270531 0.451967 0.912787 -0.588926
H7    H     H_    0.271079 0.441364 0.847358 0.209575
H8    H     H_    0.198420 0.387647 0.933598 0.212863
N5    N     N_3   0.657264 0.848618 0.609039 -0.528415
H9    H     H_    0.749187 0.875954 0.596514 0.192643
H10   H     H_    0.636867 0.876740 0.670897 0.192889
N6    N     N_3   0.657703 0.150887 0.608744 -0.517675
H11   H     H_    0.749278 0.121787 0.596190 0.191165
H12   H     H_    0.637236 0.123706 0.670678 0.193348
N7    N     N_3   0.442453 0.752042 0.098879 -0.563901
H13   H     H_    0.347165 0.739436 0.091253 0.254122
H14   H     H_    0.464674 0.853856 0.080135 0.273739
N8    N     N_3   0.273318 0.483332 0.082805 -0.589275
H15   H     H_    0.241317 0.565318 0.045280 0.278329
H16   H     H_    0.202918 0.407917 0.083344 0.214116
C27   C     C_2   0.403176 0.251126 0.921649 0.398442
H17   H     H_    0.414624 0.228680 0.855261 0.084457
O9    O     O_2   0.398196 0.152502 0.970324 -0.534877
C28   C     C_2   0.576097 0.759305 0.909246 0.290383
H18   H     H_    0.619811 0.734563 0.849904 0.117261
O10   O     O_2   0.593907 0.875386 0.939448 -0.527349
N9    N     N_3   0.739542 0.468754 0.091827 -0.636392
H19   H     H_    0.816868 0.414265 0.069412 0.215284
H20   H     H_    0.738011 0.448608 0.156360 0.223190
N10   N     N_3   0.614155 0.263468 0.073610 -0.528380
H21   H     H_    0.596300 0.253658 0.137790 0.206867
H22   H     H_    0.698770 0.211769 0.065004 0.233954
N11   N     N_3   0.736913 0.522522 0.924556 -0.624208
H23   H     H_    0.750251 0.606886 0.965239 0.233592
H24   H     H_    0.820798 0.467076 0.925162 0.218828
N12   N     N_3   0.653542 0.293142 0.910166 -0.536485
H25   H     H_    0.663352 0.305079 0.845270 0.225863
H26   H     H_    0.738386 0.251254 0.930563 0.219335
N13   N     N_3   0.131485 0.399026 0.643907 -0.609151
H27   H     H_    0.185502 0.312635 0.626865 0.237292
H28   H     H_    0.190365 0.478511 0.665598 0.207154
N14   N     N_3   0.126439 0.603637 0.357026 -0.594522
H29   H     H_    0.185202 0.524651 0.334926 0.215450
H30   H     H_    0.180363 0.690052 0.374353 0.230078
N15   N     N_3   0.869166 0.400359 0.642819 -0.580149
H31   H     H_    0.894433 0.462519 0.694339 0.237653
H32   H     H_    0.896781 0.297418 0.655528 0.236063
N16   N     N_3   0.864134 0.603493 0.359143 -0.586672
H33   H     H_    0.889141 0.707793 0.348684 0.246596
H34   H     H_    0.889192 0.544697 0.306432 0.233693

loop_
_geom_bond_atom_site_label_1
_geom_bond_atom_site_label_2
_ccdc_geom_bond_type
N7    H13   S    
C11   C18   S    
N11   H23   S    
C18   O5    A    
C14   N1    A    
C20   H2    S    
N15   H31   S    
Cu1   N1    S    
C10   N16   S    
C8    N14   S    
N12   H26   S    
C5    C6    T    
C4    C24   T    
C20   C25   S    
Cu2   O6    S    
N8    H16   S    
C23   N3    S    
C23   C26   S    
C27   O9    D    
C18   O6    A    
C15   O3    A    
C9    N15   S    
C6    C15   S    
Cu1   O5    S    
C16   C17   A    
N5    H10   S    
N10   H21   S    
C19   O8    A    
Cu2   N2    S    
C13   C14   A    
N11   H24   S    
C1    C12   S    
C20   N7    S    
C17   N6    S    
N6    H12   S    
N15   H32   S    
C7    C12   A    
N4    H8    S    
N9    H19   S    
C3    C25   S    
C3    N10   S    
C16   N5    S    
N13   H28   S    
Cu1   O1    S    
N8    H15   S    
C21   H1    S    
N9    H20   S    
C28   O10   D    
N3    H5    S    
C15   O4    A    
C16   N1    A    
N3    H6    S    
Cu1   O7    S    
C20   C23   S    
Cu2   O4    S    
C8    C12   A    
C2    C26   S    
N12   H25   S    
C9    C11   A    
C2    N11   S    
C5    C25   S    
C23   C28   S    
C22   N4    S    
N16   H34   S    
N14   H29   S    
N14   H30   S    
N7    H14   S    
C17   N2    A    
C2    N12   S    
N6    H11   S    
C1    O1    A    
C7    N13   S    
C7    C9    A    
C21   C25   S    
N4    H7    S    
C13   H3    S    
C3    N9    S    
C14   H4    S    
C4    C26   S    
C28   H18   S    
C2    C3    S    
C13   N2    A    
C22   C27   S    
Cu1   O3    S    
Cu2   O8    S    
C19   C24   S    
C27   H17   S    
C10   C11   A    
N13   H27   S    
C21   N8    S    
N16   H33   S    
Cu2   O2    S    
C8    C10   A    
N5    H9    S    
C22   C26   S    
Cu1   Cu2   S    
N10   H22   S    
C21   C22   S    
C19   O7    A    
C1    O2    A    
