data_mof_unit_6743.cif
_audit_creation_date              2013-03-05T15:52:55-0500
_audit_creation_method            fapswitch 2.2
_symmetry_space_group_name_H-M    P1
_symmetry_Int_Tables_number       1
_space_group_crystal_system       triclinic
_cell_length_a                    10.724334
_cell_length_b                    10.757983
_cell_length_c                    17.045371
_cell_angle_alpha                 99.619714
_cell_angle_beta                  99.692914
_cell_angle_gamma                 60.550833
_cell_volume                      1679.85399768

loop_
_atom_site_label
_atom_site_type_symbol
_atom_site_description
_atom_site_fract_x
_atom_site_fract_y
_atom_site_fract_z
_atom_type_partial_charge
O1    O     O_R   0.749810 0.499790 0.438040 -0.518936
O2    O     O_R   0.477660 0.726260 0.439290 -0.494047
C1    C     C_R   0.356303 0.769678 0.397447 0.545207
O3    O     O_R   0.260150 0.743000 0.412270 -0.509766
O4    O     O_R   0.297740 0.466550 0.394720 -0.458635
C2    C     C_R   0.369119 0.346282 0.357554 0.570347
O5    O     O_R   0.488080 0.253500 0.386430 -0.511810
O6    O     O_R   0.722670 0.303800 0.421940 -0.494289
C3    C     C_R   0.784298 0.372703 0.406864 0.530819
O7    O     O_R   0.751130 0.502220 0.613520 -0.508104
O8    O     O_R   0.478890 0.728510 0.601960 -0.486391
C4    C     C_R   0.381354 0.714748 0.631412 0.533317
O9    O     O_R   0.261470 0.745430 0.587750 -0.508090
O10   O     O_R   0.298970 0.468800 0.557390 -0.511527
C5    C     C_R   0.410532 0.376949 0.599913 0.527689
O11   O     O_R   0.489400 0.255930 0.561910 -0.513157
O12   O     O_R   0.723890 0.306050 0.584610 -0.538627
C6    C     C_R   0.773534 0.380569 0.629690 0.530098
Cr1   Cr    Cr6+3 0.608100 0.610860 0.522250 1.021046
Cr2   Cr    Cr6+3 0.288890 0.599990 0.488420 1.045524
Cr3   Cr    Cr6+3 0.603040 0.289190 0.489390 0.999158
O13   O     O_3   0.500010 0.500010 0.500020 -0.286724
C7    C     C_1   0.342678 0.336531 0.274169 -0.014349
C8    C     C_1   0.331511 0.326846 0.203327 -0.029447
C9    C     C_R   0.864458 0.320729 0.172960 -0.015563
C10   C     C_R   0.850456 0.212364 0.202172 0.018655
C11   C     C_R   0.868862 0.205259 0.285601 0.019805
C12   C     C_R   0.905236 0.413787 0.310060 -0.008244
C13   C     C_R   0.896241 0.416929 0.228155 -0.112882
C14   C     C_R   0.825753 0.106492 0.151750 -0.061667
C15   C     C_R   0.849871 0.983170 0.182027 -0.115549
C16   C     C_R   0.889770 0.967941 0.263416 -0.131259
C17   C     C_R   0.892867 0.080388 0.315418 -0.074734
C18   C     C_R   0.868750 0.320969 0.337674 -0.052602
H1    H     H_    0.790381 0.115811 0.088811 0.143155
H2    H     H_    0.923509 0.489808 0.207772 0.174989
H3    H     H_    0.841216 0.898208 0.141639 0.092454
H4    H     H_    0.919259 0.869282 0.287154 0.131612
H5    H     H_    0.921782 0.066405 0.378577 0.127570
H6    H     H_    0.174628 0.747506 0.276665 0.162790
C19   C     C_R   0.350648 0.803328 0.152827 0.046437
C20   C     C_R   0.467817 0.799962 0.205690 0.035946
C21   C     C_R   0.454242 0.821905 0.288919 -0.001386
C22   C     C_R   0.251120 0.773550 0.259603 -0.149980
C23   C     C_R   0.253217 0.772952 0.179473 -0.144941
C24   C     C_R   0.598420 0.772688 0.179259 0.023569
C25   C     C_R   0.701025 0.790694 0.234890 -0.126341
C26   C     C_R   0.674385 0.840107 0.314386 -0.081307
C27   C     C_R   0.552028 0.855515 0.341543 -0.083298
C28   C     C_R   0.346184 0.804240 0.316129 -0.004957
H7    H     H_    0.169729 0.760598 0.138898 0.148345
H8    H     H_    0.804380 0.760393 0.216579 0.105416
H9    H     H_    0.752369 0.858904 0.356412 0.141593
H10   H     H_    0.536169 0.892083 0.403892 0.138362
H11   H     H_    0.189251 0.556720 0.683348 0.177789
C29   C     C_R   0.296942 0.285269 0.799148 -0.043488
C30   C     C_R   0.422215 0.182512 0.761915 0.025629
C31   C     C_R   0.480192 0.228698 0.713110 0.038208
C32   C     C_R   0.258293 0.456290 0.709436 -0.117579
C33   C     C_R   0.211684 0.422679 0.770222 -0.005743
C34   C     C_R   0.494368 0.035196 0.774120 -0.082749
C35   C     C_R   0.632210 0.943580 0.751459 -0.089686
C36   C     C_R   0.700346 0.997292 0.715733 -0.100581
C37   C     C_R   0.625074 0.138467 0.696419 -0.086770
C38   C     C_R   0.388237 0.358962 0.678528 -0.038904
H12   H     H_    0.444853 0.990652 0.801609 0.144407
H13   H     H_    0.687029 0.832106 0.763311 0.151230
H14   H     H_    0.809576 0.928578 0.700568 0.151607
H15   H     H_    0.680299 0.175046 0.667135 0.153476
C39   C     C_1   0.818095 0.342133 0.708996 -0.067344
C40   C     C_1   0.844879 0.314013 0.776775 -0.058967
C41   C     C_1   0.358755 0.763881 0.713769 -0.052898
C42   C     C_1   0.326267 0.810565 0.780837 -0.039752
O14   O     O_R   0.171100 0.914680 0.053100 -0.522469
O15   O     O_R   0.941680 0.184840 0.050710 -0.507579
C43   C     C_R   0.898029 0.307523 0.090766 0.568879
O16   O     O_R   0.922080 0.403420 0.072610 -0.514404
O17   O     O_R   0.196880 0.369150 0.083850 -0.498577
C44   C     C_R   0.319372 0.300186 0.120007 0.566203
O18   O     O_R   0.411730 0.181020 0.091530 -0.507516
O19   O     O_R   0.365010 0.944360 0.063320 -0.488366
C45   C     C_R   0.298190 0.883925 0.082531 0.592252
O20   O     O_R   0.159380 0.906670 0.876210 -0.467201
O21   O     O_R   0.930820 0.177420 0.886730 -0.485381
C46   C     C_R   0.885956 0.297643 0.859133 0.557382
O22   O     O_R   0.910360 0.395420 0.895720 -0.530765
O23   O     O_R   0.186010 0.361730 0.919870 -0.501059
C47   C     C_R   0.279093 0.255708 0.876727 0.525848
O24   O     O_R   0.400000 0.173010 0.914630 -0.500620
O25   O     O_R   0.354140 0.936940 0.899340 -0.532360
C48   C     C_R   0.281333 0.880466 0.857930 0.558492
Cr4   Cr    Cr6+3 0.053960 0.052250 0.967380 1.052248
Cr5   Cr    Cr6+3 0.059890 0.373160 0.992710 1.025495
Cr6   Cr    Cr6+3 0.373370 0.061690 0.991710 1.027437
O26   O     O_3   0.162410 0.162370 0.983930 -0.280761
C49   C     C_2   0.961501 0.500538 0.366320 0.242602
H16   H     H_    0.984397 0.486349 0.429647 0.133143
O27   O     O_2   0.987599 0.585396 0.342450 -0.553543
C50   C     C_2   0.068800 0.529525 0.796669 0.245433
H17   H     H_    0.002266 0.495306 0.817589 0.151565
O28   O     O_2   0.022236 0.657640 0.793266 -0.524154
C51   C     C_2   0.641270 0.707855 0.097663 0.252928
H18   H     H_    0.727214 0.714778 0.076214 0.092308
O29   O     O_2   0.586406 0.640892 0.055037 -0.500639

loop_
_geom_bond_atom_site_label_1
_geom_bond_atom_site_label_2
_geom_bond_distance
_ccdc_geom_bond_type
C6    C39   1.414823 S    
O23   C47   1.298277 A    
O11   Cr3   2.055532 S    
H11   C32   1.084613 S    
C19   C20   1.406089 A    
C2    C7    1.398312 S    
C33   C50   1.483237 S    
O19   C45   1.285199 A    
C30   C31   1.393414 A    
O4    Cr2   1.942028 S    
C46   O22   1.249150 A    
C11   C17   1.404728 A    
O20   Cr4   2.045267 S    
C24   C51   1.485892 S    
C13   H2    1.082411 S    
O8    Cr1   1.924266 S    
C10   C11   1.412128 A    
C17   H5    1.083342 S    
C35   H13   1.082738 S    
C12   C13   1.388089 A    
C14   C15   1.392787 A    
C29   C47   1.473806 S    
C23   H7    1.084172 S    
O17   Cr5   1.940399 S    
C5    O11   1.284460 A    
C5    C38   1.459555 S    
C29   C30   1.421970 A    
C20   C24   1.419525 A    
O14   Cr4   2.044467 S    
O24   Cr6   2.056819 S    
C31   C38   1.416081 A    
C40   C46   1.412062 S    
C34   H12   1.067797 S    
C15   C16   1.393445 A    
O6    C3    1.286431 A    
C49   O27   1.221064 D    
C7    C8    1.185250 T    
C39   C40   1.195143 T    
C16   H4    1.077320 S    
C4    C41   1.431563 S    
C12   C18   1.405355 A    
C32   C33   1.389778 A    
Cr5   O26   1.965694 S    
Cr3   O13   1.965567 S    
C31   C37   1.418056 A    
C51   H18   1.085735 S    
O14   C45   1.265152 A    
C1    C28   1.467376 S    
O25   Cr6   1.944028 S    
C11   C18   1.402501 A    
C9    C13   1.409198 A    
C26   H9    1.081500 S    
O1    Cr1   2.042906 S    
C25   C26   1.393057 A    
O10   Cr2   1.935811 S    
Cr1   O13   1.992428 S    
O1    C3    1.270650 A    
C43   O16   1.273520 A    
C42   C48   1.432174 S    
O17   C44   1.256099 A    
C21   C27   1.408117 A    
C9    C10   1.421575 A    
O5    Cr3   2.063748 S    
Cr4   O26   1.992075 S    
O12   Cr3   1.941998 S    
C44   O18   1.251195 A    
O15   C43   1.275217 A    
C35   C36   1.386112 A    
O22   Cr5   2.055252 S    
C8    C44   1.398066 S    
C50   H17   1.076876 S    
O7    Cr1   2.044614 S    
C49   H16   1.085228 S    
O12   C6    1.261985 A    
Cr6   O26   1.961289 S    
C37   H15   1.071969 S    
O21   C46   1.280925 A    
C51   O29   1.221053 D    
C25   H8    1.076783 S    
O15   Cr4   1.926642 S    
C14   H1    1.080000 S    
C26   C27   1.388756 A    
C50   O28   1.221692 D    
Cr2   O13   1.961622 S    
C10   C14   1.413845 A    
C3    C18   1.471591 S    
C20   C21   1.418925 A    
O18   Cr6   2.065388 S    
C1    O3    1.269851 A    
C22   C23   1.368710 A    
C22   C28   1.403775 A    
C24   C25   1.394400 A    
O9    Cr2   2.056958 S    
O2    Cr1   1.926318 S    
C41   C42   1.204456 T    
O6    Cr3   1.935941 S    
O8    C4    1.312257 A    
C21   C28   1.421679 A    
C30   C34   1.415574 A    
C2    O5    1.251711 A    
O20   C48   1.277661 A    
C36   H14   1.082641 S    
C12   C49   1.488106 S    
C9    C43   1.471636 S    
C16   C17   1.386151 A    
O2    C1    1.273465 A    
C32   C38   1.394269 A    
O19   Cr6   1.937587 S    
O25   C48   1.270649 A    
O4    C2    1.255709 A    
O7    C6    1.278870 A    
C19   C45   1.464449 S    
O23   Cr5   1.933125 S    
O16   Cr5   2.049778 S    
C34   C35   1.392218 A    
C36   C37   1.392383 A    
O3    Cr2   2.052613 S    
C15   H3    1.081468 S    
H6    C22   1.081475 S    
C29   C33   1.423748 A    
C47   O24   1.290692 A    
C19   C23   1.396424 A    
O10   C5    1.310754 A    
O21   Cr4   1.925056 S    
C4    O9    1.287801 A    
C27   H10   1.080968 S    
