data_mof_unit_24713.cif
_audit_creation_date              2013-03-05T16:03:18-0500
_audit_creation_method            fapswitch 2.2
_symmetry_space_group_name_H-M    P1
_symmetry_Int_Tables_number       1
_space_group_crystal_system       triclinic
_cell_length_a                    27.841671
_cell_length_b                    11.750497
_cell_length_c                    10.453096
_cell_angle_alpha                 89.987537
_cell_angle_beta                  89.977421
_cell_angle_gamma                 90.163231
_cell_volume                      3419.7524197

loop_
_atom_site_label
_atom_site_type_symbol
_atom_site_description
_atom_site_fract_x
_atom_site_fract_y
_atom_site_fract_z
_atom_type_partial_charge
O1    O     O_R   0.500000 0.337200 0.605810 -0.563509
O2    O     O_R   0.500000 0.662800 0.394190 -0.562852
O3    O     O_R   0.500000 0.662800 0.605810 -0.563019
O4    O     O_R   0.500000 0.337200 0.394190 -0.562542
C1    C     C_R   0.499988 0.283259 0.500010 0.839503
C2    C     C_R   0.500005 0.716741 0.499988 0.839657
O5    O     O_R   0.430260 0.500000 0.605800 -0.548748
O6    O     O_R   0.569740 0.500000 0.394200 -0.550863
O7    O     O_R   0.569740 0.500000 0.605800 -0.548212
O8    O     O_R   0.430260 0.500000 0.394200 -0.551311
C3    C     C_R   0.407135 0.499479 0.500002 0.922921
C4    C     C_R   0.592898 0.500673 0.499941 0.920874
Cu1   Cu    Cu3+1 0.500000 0.500000 0.625300 1.085394
Cu2   Cu    Cu3+1 0.500000 0.500000 0.374700 1.082938
C5    C     C_R   0.177001 0.401384 0.528569 0.725733
C6    C     C_R   0.822930 0.602343 0.521829 0.720985
C7    C     C_R   0.178537 0.593971 0.455345 0.736761
C8    C     C_R   0.821793 0.406996 0.458566 0.736614
O9    O     O_2   0.202469 0.312460 0.572377 -0.401555
O10   O     O_2   0.797214 0.692753 0.560417 -0.402016
O11   O     O_2   0.205623 0.682727 0.417452 -0.407832
O12   O     O_2   0.794880 0.315463 0.429137 -0.410662
N1    N     N_R   0.201387 0.497183 0.493300 -0.425687
N2    N     N_R   0.798749 0.504898 0.491711 -0.425362
C9    C     C_R   0.277749 0.555506 0.594344 0.369654
C10   C     C_R   0.722553 0.449714 0.596177 0.368121
C11   C     C_R   0.278809 0.436982 0.400640 0.363742
C12   C     C_R   0.721129 0.560645 0.396931 0.363208
C13   C     C_R   0.328196 0.563596 0.589056 0.159146
C14   C     C_R   0.672126 0.440568 0.591439 0.160167
C15   C     C_R   0.329204 0.430151 0.409583 0.140797
C16   C     C_R   0.670754 0.567748 0.406245 0.142224
C17   C     C_R   0.253052 0.496295 0.496315 -0.005338
C18   C     C_R   0.747074 0.505265 0.495125 -0.004213
C19   C     C_R   0.101818 0.499106 0.487370 -0.122690
C20   C     C_R   0.898342 0.504134 0.485005 -0.121369
C21   C     C_R   0.126370 0.396693 0.519503 -0.144516
C22   C     C_R   0.873597 0.607120 0.513329 -0.128481
C23   C     C_R   0.127834 0.600235 0.456885 -0.133898
C24   C     C_R   0.872521 0.402124 0.457431 -0.140661
C25   C     C_R   0.099049 0.295396 0.541817 0.402738
C26   C     C_R   0.900774 0.709112 0.532557 0.363634
C27   C     C_R   0.101821 0.701954 0.428814 0.404469
C28   C     C_R   0.898761 0.300685 0.429962 0.409218
C29   C     C_R   0.354091 0.497709 0.499704 -0.303484
C30   C     C_R   0.645994 0.503009 0.499386 -0.305203
C31   C     C_R   0.974246 0.399195 0.476476 0.003709
C32   C     C_R   0.025990 0.604118 0.474219 0.007900
C33   C     C_R   0.975404 0.605733 0.491443 0.027427
C34   C     C_R   0.024710 0.397985 0.495335 0.008155
C35   C     C_R   0.949292 0.503081 0.484216 0.097413
C36   C     C_R   0.050881 0.500391 0.485661 0.097787
C37   C     C_R   0.948524 0.300224 0.445710 -0.226163
C38   C     C_R   0.051951 0.702528 0.442413 -0.242773
C39   C     C_R   0.950608 0.706582 0.518271 -0.259684
C40   C     C_R   0.049282 0.297778 0.526248 -0.235645
H1    H     H_    0.967537 0.222425 0.425713 0.213532
H2    H     H_    0.033104 0.780055 0.420328 0.214329
H3    H     H_    0.970347 0.784109 0.535231 0.188629
H4    H     H_    0.029347 0.220902 0.545560 0.213114
C41   C     C_1   0.499982 0.161890 0.500022 -0.096600
C42   C     C_1   0.499996 0.838109 0.499970 -0.096307
C43   C     C_1   0.499981 0.059728 0.500006 0.066779
C44   C     C_1   0.499987 0.940271 0.499980 0.066849
N3    N     N_1   0.500000 0.500000 0.186410 -0.120411
N4    N     N_1   0.500000 0.500000 0.813590 -0.120010
C45   C     C_1   0.500001 0.500000 0.072019 0.178446
C46   C     C_1   0.500001 0.500000 0.927981 0.180277
Br1   Br    Br    0.363857 0.320319 0.306761 -0.306171
Br2   Br    Br    0.636123 0.674766 0.299644 -0.304086
Br3   Br    Br    0.361507 0.672858 0.696112 -0.311546
Br4   Br    Br    0.639337 0.334228 0.703373 -0.307065
S1    S     S_3+6 0.248356 0.370157 0.270244 0.114262
O13   O     O_2   0.276886 0.385364 0.149296 -0.177903
O14   O     O_2   0.243742 0.245224 0.298804 -0.177497
O15   O     O_3   0.193360 0.424660 0.245328 -0.544003
H5    H     H_    0.177320 0.370517 0.186512 0.391919
S2    S     S_3+6 0.751349 0.622318 0.262908 0.111792
O16   O     O_2   0.722518 0.602923 0.143289 -0.179718
O17   O     O_2   0.756223 0.748158 0.285453 -0.179328
O18   O     O_3   0.806194 0.566355 0.239663 -0.544620
H6    H     H_    0.822678 0.619755 0.180796 0.390596
S3    S     S_3+6 0.246012 0.620724 0.723298 0.115162
O19   O     O_2   0.242568 0.746320 0.697767 -0.178192
O20   O     O_2   0.196308 0.572578 0.739114 -0.282727
O21   O     O_3   0.276057 0.599855 0.860892 -0.434737
H7    H     H_    0.259102 0.647030 0.925057 0.404759
S4    S     S_3+6 0.754475 0.390614 0.728464 0.117628
O22   O     O_2   0.758312 0.264126 0.709934 -0.173027
O23   O     O_2   0.804027 0.440277 0.741458 -0.283085
O24   O     O_3   0.724329 0.416886 0.864770 -0.432884
H8    H     H_    0.742473 0.376357 0.932264 0.406408
S5    S     S_3+6 0.123824 0.161281 0.585358 0.103098
O25   O     O_2   0.159497 0.124749 0.485630 -0.164106
O26   O     O_2   0.148439 0.171658 0.712865 -0.188515
O27   O     O_3   0.080699 0.061104 0.596983 -0.519201
H9    H     H_    0.096653 0.994591 0.636526 0.406190
S6    S     S_3+6 0.875654 0.844348 0.569718 0.114261
O28   O     O_2   0.840732 0.877296 0.466665 -0.141086
O29   O     O_2   0.849742 0.838656 0.695842 -0.189197
O30   O     O_3   0.918299 0.945874 0.579067 -0.480061
H10   H     H_    0.931895 0.938802 0.666262 0.361116
S7    S     S_3+6 0.128280 0.832279 0.377030 0.103352
O31   O     O_2   0.161608 0.876105 0.478942 -0.159895
O32   O     O_2   0.155930 0.812371 0.255509 -0.192385
O33   O     O_3   0.086058 0.931291 0.348375 -0.511512
H11   H     H_    0.103660 0.996430 0.310425 0.408692
S8    S     S_3+6 0.872795 0.171459 0.373698 0.130878
O34   O     O_2   0.841493 0.121632 0.476751 -0.117740
O35   O     O_2   0.843126 0.194851 0.256466 -0.201539
O36   O     O_3   0.915527 0.076409 0.335124 -0.496284
H12   H     H_    0.897954 0.011293 0.297084 0.406766

loop_
_geom_bond_atom_site_label_1
_geom_bond_atom_site_label_2
_geom_bond_distance
_ccdc_geom_bond_type
N4    C46   1.195742 T    
O30   H10   0.990633 S    
C39   H3    1.077331 S    
S1    O13   1.503182 D    
O36   H12   0.990493 S    
O3    C2    1.274767 A    
O18   H6    0.990437 S    
C11   C17   1.415201 A    
C32   C38   1.401797 A    
S5    O25   1.503083 D    
O1    C1    1.274809 A    
C19   C21   1.425824 A    
C22   C26   1.429779 A    
C32   C36   1.408892 A    
C26   S6    1.780903 S    
S2    O17   1.503167 D    
O33   H11   0.990446 S    
S8    O34   1.502926 D    
N1    C17   1.438882 S    
C7    C23   1.413871 A    
C41   C43   1.200452 T    
O7    Cu1   1.952265 S    
C5    C21   1.413789 A    
C20   C24   1.425518 A    
C42   C44   1.200450 T    
C5    O9    1.344825 S    
C28   C37   1.395309 A    
C10   C18   1.415820 A    
C25   S5    1.781180 S    
N3    C45   1.195739 T    
C34   C36   1.408565 A    
C12   S2    1.786315 S    
O3    Cu1   1.923755 S    
C6    O10   1.344717 S    
C31   C37   1.401560 A    
C16   Br2   1.939023 S    
C5    N1    1.363561 A    
C12   C18   1.414847 A    
C6    N2    1.363592 A    
Cu1   Cu2   2.619546 S    
C21   C25   1.429823 A    
S1    O14   1.503148 D    
O2    C2    1.274797 A    
O5    C3    1.279908 A    
C31   C34   1.418934 A    
C27   S7    1.781492 S    
Cu1   N4    1.968214 S    
C28   S8    1.780113 S    
C9    C13   1.408517 A    
C11   C15   1.408732 A    
C45   C46   1.505641 S    
C12   C16   1.408575 A    
O15   H5    0.990416 S    
C4    C30   1.478464 S    
O8    Cu2   1.952268 S    
O24   H8    0.990588 S    
C37   H1    1.078143 S    
S2    O16   1.503195 D    
C31   C35   1.408621 A    
C33   C35   1.408645 A    
C33   C39   1.401492 A    
C34   C40   1.401257 A    
C40   H4    1.077865 S    
C13   C29   1.412280 A    
C19   C23   1.425835 A    
C25   C40   1.395533 A    
C26   C39   1.395801 A    
C27   C38   1.395696 A    
S3    O19   1.503038 D    
S4    O24   1.682446 S    
O5    Cu1   1.952428 S    
O6    C4    1.279862 A    
O27   H9    0.990435 S    
C1    C41   1.426143 S    
S7    O32   1.503776 D    
C7    N1    1.363710 A    
C20   C35   1.418646 A    
C32   C33   1.419979 A    
S3    O20   1.502559 D    
S4    O23   1.502632 D    
C10   C14   1.408668 A    
S5    O27   1.683368 S    
S6    O29   1.503999 D    
S1    O15   1.681778 S    
C8    N2    1.363553 A    
C3    C29   1.476906 S    
O1    Cu1   1.923843 S    
S7    O31   1.503125 D    
O21   H7    0.990651 S    
C38   H2    1.077610 S    
O6    Cu2   1.952425 S    
C8    O12   1.344864 S    
C16   C30   1.413512 A    
C14   C30   1.413115 A    
O4    C1    1.274757 A    
C14   Br4   1.937998 S    
S6    O30   1.683607 S    
S8    O36   1.683120 S    
C2    C42   1.426139 S    
C20   C22   1.425297 A    
C15   Br1   1.938698 S    
S2    O18   1.681839 S    
S5    O26   1.503762 D    
Cu2   N3    1.968213 S    
S8    O35   1.503825 D    
S7    O33   1.683174 S    
O4    Cu2   1.923755 S    
O2    Cu2   1.923843 S    
O7    C4    1.280479 A    
N2    C18   1.439163 S    
O8    C3    1.279510 A    
C43   C44   1.403688 S    
C24   C28   1.428952 A    
S3    O21   1.682419 S    
C8    C24   1.413723 A    
S4    O22   1.503002 D    
C23   C27   1.429763 A    
C10   S4    1.785597 S    
S6    O28   1.502822 D    
C15   C29   1.412607 A    
C6    C22   1.414363 A    
C19   C36   1.418414 A    
C9    S3    1.785629 S    
C11   S1    1.786304 S    
C9    C17   1.416000 A    
C13   Br3   1.937900 S    
C7    O11   1.344755 S    
