data_mof_unit_35370.cif
_audit_creation_date              2012-12-10T18:11:36-0500
_audit_creation_method            fapswitch 2.2
_symmetry_space_group_name_H-M    P1
_symmetry_Int_Tables_number       1
_space_group_crystal_system       triclinic
_cell_length_a                    10.497974
_cell_length_b                    12.6553
_cell_length_c                    13.028861
_cell_angle_alpha                 81.373754
_cell_angle_beta                  91.189168
_cell_angle_gamma                 102.442638
_cell_volume                      1671.05244137

loop_
_atom_site_label
_atom_site_type_symbol
_atom_type_description
_atom_site_fract_x
_atom_site_fract_y
_atom_site_fract_z
_atom_type_partial_charge
C1    C     C_R   0.489681 0.438484 0.691527 0.831434
C2    C     C_3   0.067699 0.595564 0.525718 -0.142307
C3    C     C_3   0.963553 0.512556 0.595605 -0.234667
C4    C     C_3   0.877589 0.500821 0.500107 -0.066350
C5    C     C_R   0.716515 0.691757 0.071745 -0.124305
C6    C     C_R   0.552710 0.597694 0.200200 -0.071096
C7    C     C_R   0.393437 0.302520 0.840076 -0.188716
C8    C     C_R   0.364678 0.276493 0.945507 -0.131440
C9    C     C_R   0.418725 0.349774 0.012403 -0.175950
C10   C     C_R   0.508503 0.448483 0.974882 0.092610
C11   C     C_R   0.553068 0.464809 0.871854 0.073381
C12   C     C_R   0.742109 0.500651 0.499976 0.895227
C13   C     C_R   0.555569 0.531020 0.036444 0.072706
C14   C     C_R   0.664196 0.617799 0.002684 0.066189
C15   C     C_R   0.719583 0.624591 0.903180 -0.042519
C16   C     C_R   0.663485 0.547829 0.839635 -0.263871
C17   C     C_R   0.495262 0.529391 0.130990 -0.217767
C18   C     C_R   0.662249 0.680382 0.170435 -0.170299
C19   C     C_R   0.483991 0.398568 0.802449 -0.094464
C20   C     C_R   0.264388 0.077798 0.404275 -0.273167
C21   C     C_R   0.671756 0.802800 0.615576 0.055839
C22   C     C_R   0.710035 0.907569 0.641265 -0.206386
C23   C     C_R   0.517923 0.561349 0.308662 0.908452
C24   C     C_R   0.639712 0.986509 0.604308 -0.190051
C25   C     C_R   0.530307 0.960840 0.540854 0.022245
C26   C     C_R   0.494507 0.852935 0.515968 0.164140
C27   C     C_R   0.457931 0.039022 0.497360 -0.002528
C28   C     C_R   0.336176 0.002834 0.450855 0.153811
C29   C     C_R   0.293729 0.893390 0.441053 -0.330122
C30   C     C_R   0.384199 0.827004 0.451898 -0.053301
C31   C     C_R   0.503137 0.152204 0.494079 -0.035398
C32   C     C_R   0.315949 0.188367 0.400974 0.012881
C33   C     C_R   0.257903 0.499155 0.500661 0.917046
C34   C     C_3   0.932979 0.404521 0.475476 -0.202152
C35   C     C_3   0.021410 0.416450 0.571100 -0.172494
C36   C     C_3   0.122580 0.499111 0.500928 -0.035399
C37   C     C_3   0.037024 0.487334 0.405287 -0.185214
C38   C     C_3   0.979614 0.582418 0.430929 0.445981
H1    H     H_    0.043315 0.348515 0.628259 0.152326
H2    H     H_    0.405942 0.471256 0.155433 0.141321
H3    H     H_    0.341458 0.249823 0.787633 0.160703
H4    H     H_    0.391506 0.325851 0.093341 0.136469
H5    H     H_    0.295739 0.201781 0.974859 0.155461
H6    H     H_    0.706831 0.553398 0.763751 0.172220
H7    H     H_    0.260454 0.247589 0.367626 0.136188
H8    H     H_    0.204745 0.869043 0.398444 0.211317
H9    H     H_    0.171141 0.051285 0.368457 0.161780
H10   H     H_    0.592781 0.186780 0.529991 0.123910
H11   H     H_    0.726554 0.741449 0.643929 0.146824
H12   H     H_    0.874711 0.326393 0.455140 0.168634
H13   H     H_    0.671000 0.066090 0.628044 0.140406
H14   H     H_    0.794144 0.927699 0.689677 0.189776
H15   H     H_    0.071339 0.477604 0.327906 0.165191
H16   H     H_    0.125571 0.673838 0.545971 0.173031
H17   H     H_    0.929117 0.522578 0.672817 0.192559
H18   H     H_    0.709684 0.732326 0.225120 0.221465
H19   H     H_    0.803552 0.754665 0.053575 0.201621
N1    N     N_R   0.432930 0.222190 0.444670 -0.104985
N2    N     N_R   0.566370 0.776980 0.554790 -0.135931
O1    O     O_R   0.467970 0.366730 0.627150 -0.614752
O2    O     O_R   0.510820 0.544830 0.662520 -0.616261
O3    O     O_R   0.664630 0.410960 0.482340 -0.629239
O4    O     O_R   0.707470 0.589060 0.517710 -0.609049
O5    O     O_R   0.489180 0.455170 0.337480 -0.617000
O6    O     O_R   0.532030 0.633270 0.372850 -0.592663
O7    O     O_R   0.292530 0.410940 0.482290 -0.633617
O8    O     O_R   0.335370 0.589040 0.517660 -0.621379
Zn1   Zn    Zn3+2 0.471390 0.381080 0.476380 0.939716
Zn2   Zn    Zn3+2 0.528610 0.618920 0.523620 0.979003
C39   C     C_2   0.394305 0.783225 0.355177 1.005564
O9    O     O_2   0.303472 0.716011 0.326947 -0.635997
O10   O     O_R   0.500583 0.831160 0.288617 -0.800094
H20   H     H_    0.489101 0.805995 0.218121 0.339444
Cl1   Cl    Cl    0.949589 0.692815 0.338619 -0.644728
C40   C     C_2   0.831865 0.711893 0.859679 0.874508
O11   O     O_2   0.840015 0.806696 0.872953 -0.654035
O12   O     O_R   0.925086 0.686120 0.798120 -0.827610
H21   H     H_    0.994998 0.752412 0.770360 0.345926

loop_
_geom_bond_atom_site_label_1
_geom_bond_atom_site_label_2
_ccdc_geom_bond_type
C15   C40   S    
C34   C37   S    
C32   H7    S    
O7    Zn1   S    
C35   C36   S    
C8    H5    S    
C32   N1    A    
C21   H11   S    
C7    C8    A    
O12   H21   S    
C11   C19   A    
C9    H4    S    
C29   C30   A    
O5    Zn1   S    
C31   N1    A    
C36   C37   S    
C21   N2    A    
C38   Cl1   S    
O2    Zn2   S    
C15   C16   A    
C33   C36   S    
C34   C35   S    
C3    H17   S    
O4    Zn2   S    
C8    C9    A    
C39   O9    D    
C4    C12   S    
C9    C10   A    
C16   H6    S    
C18   H18   S    
C37   H15   S    
C24   H13   S    
C21   C22   A    
C30   C39   S    
C33   O7    A    
C6    C18   A    
C4    C34   S    
C34   H12   S    
C1    C19   S    
C27   C31   A    
C24   C25   A    
C2    H16   S    
C1    O1    A    
C12   O4    A    
C5    C18   A    
C20   C28   A    
C25   C26   A    
O8    Zn2   S    
C17   H2    S    
C35   H1    S    
C40   O11   D    
C37   C38   S    
C12   O3    A    
C11   C16   A    
C2    C38   S    
C3    C35   S    
C40   O12   S    
C5    C14   A    
N2    Zn2   S    
N1    Zn1   S    
C23   O5    A    
C4    C38   S    
C26   C30   A    
C7    C19   A    
C31   H10   S    
C22   C24   A    
C3    C4    S    
C33   O8    A    
C22   H14   S    
C20   C32   A    
C2    C36   S    
C6    C17   A    
C28   C29   A    
C5    H19   S    
O10   H20   S    
C10   C13   A    
C1    O2    A    
O3    Zn1   S    
C25   C27   A    
C13   C17   A    
C29   H8    S    
C23   O6    A    
C2    C3    S    
O6    Zn2   S    
C6    C23   S    
C7    H3    S    
C20   H9    S    
C10   C11   A    
O1    Zn1   S    
C27   C28   A    
C14   C15   A    
C26   N2    A    
C39   O10   S    
C13   C14   A    
