data_mof_unit_25756.cif
_audit_creation_date              2013-03-05T16:00:50-0500
_audit_creation_method            fapswitch 2.2
_symmetry_space_group_name_H-M    P1
_symmetry_Int_Tables_number       1
_space_group_crystal_system       triclinic
_cell_length_a                    20.458887
_cell_length_b                    22.090417
_cell_length_c                    14.187071
_cell_angle_alpha                 90.306234
_cell_angle_beta                  92.724985
_cell_angle_gamma                 89.932844
_cell_volume                      6404.43632097

loop_
_atom_site_label
_atom_site_type_symbol
_atom_site_description
_atom_site_fract_x
_atom_site_fract_y
_atom_site_fract_z
_atom_type_partial_charge
O1    O     O_R   0.066090 0.433930 0.580280 -0.642459
O2    O     O_R   0.933910 0.566070 0.419720 -0.643169
O3    O     O_R   0.933910 0.566070 0.580280 -0.630788
O4    O     O_R   0.066090 0.433930 0.419720 -0.634410
O5    O     O_R   0.933910 0.433930 0.419720 -0.634547
O6    O     O_R   0.066090 0.566070 0.580280 -0.642537
O7    O     O_R   0.066090 0.566070 0.419720 -0.612479
O8    O     O_R   0.933910 0.433930 0.580280 -0.617870
O9    O     O_R   0.566090 0.933930 0.580280 -0.637649
O10   O     O_R   0.433910 0.066070 0.419720 -0.639657
O11   O     O_R   0.433910 0.066070 0.580280 -0.645072
O12   O     O_R   0.566090 0.933930 0.419720 -0.640739
O13   O     O_R   0.433910 0.933930 0.419720 -0.625456
O14   O     O_R   0.566090 0.066070 0.580280 -0.622599
O15   O     O_R   0.566090 0.066070 0.419720 -0.612825
O16   O     O_R   0.433910 0.933930 0.580280 -0.608171
C1    C     C_R   0.087521 0.414149 0.500669 0.886404
C2    C     C_R   0.914331 0.587322 0.498551 0.879277
C3    C     C_R   0.914425 0.412441 0.499235 0.887579
C4    C     C_R   0.085216 0.587820 0.501795 0.877655
C5    C     C_R   0.586826 0.913919 0.501362 0.881766
C6    C     C_R   0.411581 0.084787 0.498062 0.876957
C7    C     C_R   0.412751 0.914094 0.498358 0.875628
C8    C     C_R   0.586885 0.086248 0.502123 0.882602
Zn1   Zn    Zn3+2 0.000000 0.500000 0.607200 0.938079
Zn2   Zn    Zn3+2 0.000000 0.500000 0.392800 0.938743
Zn3   Zn    Zn3+2 0.500000 0.000000 0.607200 0.942036
Zn4   Zn    Zn3+2 0.500000 0.000000 0.392800 0.937811
C9    C     C_R   0.115645 0.689312 0.444463 0.114791
C10   C     C_R   0.889016 0.304979 0.535157 0.115018
C11   C     C_R   0.881318 0.687657 0.557071 0.119341
C12   C     C_R   0.114133 0.307617 0.466702 0.093185
C13   C     C_R   0.616562 0.192641 0.537471 0.118887
C14   C     C_R   0.370390 0.819328 0.560064 0.120861
C15   C     C_R   0.376395 0.187043 0.455078 0.096696
C16   C     C_R   0.627730 0.818480 0.439298 0.113191
C17   C     C_R   0.127527 0.640845 0.507396 -0.075587
C18   C     C_R   0.868266 0.362353 0.500767 -0.075566
C19   C     C_R   0.870291 0.638861 0.493977 -0.104445
C20   C     C_R   0.134725 0.365007 0.499753 -0.085411
C21   C     C_R   0.635598 0.133780 0.509791 -0.046879
C22   C     C_R   0.363237 0.867203 0.495456 -0.087794
C23   C     C_R   0.360566 0.130261 0.491731 -0.084085
C24   C     C_R   0.635380 0.866514 0.504130 -0.102849
C25   C     C_R   0.178784 0.643992 0.577882 0.053218
C26   C     C_R   0.801059 0.374661 0.484064 0.098904
C27   C     C_R   0.818106 0.640052 0.424838 0.076547
C28   C     C_R   0.201701 0.376323 0.521152 0.092953
C29   C     C_R   0.702445 0.118955 0.501171 0.063382
C30   C     C_R   0.306761 0.872308 0.434130 0.073696
C31   C     C_R   0.295493 0.116494 0.514726 0.073596
C32   C     C_R   0.690846 0.870749 0.567328 0.080321
C33   C     C_R   0.217225 0.696417 0.585801 -0.012329
C34   C     C_R   0.754973 0.331586 0.510570 0.087681
C35   C     C_R   0.777960 0.691482 0.417641 0.073235
C36   C     C_R   0.247374 0.331044 0.500197 0.083476
C37   C     C_R   0.749930 0.163621 0.524023 0.000397
C38   C     C_R   0.260550 0.824862 0.430872 0.071371
C39   C     C_R   0.247062 0.162367 0.502668 0.074171
C40   C     C_R   0.736019 0.822532 0.571167 0.071310
C41   C     C_R   0.214460 0.737886 0.510271 -0.041750
C42   C     C_R   0.775971 0.271208 0.522886 -0.078246
C43   C     C_R   0.781356 0.734341 0.492264 -0.076307
C44   C     C_R   0.224456 0.270832 0.492353 -0.078848
C45   C     C_R   0.729470 0.224687 0.526805 -0.050621
C46   C     C_R   0.263654 0.781877 0.504619 -0.074542
C47   C     C_R   0.268843 0.222723 0.490196 -0.079173
C48   C     C_R   0.732911 0.779154 0.497083 -0.076835
C49   C     C_R   0.163470 0.734634 0.439848 0.088368
C50   C     C_R   0.843298 0.257442 0.532242 0.044131
C51   C     C_R   0.832528 0.731942 0.562577 0.086068
C52   C     C_R   0.157021 0.258953 0.482806 0.095691
C53   C     C_R   0.662766 0.239397 0.533849 0.092267
C54   C     C_R   0.316690 0.781825 0.572315 0.034624
C55   C     C_R   0.334615 0.235251 0.472398 0.097650
C56   C     C_R   0.680651 0.779712 0.428288 0.085160
C57   C     C_R   0.262697 0.706210 0.662871 0.427677
C58   C     C_R   0.689278 0.346817 0.526597 0.448178
C59   C     C_R   0.732250 0.699799 0.340719 0.449444
C60   C     C_R   0.314043 0.343497 0.486089 0.450819
C61   C     C_R   0.817422 0.150334 0.539980 0.436217
C62   C     C_R   0.210511 0.819890 0.358373 0.452065
C63   C     C_R   0.178414 0.151258 0.503831 0.461408
C64   C     C_R   0.784808 0.816982 0.644992 0.453230
C65   C     C_R   0.862864 0.196923 0.543754 -0.205851
C66   C     C_R   0.162459 0.775443 0.364626 -0.309923
C67   C     C_R   0.134533 0.199488 0.488694 -0.309096
C68   C     C_R   0.832967 0.772636 0.638603 -0.307782
C69   C     C_R   0.314086 0.745591 0.652623 -0.187739
C70   C     C_R   0.644174 0.300522 0.539449 -0.317890
C71   C     C_R   0.682746 0.742340 0.348689 -0.311115
C72   C     C_R   0.356645 0.295276 0.470681 -0.315403
H1    H     H_    0.913671 0.184489 0.555662 0.181010
H2    H     H_    0.125700 0.771652 0.307552 0.159946
H3    H     H_    0.082496 0.190597 0.487710 0.146642
H4    H     H_    0.869353 0.768790 0.696120 0.158577
H5    H     H_    0.350093 0.749803 0.710732 0.186941
H6    H     H_    0.594214 0.313308 0.550954 0.155704
H7    H     H_    0.646700 0.746932 0.290816 0.159368
H8    H     H_    0.407744 0.305140 0.461764 0.146132
C73   C     C_R   0.941578 0.497282 0.795815 0.444488
C74   C     C_R   0.058271 0.504474 0.204275 0.439122
C75   C     C_R   0.058210 0.501270 0.803696 0.428990
C76   C     C_R   0.941949 0.495417 0.196407 0.433094
C77   C     C_R   0.442398 0.991418 0.795740 0.438082
C78   C     C_R   0.557868 0.007105 0.204193 0.440671
C79   C     C_R   0.557606 0.008424 0.803445 0.431844
C80   C     C_R   0.442147 0.994396 0.196271 0.432435
N1    N     N_R   0.000000 0.500000 0.750030 -0.217549
N2    N     N_R   0.000000 0.500000 0.249970 -0.216740
N3    N     N_R   0.500000 0.000000 0.750030 -0.214233
N4    N     N_R   0.500000 0.000000 0.249970 -0.215325
C81   C     C_R   0.059009 0.502750 0.903618 0.016630
C82   C     C_R   0.941049 0.495621 0.096474 0.016518
C83   C     C_R   0.940932 0.496407 0.895674 0.007354
C84   C     C_R   0.058987 0.504382 0.104416 0.006453
C85   C     C_R   0.558458 0.008870 0.903458 0.013020
C86   C     C_R   0.441548 0.992288 0.096344 0.013552
C87   C     C_R   0.441725 0.990813 0.895560 0.005939
C88   C     C_R   0.558507 0.008481 0.104337 0.006663
C89   C     C_R   0.999970 0.499904 0.949776 -0.038031
C90   C     C_R   0.999993 0.500042 0.050321 -0.037676
C91   C     C_R   0.500109 0.999831 0.949642 -0.034588
C92   C     C_R   0.500084 0.000023 0.050188 -0.037410
C93   C     C_R   0.118002 0.506627 0.958608 -0.151896
C94   C     C_R   0.882066 0.491787 0.041475 -0.148572
C95   C     C_R   0.881983 0.492418 0.942782 -0.147782
C96   C     C_R   0.117969 0.507805 0.057305 -0.148699
C97   C     C_R   0.616823 0.017512 0.958531 -0.148379
C98   C     C_R   0.383154 0.983662 0.041336 -0.145210
C99   C     C_R   0.383294 0.982604 0.942622 -0.152866
C100  C     C_R   0.616882 0.017145 0.057290 -0.151136
H9    H     H_    0.164601 0.509085 0.925679 0.202657
H10   H     H_    0.835520 0.488523 0.074381 0.201863
H11   H     H_    0.835318 0.489616 0.903678 0.204041
H12   H     H_    0.164599 0.511002 0.096423 0.203842
H13   H     H_    0.662901 0.024398 0.925626 0.200816
H14   H     H_    0.336969 0.977486 0.074277 0.203189
H15   H     H_    0.337159 0.975751 0.903426 0.200778
H16   H     H_    0.663049 0.023723 0.096523 0.200125
C101  C     C_3   0.052576 0.693367 0.383623 -0.845487
H17   H     H_    0.012360 0.666639 0.412165 0.244664
H18   H     H_    0.034114 0.740664 0.382229 0.230120
H19   H     H_    0.061189 0.677854 0.310683 0.257720
C102  C     C_3   0.956747 0.294362 0.580918 -0.896977
H20   H     H_    0.988023 0.335033 0.585247 0.262696
H21   H     H_    0.951718 0.278517 0.654362 0.256819
H22   H     H_    0.983375 0.259307 0.541951 0.231856
C103  C     C_3   0.944846 0.693397 0.616720 -0.852609
H23   H     H_    0.985687 0.667982 0.586633 0.242984
H24   H     H_    0.961606 0.741204 0.618916 0.231135
H25   H     H_    0.937594 0.677344 0.689506 0.252441
C104  C     C_3   0.055022 0.301443 0.398408 -0.851099
H26   H     H_    0.011733 0.325192 0.423899 0.248223
H27   H     H_    0.066876 0.322800 0.330658 0.260898
H28   H     H_    0.041368 0.253949 0.381958 0.233576
C105  C     C_3   0.548853 0.206371 0.572218 -0.900616
H29   H     H_    0.516706 0.166510 0.576675 0.259451
H30   H     H_    0.553968 0.225972 0.644424 0.256074
H31   H     H_    0.523049 0.239567 0.525461 0.230029
C106  C     C_3   0.434773 0.807713 0.615317 -0.836664
H32   H     H_    0.477351 0.826360 0.579653 0.236281
H33   H     H_    0.433103 0.827736 0.687123 0.261022
H34   H     H_    0.444272 0.758318 0.620911 0.230251
C107  C     C_3   0.430716 0.192998 0.385996 -0.845078
H35   H     H_    0.437582 0.239448 0.359496 0.230437
H36   H     H_    0.478017 0.176231 0.416055 0.247822
H37   H     H_    0.417700 0.164948 0.322704 0.263530
C108  C     C_3   0.563343 0.807636 0.383390 -0.839758
H38   H     H_    0.552720 0.758404 0.378189 0.232916
H39   H     H_    0.520934 0.827528 0.418316 0.239017
H40   H     H_    0.565833 0.826813 0.311464 0.251513
C109  C     C_3   0.199412 0.588569 0.633788 -0.779415
H41   H     H_    0.253460 0.585726 0.644363 0.266894
H42   H     H_    0.176306 0.588838 0.702677 0.280352
H43   H     H_    0.185233 0.547349 0.594850 0.214043
C110  C     C_3   0.779392 0.432361 0.436005 -0.797146
H44   H     H_    0.730437 0.427970 0.399561 0.273669
H45   H     H_    0.779217 0.469489 0.488969 0.255015
H46   H     H_    0.812177 0.442524 0.378547 0.237398
C111  C     C_3   0.799955 0.584193 0.367327 -0.708707
H47   H     H_    0.746075 0.577674 0.362099 0.252049
H48   H     H_    0.819742 0.587442 0.296091 0.300120
H49   H     H_    0.818831 0.543233 0.401932 0.192146
C112  C     C_3   0.223157 0.435050 0.566680 -0.789763
H50   H     H_    0.270758 0.430745 0.606877 0.278770
H51   H     H_    0.225926 0.470407 0.511730 0.253510
H52   H     H_    0.188574 0.447796 0.620756 0.230308
C113  C     C_3   0.722941 0.058775 0.459285 -0.798320
H53   H     H_    0.756596 0.066897 0.401531 0.271453
H54   H     H_    0.747388 0.029428 0.512632 0.238901
H55   H     H_    0.681706 0.032181 0.428705 0.227748
C114  C     C_3   0.292005 0.930329 0.380937 -0.705347
H56   H     H_    0.303306 0.924219 0.305978 0.318255
H57   H     H_    0.239693 0.942770 0.386197 0.248394
H58   H     H_    0.319455 0.969551 0.410501 0.191820
C115  C     C_3   0.277996 0.053600 0.547763 -0.752969
H59   H     H_    0.253836 0.056683 0.616068 0.275363
H60   H     H_    0.245475 0.030946 0.493930 0.272586
H61   H     H_    0.320272 0.023086 0.558641 0.193460
C116  C     C_3   0.705190 0.928578 0.622544 -0.727127
H62   H     H_    0.689624 0.923631 0.695942 0.296611
H63   H     H_    0.758106 0.939712 0.622509 0.253174
H64   H     H_    0.680458 0.968288 0.590151 0.191234
O17   O     O_3   0.257379 0.679900 0.749974 -0.758470
H65   H     H_    0.210110 0.677482 0.761860 0.340854
O18   O     O_3   0.671050 0.406744 0.536737 -0.766213
H66   H     H_    0.623724 0.409232 0.548463 0.335405
O19   O     O_3   0.737734 0.667680 0.257473 -0.774964
H67   H     H_    0.702106 0.679502 0.211361 0.338723
O20   O     O_3   0.335551 0.402539 0.478793 -0.768514
H68   H     H_    0.383032 0.402829 0.467621 0.335312
O21   O     O_3   0.840425 0.093325 0.561265 -0.762803
H69   H     H_    0.812671 0.077623 0.611101 0.337250
O22   O     O_3   0.211264 0.855831 0.278910 -0.776308
H70   H     H_    0.173007 0.846429 0.235799 0.339404
O23   O     O_3   0.154288 0.093546 0.515546 -0.782739
H71   H     H_    0.105792 0.094454 0.514444 0.342056
O24   O     O_3   0.782723 0.852393 0.725509 -0.775292
H72   H     H_    0.820214 0.842503 0.769636 0.338495
O25   O     O_3   0.881763 0.494436 0.747204 -0.768703
H73   H     H_    0.887771 0.501262 0.680307 0.394611
O26   O     O_3   0.117808 0.509496 0.253135 -0.770119
H74   H     H_    0.112528 0.498512 0.318911 0.392245
O27   O     O_3   0.117408 0.499638 0.762365 -0.803745
H75   H     H_    0.108721 0.499171 0.694071 0.383764
O28   O     O_3   0.883096 0.490246 0.238038 -0.798037
H76   H     H_    0.891155 0.498030 0.305426 0.380929
O29   O     O_3   0.383652 0.983162 0.746400 -0.773987
H77   H     H_    0.387358 0.001362 0.684250 0.382207
O30   O     O_3   0.616860 0.013821 0.253420 -0.775568
H78   H     H_    0.612544 0.996098 0.315729 0.379757
O31   O     O_3   0.616002 0.016621 0.761507 -0.782269
H79   H     H_    0.609606 0.003646 0.695686 0.382116
O32   O     O_3   0.383018 0.992353 0.237577 -0.795212
H80   H     H_    0.390585 0.003080 0.304168 0.384481

loop_
_geom_bond_atom_site_label_1
_geom_bond_atom_site_label_2
_geom_bond_distance
_ccdc_geom_bond_type
C63   C67   1.403243 A    
C74   N2    1.387705 A    
C68   H4    1.081699 S    
C105  H29   1.103545 S    
C83   C89   1.401943 A    
O10   Zn4   2.035388 S    
C113  H55   1.099407 S    
C31   C115  1.517303 S    
C108  H38   1.110695 S    
O26   H74   0.976439 S    
C14   C22   1.406173 A    
C27   C111  1.512530 S    
C14   C106  1.522660 S    
C23   C31   1.419370 A    
C106  H34   1.110705 S    
C106  H32   1.108823 S    
C116  H63   1.110491 S    
C29   C37   1.411153 A    
C91   C92   1.426462 A    
C12   C52   1.399678 A    
C78   N4    1.386613 A    
C111  H47   1.110788 S    
O10   C6    1.287596 A    
C12   C104  1.519025 S    
C10   C18   1.417840 A    
C16   C108  1.523511 S    
C107  H35   1.106102 S    
C7    C22   1.448747 S    
C84   C90   1.402263 A    
C32   C40   1.408957 A    
O12   Zn4   2.014081 S    
C54   C69   1.399011 A    
C27   C35   1.402458 A    
C75   C81   1.417129 A    
C95   H11   1.082819 S    
C53   C70   1.405268 A    
C25   C109  1.511121 S    
C101  H18   1.110531 S    
C63   O23   1.381352 S    
C30   C114  1.513680 S    
C112  H51   1.109865 S    
O6    Zn1   2.040581 S    
C29   C113  1.519926 S    
C93   H9    1.082971 S    
C46   C54   1.414452 A    
C45   C53   1.410501 A    
C78   O30   1.373153 S    
O13   C7    1.294473 A    
O3    C2    1.298651 A    
C20   C28   1.411616 A    
C32   C116  1.516580 S    
C116  H62   1.109265 S    
O14   C8    1.288320 A    
C115  H60   1.106700 S    
C58   O18   1.383529 S    
C16   C56   1.393749 A    
C39   C47   1.420899 A    
C43   C48   1.403694 A    
C65   H1    1.080561 S    
C41   C46   1.405175 A    
C38   C46   1.415799 A    
C61   O21   1.373987 S    
C100  H16   1.082848 S    
O28   H76   0.976766 S    
C110  H45   1.109497 S    
C35   C43   1.415798 A    
C93   C96   1.400358 A    
C87   C99   1.409059 A    
O32   H80   0.977969 S    
C36   C44   1.412934 A    
O13   Zn4   2.040584 S    
C79   C85   1.418160 A    
C4    C17   1.456892 S    
O14   Zn3   2.040581 S    
C104  H27   1.110200 S    
C15   C23   1.404490 A    
O31   H79   0.978208 S    
Zn2   N2    2.026341 S    
C59   C71   1.388950 A    
O9    Zn3   2.035389 S    
Zn1   N1    2.026339 S    
C97   C100  1.401103 A    
C24   C32   1.415250 A    
O16   Zn3   2.013421 S    
C11   C51   1.401360 A    
C77   N3    1.385559 A    
C80   O32   1.369913 S    
Zn3   N3    2.026339 S    
C107  H36   1.103236 S    
C109  H41   1.110568 S    
O1    Zn1   2.035389 S    
C8    C21   1.448602 S    
C108  H39   1.108634 S    
C26   C110  1.505069 S    
C115  H59   1.110295 S    
C33   C41   1.412519 A    
C21   C29   1.416690 A    
C102  H21   1.110375 S    
C15   C55   1.392894 A    
C13   C105  1.521915 S    
C74   O26   1.376843 S    
C102  H20   1.103369 S    
C9    C49   1.404676 A    
C109  H42   1.105679 S    
C66   H2    1.081549 S    
C111  H48   1.109113 S    
O8    C3    1.287359 A    
O18   H66   0.991597 S    
C30   C38   1.411430 A    
C44   C47   1.398231 A    
C80   C86   1.417655 A    
O3    Zn1   2.014081 S    
C74   C84   1.417468 A    
C38   C62   1.420200 A    
O19   H67   0.991730 S    
C5    C24   1.441948 S    
C103  H25   1.110252 S    
C37   C45   1.412870 A    
O24   H72   0.991651 S    
C112  H52   1.103299 S    
C106  H33   1.110435 S    
C34   C42   1.409974 A    
C114  H57   1.110499 S    
O23   H71   0.991726 S    
O21   H69   0.991905 S    
O12   C5    1.294318 A    
O7    C4    1.300356 A    
C101  H19   1.110284 S    
C58   C70   1.396734 A    
C97   H13   1.082907 S    
C80   N4    1.382108 A    
C83   C95   1.409415 A    
C69   H5    1.082857 S    
C1    C20   1.452537 S    
C77   O29   1.373655 S    
C60   C72   1.398426 A    
C115  H61   1.101503 S    
C33   C57   1.417399 A    
C2    C19   1.450898 S    
C59   O19   1.383568 S    
O29   H77   0.977258 S    
C86   C98   1.408144 A    
C3    C18   1.456446 S    
C57   O17   1.377410 S    
O25   H73   0.975321 S    
C35   C59   1.415614 A    
O20   H68   0.991700 S    
O11   Zn3   2.014081 S    
C110  H46   1.104137 S    
C9    C101  1.520734 S    
C26   C34   1.405516 A    
O27   H75   0.976713 S    
C81   C89   1.402689 A    
O2    Zn2   2.035388 S    
C86   C92   1.403016 A    
C48   C56   1.413070 A    
C104  H28   1.106843 S    
C51   C68   1.400098 A    
O7    Zn2   2.013418 S    
C40   C48   1.417742 A    
C89   C90   1.426403 A    
C55   C72   1.401695 A    
C22   C30   1.417686 A    
C60   O20   1.382955 S    
C76   C82   1.417040 A    
O4    C1    1.288075 A    
C13   C53   1.403745 A    
O15   C8    1.301529 A    
C96   H12   1.082825 S    
C43   C51   1.412473 A    
C110  H44   1.109202 S    
O16   C7    1.295118 A    
C73   C83   1.417626 A    
C116  H64   1.103573 S    
C37   C61   1.419172 A    
C16   C24   1.404527 A    
C47   C55   1.408889 A    
C17   C25   1.415697 A    
C98   H14   1.082965 S    
C75   O27   1.370814 S    
C52   C67   1.396584 A    
C85   C97   1.408182 A    
C102  H22   1.106875 S    
C72   H8    1.081581 S    
C76   O28   1.371244 S    
C19   C27   1.415377 A    
C111  H49   1.093051 S    
C73   O25   1.377181 S    
C28   C36   1.408202 A    
O17   H65   0.991065 S    
C67   H3    1.082218 S    
C42   C45   1.404365 A    
C78   C88   1.417841 A    
C88   C100  1.409301 A    
C57   C69   1.378870 A    
C79   N3    1.382744 A    
C64   C68   1.394239 A    
C39   C63   1.426907 A    
O2    C2    1.291581 A    
O4    Zn2   2.014081 S    
C42   C50   1.410476 A    
C109  H43   1.094733 S    
O5    C3    1.306047 A    
C87   C91   1.402450 A    
C105  H31   1.107929 S    
C107  H37   1.110333 S    
O6    C4    1.292815 A    
O11   C6    1.301638 A    
O1    C1    1.303913 A    
C36   C60   1.415466 A    
C75   N1    1.382877 A    
Zn4   N4    2.026341 S    
C41   C49   1.411356 A    
C103  H24   1.110548 S    
C98   C99   1.400675 A    
C85   C91   1.403767 A    
C13   C21   1.415796 A    
C28   C112  1.502766 S    
C62   C66   1.396367 A    
C103  H23   1.107155 S    
O8    Zn1   2.013421 S    
C114  H58   1.103120 S    
C76   N2    1.382711 A    
C62   O22   1.383025 S    
C40   C64   1.417749 A    
O9    C5    1.291648 A    
O15   Zn4   2.013418 S    
C94   C95   1.400224 A    
C11   C103  1.521876 S    
C81   C93   1.408069 A    
C15   C107  1.522570 S    
C34   C58   1.413698 A    
C11   C19   1.408934 A    
C64   O24   1.383322 S    
C12   C20   1.407373 A    
O22   H70   0.991633 S    
C79   O31   1.372348 S    
C113  H53   1.110469 S    
C18   C26   1.410487 A    
C99   H15   1.082863 S    
C56   C71   1.397561 A    
C25   C33   1.401658 A    
O5    Zn2   2.040584 S    
C82   C90   1.403052 A    
C10   C102  1.520513 S    
C10   C50   1.406239 A    
C31   C39   1.421726 A    
C94   H10   1.082944 S    
C105  H30   1.110397 S    
C114  H56   1.106518 S    
C84   C96   1.409255 A    
C9    C17   1.411223 A    
O30   H78   0.976571 S    
C82   C94   1.407901 A    
C77   C87   1.417008 A    
C112  H50   1.109151 S    
C14   C54   1.394767 A    
C108  H40   1.110367 S    
C113  H54   1.100790 S    
C71   H7    1.082321 S    
C101  H17   1.106753 S    
C50   C65   1.403212 A    
C73   N1    1.388724 A    
C70   H6    1.079740 S    
C6    C23   1.447778 S    
C61   C65   1.386832 A    
C49   C66   1.400039 A    
C88   C92   1.401928 A    
C44   C52   1.404752 A    
C104  H26   1.103516 S    
