data_mof_unit_49747.cif
_audit_creation_date              2012-12-10T18:54:27-0500
_audit_creation_method            fapswitch 2.2
_symmetry_space_group_name_H-M    P1
_symmetry_Int_Tables_number       1
_space_group_crystal_system       triclinic
_cell_length_a                    19.418925
_cell_length_b                    18.38246
_cell_length_c                    9.069991
_cell_angle_alpha                 89.995372
_cell_angle_beta                  92.601253
_cell_angle_gamma                 90.017739
_cell_volume                      3234.35667469

loop_
_atom_site_label
_atom_site_type_symbol
_atom_type_description
_atom_site_fract_x
_atom_site_fract_y
_atom_site_fract_z
_atom_type_partial_charge
C1    C     C_R   0.367704 0.499941 0.500394 0.865967
C2    C     C_R   0.632282 0.500001 0.499473 0.866272
C3    C     C_R   0.445240 0.722418 0.439160 0.281680
C4    C     C_R   0.530205 0.278349 0.616678 0.269996
C5    C     C_R   0.554860 0.722331 0.560783 0.278162
C6    C     C_R   0.469809 0.278396 0.383231 0.268164
C7    C     C_R   0.439980 0.797985 0.462776 0.364353
C8    C     C_R   0.519791 0.201649 0.628769 0.337471
C9    C     C_R   0.560307 0.797880 0.537061 0.367965
C10   C     C_R   0.480355 0.201737 0.370807 0.337790
C11   C     C_R   0.500209 0.839038 0.499817 -0.118176
C12   C     C_R   0.500126 0.162324 0.499698 -0.027344
C13   C     C_R   0.543649 0.963198 0.599255 0.375930
C14   C     C_R   0.449512 0.038871 0.418073 0.358566
C15   C     C_R   0.456982 0.963113 0.399753 0.374571
C16   C     C_R   0.551006 0.038972 0.580893 0.357282
C17   C     C_R   0.500214 0.079402 0.499543 -0.135978
C18   C     C_R   0.500317 0.922273 0.499561 -0.205701
C19   C     C_R   0.499878 0.500010 0.220801 0.864293
C20   C     C_R   0.500121 0.500006 0.779199 0.864452
C21   C     C_1   0.499956 0.500003 0.065588 -0.121137
C22   C     C_1   0.500043 0.499999 0.934412 -0.121169
C23   C     C_R   0.744610 0.434488 0.511884 -0.247025
C24   C     C_R   0.255609 0.564945 0.512374 -0.236444
C25   C     C_R   0.255655 0.433774 0.487923 -0.259170
C26   C     C_R   0.744031 0.565697 0.486040 -0.252026
C27   C     C_R   0.816562 0.434283 0.513709 0.435406
C28   C     C_R   0.183676 0.565173 0.509023 0.429692
C29   C     C_R   0.183255 0.432813 0.484187 0.452143
C30   C     C_R   0.816385 0.566652 0.490317 0.447511
C31   C     C_R   0.852343 0.500306 0.500031 -0.113116
C32   C     C_R   0.147362 0.498875 0.498389 -0.111499
C33   C     C_R   0.707974 0.500051 0.499342 -0.160512
C34   C     C_R   0.291979 0.499616 0.500034 -0.162052
C35   C     C_R   0.966516 0.531305 0.616984 -0.169588
C36   C     C_R   0.032648 0.467958 0.381190 -0.154251
C37   C     C_R   0.038213 0.530497 0.617167 -0.114069
C38   C     C_R   0.960958 0.468150 0.381751 -0.115531
C39   C     C_R   0.071633 0.498922 0.499141 0.175666
C40   C     C_R   0.927769 0.500017 0.499416 0.191273
Cu1   Cu    Cu3+1 0.500000 0.573360 0.500000 1.025464
Cu2   Cu    Cu3+1 0.500000 0.426640 0.500000 1.036055
H1    H     H_    0.717711 0.383132 0.520295 0.205048
H2    H     H_    0.282678 0.616191 0.525314 0.206486
H3    H     H_    0.283583 0.382971 0.483655 0.197446
H4    H     H_    0.716014 0.616071 0.469471 0.196415
H5    H     H_    0.941171 0.555666 0.708795 0.134553
H6    H     H_    0.057738 0.444198 0.288464 0.140608
H7    H     H_    0.067679 0.554146 0.709444 0.156722
H8    H     H_    0.931293 0.444110 0.290170 0.144113
N1    N     N_R   0.500000 0.683620 0.500000 -0.270616
N2    N     N_R   0.500000 0.316380 0.500000 -0.237760
O1    O     O_R   0.400190 0.561980 0.499980 -0.557539
O2    O     O_R   0.599810 0.438020 0.500020 -0.555033
O3    O     O_R   0.599810 0.561980 0.500020 -0.557061
O4    O     O_R   0.400190 0.438020 0.499980 -0.554987
O5    O     O_R   0.500000 0.561940 0.288400 -0.554009
O6    O     O_R   0.500000 0.438060 0.711600 -0.535964
O7    O     O_R   0.500000 0.561940 0.711600 -0.553162
O8    O     O_R   0.500000 0.438060 0.288400 -0.535222
O9    O     O_3   0.851968 0.369077 0.522171 -0.571124
C41   C     C_3   0.857848 0.347452 0.671332 -0.279558
H9    H     H_    0.806434 0.335672 0.715311 0.173926
H10   H     H_    0.885496 0.389135 0.740742 0.154753
H11   H     H_    0.888517 0.296589 0.679020 0.194789
O10   O     O_3   0.148864 0.630246 0.522610 -0.579965
C42   C     C_3   0.143525 0.663913 0.382919 -0.261546
H12   H     H_    0.115612 0.628651 0.300121 0.155234
H13   H     H_    0.195165 0.678980 0.343994 0.190838
H14   H     H_    0.113372 0.714801 0.392444 0.194490
O11   O     O_3   0.146688 0.367824 0.481736 -0.568117
C43   C     C_3   0.164725 0.324484 0.360844 -0.301103
H15   H     H_    0.212788 0.293564 0.387727 0.178573
H16   H     H_    0.169777 0.356912 0.258016 0.156388
H17   H     H_    0.123085 0.284123 0.338427 0.192702
O12   O     O_3   0.852902 0.630643 0.470881 -0.574157
C44   C     C_3   0.835263 0.682973 0.576703 -0.268440
H18   H     H_    0.831937 0.659152 0.689199 0.162237
H19   H     H_    0.786372 0.710849 0.542506 0.188621
H20   H     H_    0.876276 0.725010 0.583279 0.190260
Br1   Br    Br    0.377197 0.680164 0.304952 -0.467549
Br2   Br    Br    0.597984 0.326255 0.744829 -0.552850
Br3   Br    Br    0.622858 0.680026 0.695023 -0.472491
Br4   Br    Br    0.401806 0.326256 0.255599 -0.558309
O13   O     O_3   0.375926 0.830201 0.444236 -0.483773
C45   C     C_3   0.348207 0.838402 0.584209 -0.247388
H21   H     H_    0.379889 0.876108 0.655272 0.127376
H22   H     H_    0.342669 0.784883 0.640040 0.156773
H23   H     H_    0.296005 0.862517 0.569300 0.189328
O14   O     O_3   0.510708 0.166738 0.763254 -0.589358
C46   C     C_3   0.566190 0.175403 0.867409 -0.137345
H24   H     H_    0.556293 0.221948 0.941266 0.193128
H25   H     H_    0.617025 0.180569 0.816580 0.203509
H26   H     H_    0.568976 0.126152 0.938140 0.182018
O15   O     O_3   0.624399 0.830028 0.555677 -0.484606
C47   C     C_3   0.652950 0.836338 0.416153 -0.267629
H27   H     H_    0.621543 0.872945 0.342125 0.134112
H28   H     H_    0.658987 0.782066 0.363693 0.154553
H29   H     H_    0.705028 0.860782 0.431075 0.186979
O16   O     O_3   0.489459 0.166987 0.236175 -0.588226
C48   C     C_3   0.434005 0.175747 0.132003 -0.138185
H30   H     H_    0.443860 0.222482 0.058568 0.193329
H31   H     H_    0.383145 0.180651 0.182811 0.201916
H32   H     H_    0.431321 0.126647 0.060844 0.182353
O17   O     O_3   0.581628 0.930347 0.713014 -0.467938
C49   C     C_3   0.540414 0.926567 0.836521 -0.245974
H33   H     H_    0.494352 0.891585 0.813894 0.127597
H34   H     H_    0.524547 0.981777 0.872425 0.147038
H35   H     H_    0.571210 0.901562 0.929208 0.184204
O18   O     O_3   0.393360 0.072559 0.349370 -0.538560
C50   C     C_3   0.341040 0.077824 0.451551 -0.284823
H36   H     H_    0.357624 0.111999 0.548106 0.156414
H37   H     H_    0.324567 0.023032 0.488829 0.175255
H38   H     H_    0.295561 0.104515 0.396485 0.183305
O19   O     O_3   0.419046 0.930156 0.286039 -0.467925
C51   C     C_3   0.460309 0.926339 0.162619 -0.245444
H39   H     H_    0.506421 0.891485 0.185469 0.127656
H40   H     H_    0.476102 0.981551 0.126501 0.146992
H41   H     H_    0.429580 0.901176 0.070000 0.184175
O20   O     O_3   0.607144 0.072784 0.649435 -0.539693
C52   C     C_3   0.659477 0.077916 0.547256 -0.278733
H42   H     H_    0.642905 0.111957 0.450495 0.157340
H43   H     H_    0.675943 0.023078 0.510307 0.174129
H44   H     H_    0.704957 0.104686 0.602190 0.187145

loop_
_geom_bond_atom_site_label_1
_geom_bond_atom_site_label_2
_ccdc_geom_bond_type
C15   C18   A    
C11   C18   S    
C48   H30   S    
Cu1   Cu2   S    
O15   C47   S    
C4    C8    A    
C35   H5    S    
Cu2   O6    S    
C23   H1    S    
C44   H18   S    
C19   O5    A    
C7    C11   A    
C13   C18   A    
C4    N2    A    
C35   C37   A    
C1    O4    A    
C29   C32   A    
C3    C7    A    
C2    O3    A    
C16   O20   S    
C30   C31   A    
C5    Br3   S    
C45   H22   S    
C49   H33   S    
O19   C51   S    
C47   H29   S    
C30   O12   S    
C51   H39   S    
C32   C39   S    
C1    O1    A    
O18   C50   S    
Cu1   O3    S    
C52   H44   S    
C41   H10   S    
C27   O9    S    
Cu2   O4    S    
C31   C40   S    
C50   H36   S    
C16   C17   A    
C23   C33   A    
C47   H28   S    
C12   C17   S    
C3    Br1   S    
C23   C27   A    
C9    O15   S    
C25   C34   A    
O10   C42   S    
C48   H31   S    
C21   C22   T    
C14   C17   A    
C43   H17   S    
C1    C34   S    
C44   H19   S    
C25   C29   A    
C6    Br4   S    
C27   C31   A    
C42   H12   S    
C28   C32   A    
O12   C44   S    
Cu1   O7    S    
C13   O17   S    
C2    O2    A    
Cu2   O8    S    
C46   H24   S    
C3    N1    A    
C45   H21   S    
O13   C45   S    
C24   C34   A    
C42   H13   S    
C28   O10   S    
C5    C9    A    
C41   H9    S    
C46   H25   S    
C37   H7    S    
C26   C33   A    
C8    C12   A    
C47   H27   S    
C50   H37   S    
C20   O7    A    
C10   O16   S    
C9    C11   A    
Cu1   O1    S    
C52   H42   S    
C10   C12   A    
C2    C33   S    
C43   H16   S    
C20   C22   S    
C26   C30   A    
C48   H32   S    
C24   H2    S    
C15   O19   S    
C8    O14   S    
C20   O6    A    
C25   H3    S    
O20   C52   S    
C44   H20   S    
C14   O18   S    
C41   H11   S    
C19   C21   S    
C36   C39   A    
C24   C28   A    
C43   H15   S    
C45   H23   S    
C6    C10   A    
C38   H8    S    
C19   O8    A    
O17   C49   S    
C51   H41   S    
C42   H14   S    
C36   C38   A    
C35   C40   A    
Cu1   O5    S    
O11   C43   S    
C37   C39   A    
Cu2   O2    S    
C46   H26   S    
C38   C40   A    
O14   C46   S    
C7    O13   S    
C49   H34   S    
O16   C48   S    
C51   H40   S    
C36   H6    S    
C50   H38   S    
O9    C41   S    
C52   H43   S    
C26   H4    S    
C4    Br2   S    
C13   C16   A    
C14   C15   A    
C5    N1    A    
C6    N2    A    
Cu1   N1    S    
Cu2   N2    S    
C29   O11   S    
C49   H35   S    
