data_mof_unit_49935.cif
_audit_creation_date              2012-12-11T14:45:55-0500
_audit_creation_method            fapswitch 2.2
_symmetry_space_group_name_H-M    P1
_symmetry_Int_Tables_number       1
_space_group_crystal_system       triclinic
_cell_length_a                    10.886902
_cell_length_b                    10.950196
_cell_length_c                    18.884473
_cell_angle_alpha                 89.829303
_cell_angle_beta                  90.400386
_cell_angle_gamma                 119.768809
_cell_volume                      1954.15080027

loop_
_atom_site_label
_atom_site_type_symbol
_atom_type_description
_atom_site_fract_x
_atom_site_fract_y
_atom_site_fract_z
_atom_type_partial_charge
C1    C     C_R   0.864585 0.636343 0.603660 0.565438
C2    C     C_R   0.459104 0.678392 0.775983 -0.005951
C3    C     C_R   0.435403 0.665637 0.703513 0.231466
C4    C     C_R   0.314450 0.665933 0.676967 0.022471
C5    C     C_R   0.823733 0.142730 0.817854 -0.004530
C6    C     C_R   0.081147 0.244806 0.827896 -0.061937
C7    C     C_R   0.212092 0.282040 0.797374 0.245947
C8    C     C_R   0.218557 0.261435 0.725132 -0.073460
C9    C     C_R   0.097037 0.209531 0.683084 -0.141344
C10   C     C_R   0.965679 0.180703 0.712079 -0.001532
C11   C     C_R   0.956301 0.187778 0.786445 -0.005327
C12   C     C_R   0.269080 0.631433 0.604122 0.521069
C13   C     C_R   0.710860 0.087779 0.700424 0.011033
C14   C     C_R   0.701937 0.106577 0.773446 0.005498
C15   C     C_R   0.586611 0.025074 0.658230 -0.064684
C16   C     C_R   0.459241 0.004870 0.684710 -0.105993
C17   C     C_R   0.453001 0.043069 0.753834 -0.134025
C18   C     C_R   0.571883 0.093446 0.797683 -0.088170
C19   C     C_R   0.844419 0.146264 0.669111 -0.025570
C20   C     C_R   0.729877 0.529561 0.714696 0.247646
C21   C     C_R   0.722656 0.542800 0.788670 0.182106
C22   C     C_R   0.809632 0.674028 0.820310 0.047858
C23   C     C_R   0.861831 0.221735 0.601297 0.527284
C24   C     C_R   0.899776 0.792965 0.778386 0.166385
C25   C     C_R   0.896513 0.780431 0.705769 -0.180458
C26   C     C_R   0.819980 0.649845 0.674075 0.035446
C27   C     C_R   0.247658 0.542706 0.276318 -0.138942
C28   C     C_R   0.264175 0.558163 0.204065 -0.136252
C29   C     C_R   0.340995 0.692136 0.174923 -0.025108
C30   C     C_R   0.393043 0.811733 0.218600 -0.056478
C31   C     C_R   0.377955 0.797677 0.291964 0.232713
C32   C     C_R   0.306155 0.660705 0.321186 0.018484
C33   C     C_R   0.746636 0.194452 0.281110 -0.140227
C34   C     C_R   0.864782 0.638662 0.397661 0.540182
C35   C     C_R   0.749064 0.190211 0.208799 -0.174502
C36   C     C_R   0.848587 0.166806 0.173964 -0.047849
C37   C     C_R   0.957499 0.162775 0.213640 0.258505
C38   C     C_R   0.952181 0.162003 0.287752 0.258129
C39   C     C_R   0.847910 0.182424 0.321834 -0.030287
C40   C     C_R   0.908623 0.782023 0.292423 -0.140025
C41   C     C_R   0.904560 0.788551 0.220165 -0.144848
C42   C     C_R   0.810859 0.670147 0.180039 0.008792
C43   C     C_R   0.718425 0.542396 0.214678 0.230751
C44   C     C_R   0.724039 0.537272 0.288293 -0.061466
C45   C     C_R   0.268741 0.632587 0.395603 0.522782
C46   C     C_R   0.823286 0.655363 0.326845 -0.032326
C47   C     C_R   0.802137 0.098645 0.893238 0.541076
C48   C     C_R   0.396582 0.701575 0.896239 0.530050
C49   C     C_R   0.795478 0.696225 0.895257 0.602385
C50   C     C_R   0.809786 0.108993 0.102243 0.532622
C51   C     C_R   0.395726 0.705401 0.103684 0.542265
C52   C     C_R   0.797073 0.696240 0.105605 0.528969
C53   C     C_R   0.862186 0.229136 0.395379 0.525758
C54   C     C_R   0.222852 0.683415 0.723011 -0.160736
C55   C     C_R   0.249196 0.698036 0.795327 -0.167352
C56   C     C_R   0.365741 0.692524 0.821613 0.007244
Cr1   Cr    Cr6+3 0.791660 0.390250 0.499930 1.066756
Cr2   Cr    Cr6+3 0.098520 0.708290 0.500540 1.022978
Cr3   Cr    Cr6+3 0.109770 0.401430 0.499480 1.036468
Cr4   Cr    Cr6+3 0.874790 0.925890 0.000070 1.060218
Cr5   Cr    Cr6+3 0.574120 0.948670 0.999300 1.030185
Cr6   Cr    Cr6+3 0.551420 0.625320 0.000920 1.067288
H1    H     H_    0.128462 0.681770 0.703079 0.137383
H2    H     H_    0.589824 0.998111 0.603370 0.120022
H3    H     H_    0.355898 0.034631 0.773551 0.134004
H4    H     H_    0.187574 0.437070 0.297160 0.194367
H5    H     H_    0.222828 0.464955 0.171191 0.157084
H6    H     H_    0.177598 0.709858 0.830510 0.131220
H7    H     H_    0.666402 0.212047 0.304779 0.196456
H8    H     H_    0.665730 0.196739 0.180442 0.194225
H9    H     H_    0.974845 0.888979 0.196033 0.218834
H10   H     H_    0.657964 0.437899 0.314619 0.160998
H11   H     H_    0.551548 0.677901 0.797048 0.154037
H12   H     H_    0.318165 0.284581 0.701451 0.173447
H13   H     H_    0.078355 0.263541 0.883924 0.106150
H14   H     H_    0.106792 0.187580 0.628326 0.144892
H15   H     H_    0.560321 0.132343 0.847989 0.182334
O1    O     O_R   0.766500 0.250040 0.579790 -0.490493
O2    O     O_R   0.218690 0.701900 0.425960 -0.489432
O3    O     O_R   0.249490 0.516440 0.419420 -0.506619
O4    O     O_R   0.982880 0.281910 0.424890 -0.496799
O5    O     O_3   0.999980 0.499990 0.499980 -0.257428
O6    O     O_R   0.895110 0.806860 0.920430 -0.460506
O7    O     O_R   0.872260 0.046970 0.925000 -0.477560
O8    O     O_R   0.691430 0.085060 0.918550 -0.533782
O9    O     O_R   0.451490 0.822460 0.925250 -0.502046
O10   O     O_R   0.413330 0.603360 0.920440 -0.508641
O11   O     O_R   0.676110 0.626250 0.926750 -0.458933
O12   O     O_R   0.798570 0.516780 0.574780 -0.430087
O13   O     O_R   0.895350 0.809870 0.080950 -0.519667
O14   O     O_R   0.872490 0.049760 0.073800 -0.495115
O15   O     O_R   0.691680 0.088070 0.079070 -0.521177
O16   O     O_R   0.451720 0.825250 0.074050 -0.507020
O17   O     O_R   0.413580 0.606370 0.080960 -0.501974
O18   O     O_R   0.676340 0.629040 0.075550 -0.485060
O19   O     O_3   0.666780 0.833290 0.000090 -0.270089
O20   O     O_R   0.984000 0.732950 0.581090 -0.551527
O21   O     O_R   0.218600 0.700890 0.574760 -0.520968
O22   O     O_R   0.249390 0.515350 0.579940 -0.499602
O23   O     O_R   0.982790 0.280900 0.573700 -0.513721
O24   O     O_R   0.766600 0.251130 0.419260 -0.519341
O25   O     O_R   0.798660 0.517790 0.425980 -0.510443
O26   O     O_R   0.984100 0.734040 0.420570 -0.508417
H16   H     H_    0.366539 0.963932 0.650875 0.130608
O27   O     O_3   0.654404 0.400579 0.681876 -0.661434
H17   H     H_    0.665354 0.331307 0.710965 0.323949
O28   O     O_3   0.635660 0.430358 0.831348 -0.679397
H18   H     H_    0.562864 0.353890 0.801944 0.365927
O29   O     O_3   0.990924 0.921643 0.808925 -0.663311
H19   H     H_    0.062675 0.982600 0.773878 0.316736
H20   H     H_    0.963770 0.872479 0.674226 0.131641
H21   H     H_    0.454939 0.916254 0.196462 0.164883
O30   O     O_3   0.439086 0.918848 0.332317 -0.696976
H22   H     H_    0.447379 0.894944 0.382025 0.329838
O31   O     O_3   0.068480 0.156797 0.182315 -0.654169
H23   H     H_    0.085918 0.203215 0.135463 0.320596
O32   O     O_3   0.052763 0.145449 0.324664 -0.652908
H24   H     H_    0.012144 0.101185 0.370846 0.317128
H25   H     H_    0.985915 0.874389 0.320873 0.191671
O33   O     O_3   0.625284 0.420822 0.179314 -0.691369
H26   H     H_    0.661455 0.424320 0.130974 0.330449
O34   O     O_3   0.532064 0.653746 0.661379 -0.701831
H27   H     H_    0.515490 0.667627 0.611170 0.326886
O35   O     O_3   0.334280 0.334863 0.837219 -0.682192
H28   H     H_    0.310635 0.334502 0.887845 0.339396

loop_
_geom_bond_atom_site_label_1
_geom_bond_atom_site_label_2
_ccdc_geom_bond_type
C55   C56   A    
Cr6   O19   S    
Cr3   O22   S    
C41   C42   A    
C14   C18   A    
O27   H17   S    
C52   O13   A    
C35   C36   A    
Cr2   O21   S    
Cr3   O5    S    
C7    O35   S    
C55   H6    S    
Cr5   O19   S    
C6    H13   S    
C39   C53   S    
C40   C46   A    
Cr1   O25   S    
C5    C47   S    
C29   C30   A    
Cr1   O12   S    
C47   O8    A    
C28   C29   A    
C5    C11   A    
C34   O25   A    
C38   C39   A    
Cr4   O6    S    
Cr5   O16   S    
C54   H1    S    
C15   C16   A    
C52   O18   A    
C53   O4    A    
C32   C45   S    
C12   O22   A    
C38   O32   S    
C16   H16   S    
C35   H8    S    
C53   O24   A    
C8    C9    A    
O28   H18   S    
C34   C46   S    
C9    H14   S    
C4    C12   S    
C9    C10   A    
C12   O21   A    
C3    O34   S    
C33   H7    S    
C43   O33   S    
C41   H9    S    
C23   O23   A    
C21   C22   A    
Cr3   O23   S    
C49   O11   A    
Cr2   O20   S    
C44   C46   A    
C13   C19   A    
C7    C8    A    
C28   H5    S    
C24   C25   A    
C10   C11   A    
C1    O20   A    
C6    C11   A    
C16   C17   A    
C25   C26   A    
Cr6   O11   S    
C30   H21   S    
C19   C23   S    
C43   C44   A    
Cr6   O17   S    
C37   C38   A    
C31   C32   A    
C10   C19   A    
C15   H2    S    
C8    H12   S    
C17   C18   A    
C48   O10   A    
C45   O2    A    
C33   C39   A    
C47   O7    A    
C5    C14   A    
C21   O28   S    
C2    H11   S    
Cr5   O8    S    
Cr2   O2    S    
C51   O16   A    
C22   C49   S    
Cr4   O19   S    
C50   O15   A    
C40   C41   A    
C13   C15   A    
C1    C26   S    
C22   C24   A    
C42   C43   A    
C3    C4    A    
C36   C50   S    
O33   H26   S    
O30   H22   S    
C29   C51   S    
Cr4   O14   S    
C48   C56   S    
C54   C55   A    
C36   C37   A    
C1    O12   A    
Cr6   O18   S    
C4    C54   A    
C27   C32   A    
C20   O27   S    
Cr1   O1    S    
C24   O29   S    
Cr3   O4    S    
Cr3   O3    S    
Cr5   O15   S    
C6    C7    A    
C37   O31   S    
Cr4   O13   S    
Cr1   O24   S    
Cr6   O10   S    
C17   H3    S    
C34   O26   A    
C49   O6    A    
Cr2   O5    S    
C2    C3    A    
C27   H4    S    
C2    C56   A    
O32   H24   S    
Cr4   O7    S    
C30   C31   A    
C20   C26   A    
C18   H15   S    
C33   C35   A    
C44   H10   S    
C45   O3    A    
C48   O9    A    
C23   O1    A    
Cr5   O9    S    
C25   H20   S    
C51   O17   A    
C50   O14   A    
C40   H25   S    
C20   C21   A    
O29   H19   S    
C27   C28   A    
Cr1   O5    S    
Cr2   O26   S    
O34   H27   S    
C13   C14   A    
C31   O30   S    
O31   H23   S    
C42   C52   S    
O35   H28   S    
