data_mof_unit_67998.cif
_audit_creation_date              2012-12-11T14:17:43-0500
_audit_creation_method            fapswitch 2.2
_symmetry_space_group_name_H-M    P1
_symmetry_Int_Tables_number       1
_space_group_crystal_system       triclinic
_cell_length_a                    12.007672
_cell_length_b                    11.96944
_cell_length_c                    18.46645
_cell_angle_alpha                 90.117516
_cell_angle_beta                  89.415833
_cell_angle_gamma                 120.192075
_cell_volume                      2293.91618896

loop_
_atom_site_label
_atom_site_type_symbol
_atom_type_description
_atom_site_fract_x
_atom_site_fract_y
_atom_site_fract_z
_atom_type_partial_charge
C1    C     C_R   0.521406 0.452596 0.147595 0.600145
C2    C     C_R   0.546443 0.065611 0.147438 0.606949
C3    C     C_R   0.934036 0.480742 0.146669 0.599235
C4    C     C_R   0.452993 0.519861 0.851147 0.577677
C5    C     C_R   0.064876 0.544799 0.853070 0.575013
C6    C     C_R   0.479147 0.933626 0.852321 0.541313
C7    C     C_R   0.434555 0.029761 0.465716 0.228415
C8    C     C_R   0.962910 0.386517 0.466316 0.245244
C9    C     C_R   0.590448 0.582927 0.462792 0.200325
C10   C     C_R   0.017059 0.410240 0.534894 0.234570
C11   C     C_R   0.403251 0.971558 0.532976 0.283641
C12   C     C_R   0.551001 0.610816 0.527921 0.298680
C13   C     C_R   0.726828 0.005157 0.560476 0.175534
C14   C     C_R   0.908102 0.635556 0.581953 0.229650
C15   C     C_R   0.354966 0.266665 0.573792 0.223616
C16   C     C_R   0.024578 0.717080 0.445046 0.241181
C17   C     C_R   0.685922 0.947382 0.419542 0.240492
C18   C     C_R   0.272068 0.300444 0.437672 0.264013
C19   C     C_R   0.836322 0.058770 0.516630 0.401420
C20   C     C_R   0.931366 0.755143 0.554746 0.383456
C21   C     C_R   0.253228 0.157473 0.537803 0.332382
C22   C     C_R   0.971360 0.784211 0.480583 0.410028
C23   C     C_R   0.814963 0.023111 0.443531 0.386967
C24   C     C_R   0.216401 0.176623 0.467927 0.394813
C25   C     C_R   0.517219 0.454565 0.351544 0.640837
C26   C     C_R   0.544385 0.061415 0.350440 0.628487
C27   C     C_R   0.932645 0.479617 0.353616 0.641667
C28   C     C_R   0.453083 0.521564 0.646756 0.645034
C29   C     C_R   0.065387 0.544045 0.647910 0.616460
C30   C     C_R   0.480586 0.930610 0.646416 0.603519
C31   C     C_R   0.504064 0.006976 0.921333 0.016937
C32   C     C_R   0.988223 0.496347 0.923387 0.075192
C33   C     C_R   0.483611 0.492832 0.923037 0.041229
C34   C     C_R   0.011022 0.511390 0.076544 0.066845
C35   C     C_R   0.509989 0.000772 0.074503 0.041999
C36   C     C_R   0.494928 0.483562 0.074825 0.045047
C37   C     C_R   0.402241 0.998423 0.962049 0.008211
C38   C     C_R   0.986146 0.392784 0.962679 0.045853
C39   C     C_R   0.593842 0.584283 0.959375 -0.027775
C40   C     C_R   0.010143 0.409463 0.039896 0.020193
C41   C     C_R   0.397887 0.978474 0.039370 -0.013368
C42   C     C_R   0.583988 0.593880 0.036380 -0.056141
C43   C     C_R   0.606136 0.007119 0.028066 0.246727
C44   C     C_R   0.042617 0.617230 0.030919 0.168475
C45   C     C_R   0.409162 0.380062 0.032328 0.204275
C46   C     C_R   0.969159 0.581588 0.968093 0.202890
C47   C     C_R   0.617232 0.053071 0.958451 0.178279
C48   C     C_R   0.379075 0.413345 0.967368 0.175063
C49   C     C_R   0.306322 0.012249 0.928638 0.275238
C50   C     C_R   0.971748 0.279311 0.929949 0.279124
C51   C     C_R   0.706482 0.674708 0.922742 0.254992
C52   C     C_R   0.042498 0.331097 0.078686 0.239124
C53   C     C_R   0.283577 0.944604 0.077672 0.257031
C54   C     C_R   0.671498 0.705981 0.071495 0.249835
C55   C     C_R   0.191705 0.964363 0.966653 0.342333
C56   C     C_R   0.006421 0.204000 0.972336 0.365045
C57   C     C_R   0.785551 0.787581 0.960000 0.341012
C58   C     C_R   0.012923 0.214596 0.048095 0.367322
C59   C     C_R   0.196984 0.969685 0.042226 0.336180
C60   C     C_R   0.786794 0.783688 0.035832 0.392226
C61   C     C_R   0.505978 0.981392 0.572565 0.078440
C62   C     C_R   0.994890 0.492764 0.579741 0.067653
C63   C     C_R   0.491234 0.503865 0.574346 0.142014
C64   C     C_R   0.987932 0.497449 0.427382 0.116881
C65   C     C_R   0.506229 0.995164 0.420718 0.100005
C66   C     C_R   0.487672 0.492457 0.422132 0.112082
C67   C     C_R   0.611520 0.989812 0.531388 0.000634
C68   C     C_R   0.957664 0.570210 0.544248 0.011203
C69   C     C_R   0.410917 0.386345 0.538996 0.019450
C70   C     C_R   0.995398 0.598181 0.471398 0.005305
C71   C     C_R   0.594329 0.967106 0.456389 0.029559
C72   C     C_R   0.386694 0.394356 0.465285 0.003972
Cr1   Cr    Cr6+3 0.768550 0.541320 0.250660 1.052854
Cr2   Cr    Cr6+3 0.458680 0.227230 0.250660 1.044184
Cr3   Cr    Cr6+3 0.772770 0.231450 0.250660 1.060097
Cr4   Cr    Cr6+3 0.541320 0.768550 0.749340 1.069168
Cr5   Cr    Cr6+3 0.227230 0.458680 0.749340 1.062979
Cr6   Cr    Cr6+3 0.231450 0.772770 0.749340 1.033759
O1    O     O_R   0.910960 0.572410 0.171010 -0.566433
O2    O     O_R   0.427590 0.338550 0.171010 -0.565575
O3    O     O_R   0.661450 0.089040 0.171010 -0.499790
O4    O     O_R   0.572410 0.910960 0.828990 -0.589272
O5    O     O_R   0.338550 0.427590 0.828990 -0.547572
O6    O     O_R   0.089040 0.661450 0.828990 -0.572142
O7    O     O_R   0.639750 0.528530 0.175600 -0.465381
O8    O     O_R   0.471470 0.111220 0.175600 -0.465720
O9    O     O_R   0.888780 0.360250 0.175600 -0.459255
O10   O     O_R   0.528530 0.639750 0.824400 -0.477733
O11   O     O_R   0.111220 0.471470 0.824400 -0.439918
O12   O     O_R   0.360250 0.888780 0.824400 -0.461654
O13   O     O_R   0.909330 0.572400 0.331540 -0.510092
O14   O     O_R   0.427600 0.336930 0.331540 -0.516345
O15   O     O_R   0.663070 0.090670 0.331540 -0.512931
O16   O     O_R   0.572400 0.909330 0.668460 -0.474368
O17   O     O_R   0.336930 0.427600 0.668460 -0.494526
O18   O     O_R   0.090670 0.663070 0.668460 -0.510701
O19   O     O_R   0.638240 0.528520 0.324410 -0.484288
O20   O     O_R   0.471480 0.109720 0.324410 -0.496510
O21   O     O_R   0.890280 0.361760 0.324410 -0.498358
O22   O     O_R   0.528520 0.638240 0.675590 -0.447402
O23   O     O_R   0.109720 0.471480 0.675590 -0.489300
O24   O     O_R   0.361760 0.890280 0.675590 -0.495322
O25   O     O_3   0.666667 0.333333 0.250630 -0.291880
O26   O     O_3   0.333333 0.666667 0.749370 -0.290437
Cl1   Cl    Cl    0.730455 0.992457 0.056749 -0.594608
Cl2   Cl    Cl    0.206487 0.696750 0.006045 -0.714552
Cl3   Cl    Cl    0.450426 0.260760 0.026501 -0.647839
Cl4   Cl    Cl    0.808593 0.521669 0.993187 -0.652154
Cl5   Cl    Cl    0.692179 0.220488 0.965539 -0.623705
Cl6   Cl    Cl    0.274515 0.473415 0.974381 -0.688210
O27   O     O_3   0.315531 0.064503 0.859365 -0.607469
C73   C     C_3   0.433447 0.178589 0.843875 -0.112194
H1    H     H_    0.490133 0.229585 0.891838 0.200160
H2    H     H_    0.412136 0.246545 0.814895 0.165123
H3    H     H_    0.493117 0.156820 0.806711 0.163002
O28   O     O_3   0.950047 0.248656 0.856165 -0.602883
C74   C     C_3   0.842749 0.248544 0.825645 -0.081685
H4    H     H_    0.826203 0.326726 0.844060 0.152348
H5    H     H_    0.755296 0.153377 0.833676 0.157013
H6    H     H_    0.858960 0.261425 0.766256 0.133384
O29   O     O_3   0.741370 0.663146 0.851708 -0.596643
C75   C     C_3   0.719112 0.538652 0.833257 -0.082884
H7    H     H_    0.670300 0.462533 0.874982 0.167061
H8    H     H_    0.812683 0.545828 0.819796 0.167267
H9    H     H_    0.658693 0.505132 0.784176 0.189147
O30   O     O_3   0.087749 0.360060 0.149307 -0.592320
C76   C     C_3   0.215099 0.463065 0.151616 -0.119579
H10   H     H_    0.235683 0.500032 0.207884 0.170799
H11   H     H_    0.234642 0.545217 0.115877 0.167422
H12   H     H_    0.280119 0.426680 0.138156 0.150905
O31   O     O_3   0.263768 0.914603 0.151389 -0.585429
C77   C     C_3   0.267938 0.802410 0.169152 -0.087930
H13   H     H_    0.333095 0.785062 0.134429 0.107609
H14   H     H_    0.169531 0.717718 0.167644 0.165568
H15   H     H_    0.302518 0.811774 0.225529 0.180153
O32   O     O_3   0.653691 0.740154 0.141084 -0.532645
C78   C     C_3   0.532709 0.731769 0.149471 -0.065963
H16   H     H_    0.486049 0.730894 0.097414 0.127984
H17   H     H_    0.546401 0.816867 0.180706 0.195064
H18   H     H_    0.468046 0.645248 0.182130 0.111905
O33   O     O_3   0.080589 0.938486 0.933164 -0.459853
C79   C     C_3   0.054558 0.863392 0.869543 -0.007233
H19   H     H_    0.982277 0.762620 0.882836 0.191744
H20   H     H_    0.137976 0.869011 0.841379 0.182461
H21   H     H_    0.010466 0.896232 0.828744 0.106598
O34   O     O_3   0.037772 0.119837 0.940845 -0.435230
C80   C     C_3   0.135606 0.179854 0.887535 0.009242
H22   H     H_    0.227162 0.197171 0.910327 0.185242
H23   H     H_    0.112782 0.115842 0.840068 0.126837
H24   H     H_    0.148666 0.270520 0.866237 0.195632
O35   O     O_3   0.866963 0.899618 0.924309 -0.453509
C81   C     C_3   0.806472 0.934060 0.871204 -0.023605
H25   H     H_    0.763150 0.984977 0.898066 0.185853
H26   H     H_    0.737125 0.854039 0.837166 0.173648
H27   H     H_    0.880472 0.003091 0.832873 0.130044
O36   O     O_3   0.989691 0.108146 0.088691 -0.423372
C82   C     C_3   0.947616 0.106165 0.160988 0.009502
H28   H     H_    0.884538 0.148009 0.166770 0.203889
H29   H     H_    0.031534 0.157380 0.196216 0.085542
H30   H     H_    0.891179 0.005258 0.180623 0.162244
O37   O     O_3   0.132498 0.021461 0.077763 -0.467951
C83   C     C_3   0.202236 0.105041 0.135566 0.017664
H31   H     H_    0.205797 0.198263 0.128460 0.174175
H32   H     H_    0.302287 0.131153 0.137780 0.221885
H33   H     H_    0.157350 0.061554 0.188484 0.070808
O38   O     O_3   0.892095 0.870379 0.074192 -0.413353
C84   C     C_3   0.923456 0.804804 0.126829 0.015877
H34   H     H_    0.981024 0.767305 0.100836 0.166209
H35   H     H_    0.981724 0.872119 0.169949 0.115369
H36   H     H_    0.841260 0.727762 0.156816 0.173804
Cl7   Cl    Cl    0.500572 0.198179 0.468330 -0.540202
Cl8   Cl    Cl    0.797537 0.275794 0.469138 -0.598837
Cl9   Cl    Cl    0.702706 0.530820 0.471477 -0.578319
Cl10  Cl    Cl    0.166717 0.422345 0.539034 -0.549182
Cl11  Cl    Cl    0.263168 0.820223 0.536753 -0.517025
Cl12  Cl    Cl    0.457477 0.685952 0.517798 -0.481901
Cl13  Cl    Cl    0.719023 0.864681 0.590149 -0.540737
Cl14  Cl    Cl    0.792016 0.544125 0.650015 -0.609962
Cl15  Cl    Cl    0.449713 0.261300 0.646096 -0.611241
Cl16  Cl    Cl    0.144882 0.786110 0.376114 -0.619685
Cl17  Cl    Cl    0.636647 0.842980 0.343616 -0.645561
Cl18  Cl    Cl    0.201056 0.345627 0.368619 -0.598491
O39   O     O_3   0.960841 0.112921 0.544040 -0.457626
C85   C     C_3   0.968652 0.153289 0.617042 -0.036220
H37   H     H_    0.921435 0.070294 0.654523 0.136372
H38   H     H_    0.924634 0.214793 0.625198 0.113004
H39   H     H_    0.071262 0.209549 0.632692 0.164050
O40   O     O_3   0.930634 0.850832 0.597716 -0.473220
C86   C     C_3   0.908651 0.823001 0.673486 -0.041356
H40   H     H_    0.962291 0.778750 0.696605 0.122485
H41   H     H_    0.804574 0.762162 0.686312 0.229017
H42   H     H_    0.942029 0.914107 0.703565 0.057623
O41   O     O_3   0.198378 0.030065 0.561077 -0.494436
C87   C     C_3   0.198633 0.015948 0.636670 -0.002003
H43   H     H_    0.144418 0.912708 0.649271 0.165457
H44   H     H_    0.159233 0.069514 0.666412 0.093086
H45   H     H_    0.291966 0.036640 0.656460 0.193470
O42   O     O_3   0.937072 0.860730 0.441783 -0.438584
C88   C     C_3   0.881444 0.804854 0.373702 -0.004086
H46   H     H_    0.783605 0.724985 0.381083 0.198397
H47   H     H_    0.938925 0.778778 0.338970 0.139938
H48   H     H_    0.874274 0.873519 0.337860 0.157093
O43   O     O_3   0.920786 0.052099 0.401863 -0.478821
C89   C     C_3   0.923489 0.113697 0.337555 -0.057347
H49   H     H_    0.841595 0.055054 0.301744 0.133129
H50   H     H_    0.010425 0.130470 0.308296 0.125170
H51   H     H_    0.934750 0.207590 0.350018 0.223677
O44   O     O_3   0.131866 0.071483 0.428207 -0.422015
C90   C     C_3   0.188467 0.065180 0.362013 -0.003179
H52   H     H_    0.269794 0.050304 0.372696 0.197881
H53   H     H_    0.217076 0.148373 0.325841 0.134109
H54   H     H_    0.116891 0.983193 0.329944 0.135203

loop_
_geom_bond_atom_site_label_1
_geom_bond_atom_site_label_2
_ccdc_geom_bond_type
C2    C35   S    
C10   Cl10  S    
C39   C51   A    
O43   C89   S    
Cr4   O26   S    
C82   H28   S    
C6    O4    A    
C7    Cl7   S    
Cr6   O24   S    
Cr5   O23   S    
C80   H22   S    
C3    O1    A    
C73   H2    S    
O37   C83   S    
C53   C59   A    
Cr2   O20   S    
C54   C60   A    
Cr6   O12   S    
Cr1   O19   S    
C78   H17   S    
C27   O21   A    
C33   C39   A    
C28   O17   A    
C34   C40   A    
O36   C82   S    
C80   H23   S    
C77   H15   S    
O34   C80   S    
C55   C59   A    
C74   H5    S    
C87   H45   S    
C20   O40   S    
Cr5   O5    S    
C90   H54   S    
C85   H37   S    
C43   Cl1   S    
Cr2   O14   S    
C86   H41   S    
C9    C66   A    
C6    C31   S    
Cr4   O16   S    
C4    O10   A    
C4    C33   S    
C36   C42   A    
C66   C72   A    
C63   C69   A    
C86   H42   S    
Cr6   O18   S    
O44   C90   S    
C46   Cl4   S    
C88   H48   S    
O35   C81   S    
C89   H51   S    
C9    Cl9   S    
O42   C88   S    
C53   O31   S    
C32   C38   A    
C84   H36   S    
C35   C43   A    
Cr4   O10   S    
C50   O28   S    
C49   O27   S    
C5    C32   S    
C68   C70   A    
C28   O22   A    
C26   O15   A    
C87   H43   S    
C8    Cl8   S    
C88   H46   S    
C82   H29   S    
Cr2   O2    S    
Cr3   O25   S    
C79   H21   S    
C89   H50   S    
C10   C62   A    
Cr5   O17   S    
C73   H1    S    
C44   C46   A    
C90   H52   S    
C39   C42   A    
C83   H32   S    
C18   C72   A    
C15   C69   A    
C78   H18   S    
C13   C19   A    
Cr6   O26   S    
C14   C20   A    
C58   O36   S    
C80   H24   S    
C16   C70   A    
Cr1   O13   S    
C84   H35   S    
C74   H6    S    
Cr4   O4    S    
C84   H34   S    
C5    O6    A    
C52   O30   S    
C19   C23   A    
C77   H13   S    
C57   C60   A    
C3    C34   S    
C65   C71   A    
C3    O9    A    
C24   O44   S    
C60   O38   S    
C31   C37   A    
C23   O43   S    
O40   C86   S    
C69   C72   A    
C7    C11   A    
O39   C85   S    
C76   H11   S    
C56   O34   S    
C59   O37   S    
Cr6   O6    S    
C7    C65   A    
C83   H33   S    
C37   C49   A    
C61   C67   A    
C81   H27   S    
C15   C21   A    
C54   O32   S    
C30   O24   A    
Cr3   O21   S    
C87   H44   S    
Cr1   O1    S    
C29   O23   A    
C36   C45   A    
C17   C23   A    
Cr2   O8    S    
C27   O13   A    
C41   C53   A    
O29   C75   S    
C14   Cl14  S    
Cr5   O26   S    
C52   C58   A    
C8    C64   A    
C51   C57   A    
C25   O19   A    
C26   O20   A    
C17   C71   A    
C82   H30   S    
C64   C70   A    
C47   Cl5   S    
O38   C84   S    
C51   O29   S    
C18   C24   A    
C21   C24   A    
C1    O7    A    
C20   C22   A    
C19   O39   S    
C76   H10   S    
C79   H20   S    
Cr3   O15   S    
C83   H31   S    
C13   C67   A    
C45   C48   A    
Cr3   O9    S    
C86   H40   S    
C12   C63   A    
C34   C44   A    
C29   C62   S    
C25   O14   A    
C16   C22   A    
O27   C73   S    
C26   C65   S    
C32   C46   A    
C55   O33   S    
C22   O42   S    
C8    C10   A    
Cr3   O3    S    
C25   C66   S    
C14   C68   A    
C81   H26   S    
O32   C78   S    
C11   C61   A    
C49   C55   A    
C29   O18   A    
C38   C50   A    
C44   Cl2   S    
Cr4   O22   S    
C78   H16   S    
C11   Cl11  S    
C85   H38   S    
C85   H39   S    
C12   Cl12  S    
C75   H9    S    
C15   Cl15  S    
C75   H7    S    
C76   H12   S    
Cr1   O7    S    
C30   O16   A    
C40   C52   A    
O33   C79   S    
C42   C54   A    
C38   C40   A    
C4    O5    A    
C43   C47   A    
O30   C76   S    
C13   Cl13  S    
C57   O35   S    
Cr5   O11   S    
C90   H53   S    
C56   C58   A    
O28   C74   S    
C2    O8    A    
C67   C71   A    
C62   C68   A    
C37   C41   A    
O31   C77   S    
C35   C41   A    
C9    C12   A    
C50   C56   A    
C27   C64   S    
C45   Cl3   S    
C28   C63   S    
C17   Cl17  S    
Cr1   O25   S    
C6    O12   A    
C89   H49   S    
C77   H14   S    
O41   C87   S    
C30   C61   S    
C88   H47   S    
C33   C48   A    
C18   Cl18  S    
C79   H19   S    
C1    O2    A    
C2    O3    A    
C31   C47   A    
C81   H25   S    
C21   O41   S    
C48   Cl6   S    
C74   H4    S    
C75   H8    S    
C73   H3    S    
C5    O11   A    
C16   Cl16  S    
C1    C36   S    
Cr2   O25   S    
