data_mof_unit_11450.cif
_audit_creation_date              2012-12-11T19:16:34-0500
_audit_creation_method            fapswitch 2.2
_symmetry_space_group_name_H-M    P1
_symmetry_Int_Tables_number       1
_space_group_crystal_system       triclinic
_cell_length_a                    8.199202
_cell_length_b                    15.021737
_cell_length_c                    18.851791
_cell_angle_alpha                 102.411872
_cell_angle_beta                  91.357822
_cell_angle_gamma                 98.515811
_cell_volume                      2238.92701963

loop_
_atom_site_label
_atom_site_type_symbol
_atom_type_description
_atom_site_fract_x
_atom_site_fract_y
_atom_site_fract_z
_atom_type_partial_charge
Ba1   Ba    Ba6+2 0.853510 0.540900 0.466480 1.656126
Ba2   Ba    Ba6+2 0.336320 0.459170 0.533530 1.650635
C1    C     C_3   0.537546 0.802199 0.227379 -0.081651
C2    C     C_R   0.901969 0.398622 0.087051 -0.110014
C3    C     C_R   0.764280 0.426751 0.950032 -0.106365
C4    C     C_3   0.120030 0.717866 0.273971 0.400142
C5    C     C_R   0.930070 0.460147 0.975115 0.024290
C6    C     C_R   0.708226 0.427427 0.880117 -0.088808
C7    C     C_R   0.813652 0.463083 0.832004 -0.025119
C8    C     C_R   0.976592 0.505857 0.857547 0.004683
C9    C     C_R   0.034977 0.503697 0.929445 0.026545
C10   C     C_R   0.760032 0.457537 0.759287 0.000928
C11   C     C_R   0.869504 0.491663 0.712280 -0.294105
C12   C     C_3   0.621006 0.768358 0.288594 0.509057
C13   C     C_R   0.025694 0.541701 0.736892 0.014741
C14   C     C_R   0.078870 0.552797 0.812255 -0.078599
C15   C     C_R   0.154706 0.495360 0.070773 0.025813
C16   C     C_3   0.100077 0.738159 0.198837 -0.355753
C17   C     C_R   0.213602 0.493286 0.142533 0.008519
C18   C     C_R   0.111947 0.446439 0.187818 -0.080167
C19   C     C_R   0.964897 0.389620 0.154328 0.014050
C20   C     C_R   0.227591 0.608377 0.845672 0.016560
C21   C     C_R   0.288223 0.599965 0.913459 -0.108654
C22   C     C_R   0.197531 0.545346 0.955331 0.002302
C23   C     C_3   0.438504 0.299805 0.308699 0.277768
C24   C     C_R   0.259795 0.538344 0.024959 0.025871
C25   C     C_R   0.426522 0.570107 0.049392 -0.098910
C26   C     C_R   0.377015 0.535094 0.167711 -0.029386
C27   C     C_R   0.483209 0.568836 0.119049 -0.103413
C28   C     C_3   0.242813 0.741365 0.624273 0.318819
C29   C     C_R   0.430563 0.540809 0.240441 -0.007035
C30   C     C_R   0.322005 0.506065 0.287453 -0.283710
C31   C     C_R   0.165163 0.457257 0.263068 0.010349
C32   C     C_R   0.344634 0.818941 0.449159 -0.012634
C33   C     C_R   0.580120 0.791601 0.516844 0.068209
C34   C     C_3   0.348672 0.251729 0.235880 -0.320813
C35   C     C_R   0.761964 0.231538 0.522638 -0.285544
C36   C     C_R   0.856180 0.174872 0.549252 0.015701
C37   C     C_R   0.795670 0.081073 0.541451 -0.145597
C38   C     C_R   0.639501 0.041929 0.505057 0.014993
C39   C     C_R   0.550964 0.099970 0.473278 -0.016387
C40   C     C_3   0.279844 0.846326 0.645167 -0.392491
C41   C     C_R   0.570396 0.946771 0.497049 0.005147
C42   C     C_R   0.415343 0.912298 0.457338 -0.027127
C43   C     C_R   0.334220 0.971363 0.426206 -0.111466
C44   C     C_R   0.401387 0.062559 0.433158 -0.051507
C45   C     C_3   0.059652 0.279831 0.726458 0.353113
C46   C     C_R   0.648124 0.884877 0.528140 -0.142116
C47   C     C_R   0.431947 0.758621 0.475560 -0.274861
C48   C     C_R   0.614555 0.194454 0.481800 0.016265
C49   C     C_3   0.952300 0.258037 0.375917 0.304152
C50   C     C_3   0.918241 0.153000 0.354615 -0.372029
C51   C     C_3   0.748066 0.683364 0.689499 0.317115
C52   C     C_3   0.821761 0.729194 0.765854 -0.328257
C53   C     C_2   0.898301 0.303442 0.175305 0.892752
C54   C     C_2   0.306424 0.690650 0.822192 0.891049
C55   C     C_3   0.072771 0.258678 0.801529 -0.358247
C56   C     C_3   0.530379 0.227501 0.683624 0.359503
C57   C     C_3   0.498325 0.134262 0.704253 -0.365359
C58   C     C_R   0.991986 0.453600 0.045019 0.000652
H1    H     H_    0.384725 0.868758 0.686651 0.124874
H2    H     H_    0.641968 0.629382 0.692655 0.082987
H3    H     H_    0.941127 0.773267 0.762444 0.152187
H4    H     H_    0.841636 0.676505 0.796868 0.073444
H5    H     H_    0.738255 0.773859 0.795831 0.170199
H6    H     H_    0.521654 0.743195 0.322091 -0.105504
H7    H     H_    0.465678 0.857330 0.251526 0.069189
H8    H     H_    0.348835 0.335282 0.342979 0.019379
H9    H     H_    0.541822 0.352556 0.300270 0.085850
H10   H     H_    0.235548 0.206039 0.244995 0.160979
H11   H     H_    0.314591 0.303536 0.206671 0.087591
H12   H     H_    0.312205 0.875034 0.597105 0.064787
H13   H     H_    0.427084 0.208460 0.201127 0.138627
H14   H     H_    0.449144 0.744317 0.194404 0.072721
H15   H     H_    0.140218 0.682748 0.157190 0.066461
H16   H     H_    0.142086 0.345683 0.727014 0.089947
H17   H     H_    0.929987 0.287962 0.715037 -0.064585
H18   H     H_    0.202151 0.252104 0.815462 0.149151
H19   H     H_    0.034623 0.315103 0.842857 0.074623
H20   H     H_    0.990832 0.193165 0.802575 0.115996
H21   H     H_    0.663533 0.242706 0.674076 -0.063588
H22   H     H_    0.456178 0.222773 0.632557 0.096955
H23   H     H_    0.169421 0.874412 0.667822 0.128864
H24   H     H_    0.532471 0.080067 0.659636 0.071552
H25   H     H_    0.365468 0.116470 0.713704 0.150671
H26   H     H_    0.035888 0.653254 0.275266 0.095020
H27   H     H_    0.573464 0.136317 0.754544 0.113420
H28   H     H_    0.828931 0.482903 0.655826 0.066256
H29   H     H_    0.580097 0.399613 0.864730 0.113837
H30   H     H_    0.612064 0.595144 0.133970 0.104122
H31   H     H_    0.363348 0.513744 0.343690 0.067827
H32   H     H_    0.673018 0.400889 0.983952 0.079689
H33   H     H_    0.789616 0.353040 0.064719 0.075187
H34   H     H_    0.839617 0.284934 0.395122 0.007012
H35   H     H_    0.401261 0.644843 0.935876 0.073403
H36   H     H_    0.249211 0.707294 0.282906 -0.117740
H37   H     H_    0.518102 0.594803 0.015091 0.078701
H38   H     H_    0.378263 0.686834 0.468757 0.067444
H39   H     H_    0.217736 0.948174 0.395169 0.114941
H40   H     H_    0.760378 0.906954 0.562200 0.085203
H41   H     H_    0.809900 0.304075 0.528931 0.063662
H42   H     H_    0.874946 0.040642 0.562638 0.082130
H43   H     H_    0.331787 0.103120 0.406777 0.102499
H44   H     H_    0.969166 0.741598 0.185758 0.147862
H45   H     H_    0.051047 0.279330 0.419970 0.075914
H46   H     H_    0.175739 0.805148 0.196836 0.115749
H47   H     H_    0.355988 0.713610 0.606755 0.009419
H48   H     H_    0.146388 0.720667 0.579104 0.071419
H49   H     H_    0.764067 0.822813 0.381658 0.214357
H50   H     H_    0.664659 0.899281 0.353285 0.124482
H51   H     H_    0.712601 0.783455 0.151460 0.199172
H52   H     H_    0.747049 0.887942 0.210069 0.212218
H53   H     H_    0.708548 0.227757 0.210418 0.310480
H54   H     H_    0.295459 0.822175 0.816576 0.316280
H55   H     H_    0.811051 0.129886 0.314352 0.131851
H56   H     H_    0.891054 0.123459 0.402697 0.060681
H57   H     H_    0.028313 0.126235 0.330297 0.124033
H58   H     H_    0.844216 0.651038 0.657888 -0.003077
N1    N     N_3   0.730690 0.845035 0.335389 -0.446206
N2    N     N_3   0.655786 0.837536 0.179265 -0.478371
O1    O     O_2   0.871970 0.437290 0.322980 -0.440588
O2    O     O_2   0.195210 0.178503 0.540772 -0.488361
O3    O     O_3   0.107832 0.207434 0.674889 -0.597094
O4    O     O_3   0.121420 0.444460 0.412460 -0.502605
O5    O     O_3   0.580410 0.613230 0.540280 -0.492721
O6    O     O_2   0.337420 0.273080 0.457680 -0.470932
O7    O     O_3   0.501605 0.233577 0.339318 -0.648276
O8    O     O_2   0.419627 0.462839 0.755680 -0.481884
O9    O     O_3   0.484039 0.295277 0.739896 -0.608316
O10   O     O_3   0.661430 0.607560 0.372520 -0.472073
O11   O     O_2   0.766532 0.531602 0.244759 -0.481024
O12   O     O_3   0.693777 0.751061 0.658371 -0.630935
O13   O     O_3   0.000214 0.290235 0.314327 -0.615359
O14   O     O_3   0.715672 0.700201 0.257570 -0.601296
O15   O     O_2   0.852280 0.726960 0.542370 -0.466572
O16   O     O_3   0.083990 0.657360 0.410240 -0.492440
O17   O     O_2   0.008621 0.822662 0.463690 -0.486813
O18   O     O_2   0.981714 0.241437 0.168891 -0.621668
O19   O     O_R   0.736814 0.289659 0.196731 -0.760149
O20   O     O_2   0.447379 0.694664 0.802355 -0.629379
O21   O     O_R   0.225799 0.767624 0.830529 -0.764179
O22   O     O_3   0.080505 0.791894 0.326690 -0.585076
O23   O     O_2   0.317740 0.562750 0.677070 -0.443103
O24   O     O_3   0.068290 0.555610 0.587550 -0.504505
O25   O     O_3   0.528280 0.392520 0.627490 -0.483121
O26   O     O_3   0.188829 0.709835 0.685430 -0.619970
O27   O     O_3   0.609300 0.386850 0.459730 -0.475541
O28   O     O_3   0.105720 0.342720 0.589770 -0.491536
P1    P     P_3+3 0.039440 0.410950 0.333260 0.996765
P2    P     P_3+3 0.676740 0.714970 0.563520 0.986442
P3    P     P_3+3 0.129970 0.774289 0.413030 0.947329
P4    P     P_3+3 0.150270 0.589130 0.666750 0.999451
P5    P     P_3+3 0.066063 0.224727 0.587831 0.947545
P6    P     P_3+3 0.641439 0.593739 0.278312 0.953147
P7    P     P_3+3 0.519301 0.270542 0.434127 0.937095
P8    P     P_3+3 0.548867 0.403964 0.721268 0.945782

loop_
_geom_bond_atom_site_label_1
_geom_bond_atom_site_label_2
_ccdc_geom_bond_type
O4    P1    S    
C16   H15   S    
C2    C19   A    
C28   H47   S    
C25   C27   A    
Ba2   O24   S    
C55   H19   S    
C17   C18   A    
O16   P3    S    
C57   H25   S    
C53   O19   S    
C52   H5    S    
C51   C52   S    
Ba2   O25   S    
C5    C9    A    
C24   C25   A    
C53   O18   D    
C15   C24   A    
C26   C27   A    
Ba1   O5    S    
C45   H16   S    
C56   H22   S    
O3    P5    S    
C36   C37   A    
C54   O20   D    
C30   H31   S    
C52   H3    S    
C56   O9    S    
Ba2   O28   S    
C13   C14   A    
C9    C22   A    
O12   P2    S    
Ba1   Ba2   S    
C1    H14   S    
C27   H30   S    
C47   H38   S    
O25   P8    S    
C38   C41   A    
C25   H37   S    
C21   H35   S    
C6    C7    A    
C32   C47   A    
C33   C47   A    
C39   C44   A    
H53   O19   S    
Ba1   P1    S    
C33   P2    S    
C4    O22   S    
Ba1   O16   S    
O27   P7    S    
C41   C46   A    
C34   H11   S    
C49   H45   S    
C50   H57   S    
Ba2   O23   S    
C55   H20   S    
C23   H8    S    
C10   P8    S    
C46   H40   S    
C33   C46   A    
C13   P4    S    
C34   H10   S    
C28   O26   S    
Ba1   O1    S    
C50   H56   S    
Ba2   P4    S    
C4    C16   S    
C49   C50   S    
H54   O21   S    
C32   C42   A    
C57   H24   S    
Ba1   O10   S    
C8    C9    A    
C56   H21   S    
O7    P7    S    
C37   C38   A    
C3    C5    A    
C51   H58   S    
C20   C54   S    
C49   H34   S    
C56   C57   S    
C43   C44   A    
H51   N2    S    
O22   P3    S    
C41   C42   A    
C16   H46   S    
C35   C36   A    
C45   C55   S    
C51   H2    S    
C45   O3    S    
C29   C30   A    
C48   P7    S    
C21   C22   A    
C2    C58   A    
C40   H12   S    
C12   H6    S    
O13   P1    S    
Ba1   P2    S    
O10   P6    S    
C51   O12   S    
C16   H44   S    
C10   C11   A    
C17   C26   A    
C40   H1    S    
C1    C12   S    
O11   P6    D    
O26   P4    S    
C54   O21   S    
Ba2   O6    S    
C38   C39   A    
C5    C58   A    
C4    H36   S    
C11   C13   A    
C43   H39   S    
O2    P5    D    
Ba1   O27   S    
C3    C6    A    
C23   H9    S    
O28   P5    S    
C18   C31   A    
C39   C48   A    
C29   P6    S    
C42   C43   A    
H49   N1    S    
C37   H42   S    
H52   N2    S    
C7    C8    A    
C50   H55   S    
C1    N2    S    
O23   P4    D    
C19   C53   S    
C14   C20   A    
C28   H48   S    
C55   H18   S    
C26   C29   A    
C1    H7    S    
C40   H23   S    
C22   C24   A    
H50   N1    S    
O9    P8    S    
C32   P3    S    
Ba2   O4    S    
O15   P2    D    
C12   O14   S    
C44   H43   S    
C4    H26   S    
C30   C31   A    
Ba2   O27   S    
Ba1   O4    S    
O24   P4    S    
Ba1   O24   S    
C8    C14   A    
O6    P7    D    
C35   H41   S    
C35   C48   A    
C49   O13   S    
O14   P6    S    
C52   H4    S    
C11   H28   S    
O17   P3    D    
C15   C17   A    
O1    P1    D    
C15   C58   A    
C23   O7    S    
C7    C10   A    
C57   H27   S    
C3    H32   S    
O5    P2    S    
O8    P8    D    
C23   C34   S    
C2    H33   S    
Ba2   O5    S    
C18   C19   A    
C12   N1    S    
C45   H17   S    
C20   C21   A    
C28   C40   S    
C31   P1    S    
C6    H29   S    
C36   P5    S    
Ba1   O15   S    
C34   H13   S    
