data_mof_unit_10935.cif
_audit_creation_date              2013-03-05T16:09:50-0500
_audit_creation_method            fapswitch 2.2
_symmetry_space_group_name_H-M    P1
_symmetry_Int_Tables_number       1
_space_group_crystal_system       triclinic
_cell_length_a                    6.938574
_cell_length_b                    13.382219
_cell_length_c                    14.69565
_cell_angle_alpha                 99.009285
_cell_angle_beta                  89.902228
_cell_angle_gamma                 90.193229
_cell_volume                      1347.69976512

loop_
_atom_site_label
_atom_site_type_symbol
_atom_site_description
_atom_site_fract_x
_atom_site_fract_y
_atom_site_fract_z
_atom_type_partial_charge
O1    O     O_R   0.354890 0.151580 0.148210 -0.593070
O2    O     O_R   0.645110 0.848420 0.851790 -0.593070
O3    O     O_R   0.682370 0.152980 0.336770 -0.568045
O4    O     O_R   0.317630 0.847020 0.663230 -0.568044
O5    O     O_R   0.854980 0.348430 0.351800 -0.575599
O6    O     O_R   0.145020 0.651570 0.648200 -0.575599
C1    C     C_R   0.513571 0.131589 0.366077 1.137763
C2    C     C_R   0.486429 0.868411 0.633923 1.137762
O7    O     O_R   0.684450 0.139580 0.148000 -0.581774
O8    O     O_R   0.315550 0.860420 0.852000 -0.581774
O9    O     O_R   0.857080 0.334940 0.161680 -0.602614
O10   O     O_R   0.142920 0.665060 0.838320 -0.602613
C3    C     C_R   0.515509 0.112669 0.114020 1.017470
C4    C     C_R   0.484491 0.887331 0.885980 1.017470
O11   O     O_R   0.352790 0.165070 0.338330 -0.602371
O12   O     O_R   0.647210 0.834930 0.661670 -0.602371
O13   O     O_3   0.522170 0.314120 0.254710 -0.283901
O14   O     O_3   0.477830 0.685880 0.745290 -0.283901
V1    V     V_3+5 0.796120 0.238110 0.249130 1.267491
V2    V     V_3+5 0.203880 0.761890 0.750870 1.267491
O15   O     O_R   0.186930 0.347040 0.163240 -0.595386
O16   O     O_R   0.813070 0.652960 0.836760 -0.595386
C5    C     C_R   0.018233 0.368642 0.133508 0.971773
C6    C     C_R   0.981766 0.631358 0.866492 0.971772
O17   O     O_R   0.184850 0.360440 0.352010 -0.594587
O18   O     O_R   0.815150 0.639560 0.647990 -0.594587
C7    C     C_R   0.015855 0.387331 0.385990 1.013822
C8    C     C_R   0.984145 0.612669 0.614010 1.013821
V3    V     V_3+5 0.296410 0.261900 0.250880 1.238957
V4    V     V_3+5 0.703590 0.738100 0.749120 1.238956
O19   O     O_3   0.020490 0.185890 0.245290 -0.261771
O20   O     O_3   0.979510 0.814110 0.754710 -0.261771
C9    C     C_1   0.005178 0.466907 0.466341 -0.148345
C10   C     C_1   0.994822 0.533092 0.533659 -0.148346
C11   C     C_3   0.178494 0.532252 0.983479 -0.168540
C12   C     C_3   0.821506 0.467748 0.016521 -0.168540
C13   C     C_3   0.075692 0.549831 0.078542 -0.164208
C14   C     C_3   0.924308 0.450169 0.921458 -0.164207
H1    H     H_    0.137614 0.590907 0.143460 0.183080
H2    H     H_    0.862386 0.409093 0.856540 0.183080
H3    H     H_    0.326165 0.558381 0.969604 0.163676
H4    H     H_    0.673835 0.441619 0.030396 0.163676
C15   C     C_3   0.008512 0.438554 0.062625 -0.214064
C16   C     C_3   0.991488 0.561446 0.937375 -0.214064
C17   C     C_3   0.110580 0.420694 0.968512 0.259447
C18   C     C_3   0.889420 0.579306 0.031488 0.259447
C19   C     C_3   0.316616 0.025332 0.478888 -0.340705
C20   C     C_3   0.683384 0.974668 0.521111 -0.340705
C21   C     C_3   0.402653 0.917263 0.467179 0.296695
C22   C     C_3   0.597347 0.082737 0.532821 0.296695
H5    H     H_    0.166008 0.044539 0.463059 0.201637
H6    H     H_    0.833992 0.955461 0.536941 0.201637
C23   C     C_3   0.495127 0.937807 0.563715 -0.421232
C24   C     C_3   0.504873 0.062193 0.436285 -0.421231
C25   C     C_3   0.413446 0.046060 0.575072 0.293885
C26   C     C_3   0.586554 0.953940 0.424928 0.293885
C27   C     C_1   0.504915 0.033097 0.033666 -0.159457
C28   C     C_1   0.495085 0.966903 0.966334 -0.159457
I1    I     I_    0.290519 0.295235 0.917015 -0.278603
I2    I     I_    0.709481 0.704765 0.082985 -0.278603
N1    N     N_R   0.297559 0.826741 0.426490 0.255916
O21   O     O_R   0.225113 0.821371 0.344308 -0.317430
O22   O     O_R   0.279610 0.750184 0.470501 -0.405922
N2    N     N_R   0.702441 0.173259 0.573510 0.255916
O23   O     O_R   0.774887 0.178629 0.655692 -0.317430
O24   O     O_R   0.720390 0.249816 0.529499 -0.405921
N3    N     N_R   0.320613 0.101460 0.656675 0.266004
O25   O     O_R   0.254207 0.191872 0.654797 -0.311473
O26   O     O_R   0.307129 0.062351 0.732038 -0.378520
N4    N     N_R   0.679387 0.898540 0.343324 0.266004
O27   O     O_R   0.745793 0.808128 0.345203 -0.311473
O28   O     O_R   0.692871 0.937649 0.267962 -0.378520

loop_
_geom_bond_atom_site_label_1
_geom_bond_atom_site_label_2
_geom_bond_distance
_ccdc_geom_bond_type
V4    O20   2.160536 S    
O13   V3    1.710523 S    
C12   H4    1.110357 S    
O4    C2    1.293767 A    
V1    O19   1.705835 S    
C19   C21   1.550811 S    
C7    C9    1.462968 S    
O9    V1    2.006385 S    
C22   C24   1.542607 S    
C22   N2    1.457879 S    
C11   C13   1.552602 S    
O3    C1    1.293766 A    
C3    C27   1.462762 S    
O12   V4    2.002595 S    
C5    C15   1.506938 S    
O9    C5    1.295614 A    
N1    O22   1.299936 A    
O7    C3    1.302285 A    
C14   C17   1.547937 S    
O5    C7    1.298277 A    
O7    V1    1.982664 S    
O6    C8    1.298278 A    
O8    V2    1.982664 S    
O3    V1    2.007367 S    
N4    O27   1.300470 A    
O14   V4    1.710522 S    
C20   C22   1.550811 S    
C8    C10   1.462968 S    
C2    O12   1.293719 A    
O2    C4    1.298343 A    
C16   C18   1.538099 S    
O11   V3    2.002594 S    
C23   C25   1.541807 S    
O17   V3    1.983933 S    
C20   C23   1.559211 S    
C4    C28   1.462762 S    
C24   C26   1.541807 S    
C21   N1    1.457879 S    
N3    O25   1.300470 A    
O8    C4    1.302285 A    
C19   H5    1.110669 S    
O15   V3    2.000677 S    
N3    O26   1.300021 A    
N2    O24   1.299936 A    
C13   C15   1.541455 S    
C14   C16   1.541455 S    
O10   V2    2.006383 S    
O1    V3    1.981161 S    
C9    C10   1.222319 T    
C12   C18   1.546593 S    
C11   C16   1.544227 S    
C15   C17   1.538099 S    
C19   C24   1.559211 S    
O18   V4    1.983932 S    
C26   N4    1.457672 S    
O15   C5    1.299292 A    
C6    C16   1.506938 S    
O16   C6    1.299293 A    
O1    C3    1.298343 A    
C11   C17   1.546593 S    
C19   C25   1.550947 S    
V2    O20   1.705835 S    
C20   C26   1.550947 S    
C17   I1    2.136184 S    
O16   V4    2.000674 S    
C18   I2    2.136184 S    
C2    C23   1.493345 S    
C25   N3    1.457672 S    
O5    V1    1.980716 S    
O17   C7    1.303214 A    
C21   C26   1.530730 S    
O6    V2    1.980716 S    
O10   C6    1.295614 A    
O18   C8    1.303214 A    
C22   C25   1.530730 S    
O2    V4    1.981162 S    
N2    O23   1.300412 A    
C12   C14   1.552602 S    
V3    O19   2.160536 S    
C14   H2    1.110165 S    
C27   C28   1.222192 T    
C21   C23   1.542607 S    
C1    O11   1.293719 A    
O13   V1    2.154275 S    
O14   V2    2.154274 S    
N1    O21   1.300412 A    
C11   H3    1.110357 S    
O4    V2    2.007366 S    
C20   H6    1.110669 S    
C13   H1    1.110165 S    
C12   C15   1.544227 S    
N4    O28   1.300021 A    
C1    C24   1.493345 S    
C13   C18   1.547937 S    
