data_mof_unit_5408.cif
_audit_creation_date              2012-12-11T14:39:41-0500
_audit_creation_method            fapswitch 2.2
_symmetry_space_group_name_H-M    P1
_symmetry_Int_Tables_number       1
_space_group_crystal_system       triclinic
_cell_length_a                    7.358823
_cell_length_b                    14.904323
_cell_length_c                    15.842464
_cell_angle_alpha                 90.0
_cell_angle_beta                  96.680121
_cell_angle_gamma                 89.999962
_cell_volume                      1725.77785098

loop_
_atom_site_label
_atom_site_type_symbol
_atom_type_description
_atom_site_fract_x
_atom_site_fract_y
_atom_site_fract_z
_atom_type_partial_charge
O1    O     O_R   0.525340 0.338340 0.164530 -0.533237
O2    O     O_R   0.474660 0.661660 0.835470 -0.533523
O3    O     O_R   0.974660 0.838340 0.835470 -0.533237
O4    O     O_R   0.025340 0.161660 0.164530 -0.533526
O5    O     O_R   0.253520 0.352000 0.336710 -0.528659
O6    O     O_R   0.746480 0.648000 0.663290 -0.486440
O7    O     O_R   0.246480 0.852000 0.663290 -0.528660
O8    O     O_R   0.753520 0.148000 0.336710 -0.486440
O9    O     O_R   0.083330 0.168380 0.337300 -0.471963
O10   O     O_R   0.916670 0.831620 0.662700 -0.465885
O11   O     O_R   0.416670 0.668380 0.662700 -0.471962
O12   O     O_R   0.583330 0.331620 0.337300 -0.465886
C1    C     C_R   0.433936 0.364698 0.367225 0.816021
C2    C     C_R   0.565862 0.634058 0.634280 0.828245
C3    C     C_R   0.066064 0.864698 0.632775 0.816021
C4    C     C_R   0.934138 0.134058 0.365720 0.828242
O13   O     O_R   0.195840 0.349670 0.165140 -0.564110
O14   O     O_R   0.804160 0.650330 0.834860 -0.558527
O15   O     O_R   0.304160 0.849670 0.834860 -0.564109
O16   O     O_R   0.695840 0.150330 0.165140 -0.558523
C5    C     C_R   0.358508 0.371455 0.138278 0.679954
C6    C     C_R   0.641723 0.628963 0.862093 0.673592
C7    C     C_R   0.141492 0.871455 0.861722 0.679953
C8    C     C_R   0.858277 0.128963 0.137907 0.673590
O17   O     O_3   0.387830 0.193120 0.250910 -0.322846
O18   O     O_3   0.612170 0.806880 0.749090 -0.351184
O19   O     O_3   0.112170 0.693120 0.749090 -0.322847
O20   O     O_3   0.887830 0.306880 0.250910 -0.351187
V1    V     V_3+5 0.113010 0.264540 0.250910 1.716994
V2    V     V_3+5 0.886990 0.735460 0.749090 1.786490
V3    V     V_3+5 0.386990 0.764540 0.749090 1.716994
V4    V     V_3+5 0.613010 0.235460 0.250910 1.786499
H1    H     H_    0.998853 0.865576 0.227674 0.153951
H2    H     H_    0.058952 0.136497 0.769782 0.170119
H3    H     H_    0.501141 0.365577 0.772326 0.153961
H4    H     H_    0.441044 0.636499 0.230218 0.170119
C9    C     C_R   0.024054 0.183613 0.559838 0.507894
C10   C     C_R   0.991066 0.816988 0.435620 0.512564
C11   C     C_R   0.475947 0.683615 0.440162 0.507892
C12   C     C_R   0.508936 0.316990 0.564379 0.512566
C13   C     C_R   0.078133 0.191627 0.647483 -0.131512
C14   C     C_R   0.959219 0.808944 0.346859 -0.134860
C15   C     C_R   0.421870 0.691628 0.352518 -0.131524
C16   C     C_R   0.540784 0.308946 0.653141 -0.134868
C17   C     C_R   0.054248 0.122084 0.702534 -0.226977
C18   C     C_R   0.987475 0.879459 0.294007 -0.245676
C19   C     C_R   0.445749 0.622085 0.297466 -0.226974
C20   C     C_R   0.512520 0.379460 0.705992 -0.245682
C21   C     C_R   0.975519 0.043750 0.669408 0.366911
C22   C     C_R   0.052758 0.958758 0.330150 0.348440
C23   C     C_R   0.524476 0.543751 0.330591 0.366910
C24   C     C_R   0.447235 0.458758 0.669849 0.348468
C25   C     C_R   0.999554 0.021653 0.584664 -0.100677
C26   C     C_R   0.012223 0.979027 0.413413 -0.088794
C27   C     C_R   0.500443 0.521654 0.415335 -0.100676
C28   C     C_R   0.487773 0.479028 0.586586 -0.088806
C29   C     C_R   0.997596 0.093499 0.524401 -0.012611
C30   C     C_R   0.007921 0.906760 0.472726 0.007256
C31   C     C_R   0.502403 0.593500 0.475599 -0.012612
C32   C     C_R   0.492078 0.406761 0.527274 0.007249
C33   C     C_R   0.021405 0.930243 0.561519 -0.073435
C34   C     C_R   0.980384 0.069258 0.436328 -0.071672
C35   C     C_R   0.478595 0.430244 0.438480 -0.073434
C36   C     C_R   0.519615 0.569259 0.563671 -0.071673
H5    H     H_    0.120408 0.254924 0.675059 0.222021
H6    H     H_    0.935569 0.745141 0.317236 0.236046
H7    H     H_    0.379603 0.754926 0.324942 0.222027
H8    H     H_    0.564441 0.245143 0.682764 0.236046
H9    H     H_    0.124145 0.078302 0.041945 0.163856
H10   H     H_    0.869733 0.927890 0.951788 0.173956
H11   H     H_    0.375853 0.578300 0.958053 0.163848
H12   H     H_    0.630265 0.427888 0.048210 0.173953
C37   C     C_2   0.145165 0.943324 0.927439 -0.287940
C38   C     C_2   0.853487 0.058178 0.071162 -0.268287
C39   C     C_2   0.354834 0.443323 0.072560 -0.287938
C40   C     C_2   0.646513 0.558177 0.928837 -0.268279
C41   C     C_2   0.996378 0.965164 0.966241 -0.075936
C42   C     C_2   0.999417 0.039171 0.029383 -0.144635
C43   C     C_2   0.503620 0.465162 0.033757 -0.075933
C44   C     C_2   0.500580 0.539169 0.970615 -0.144616
H13   H     H_    0.727570 0.020373 0.056264 0.131477
H14   H     H_    0.272517 0.979479 0.944113 0.128061
H15   H     H_    0.772430 0.520372 0.943735 0.131468
H16   H     H_    0.227482 0.479479 0.055886 0.128056
S1    S     S_3+6 0.981504 0.291401 0.511350 0.043821
O21   O     O_2   0.153564 0.338614 0.499330 -0.353849
O22   O     O_2   0.866336 0.290766 0.428198 -0.309653
O23   O     O_3   0.877971 0.355800 0.577889 -0.494491
H17   H     H_    0.881731 0.417383 0.554539 0.402927
S2    S     S_3+6 0.019115 0.710161 0.485936 0.039945
O24   O     O_2   0.155329 0.712205 0.562373 -0.318970
O25   O     O_2   0.844565 0.675569 0.511058 -0.321061
O26   O     O_3   0.089390 0.634352 0.418504 -0.514728
H18   H     H_    0.111011 0.578920 0.452682 0.381824
S3    S     S_3+6 0.518497 0.791402 0.488650 0.043821
O27   O     O_2   0.346438 0.838615 0.500669 -0.353850
O28   O     O_2   0.633662 0.790767 0.571802 -0.309650
O29   O     O_3   0.622031 0.855800 0.422112 -0.494492
H19   H     H_    0.618265 0.917384 0.445461 0.402929
S4    S     S_3+6 0.480886 0.210162 0.514064 0.039946
O30   O     O_2   0.344676 0.212205 0.437625 -0.318967
O31   O     O_2   0.655438 0.175568 0.488945 -0.321066
O32   O     O_3   0.410605 0.134354 0.581496 -0.514727
H20   H     H_    0.388996 0.078920 0.547318 0.381824
S5    S     S_3+6 0.762097 0.019664 0.705223 0.026993
O33   O     O_2   0.784712 0.969077 0.786870 -0.347569
O34   O     O_2   0.669410 0.105855 0.722436 -0.340024
O35   O     O_3   0.628338 0.962269 0.631052 -0.452463
H21   H     H_    0.505322 0.963878 0.650383 0.376056
S6    S     S_3+6 0.268378 0.989085 0.299272 0.030022
O36   O     O_2   0.369248 0.051712 0.362277 -0.265295
O37   O     O_2   0.382911 0.906706 0.294998 -0.346898
O38   O     O_3   0.246704 0.033445 0.201690 -0.504454
H22   H     H_    0.259994 0.982409 0.162833 0.323402
S7    S     S_3+6 0.737898 0.519666 0.294776 0.026991
O39   O     O_2   0.715283 0.469081 0.213127 -0.347571
O40   O     O_2   0.830584 0.605857 0.277564 -0.340023
O41   O     O_3   0.871657 0.462268 0.368944 -0.452466
H23   H     H_    0.994671 0.463879 0.349614 0.376060
S8    S     S_3+6 0.231617 0.489087 0.700727 0.030022
O42   O     O_2   0.130746 0.551713 0.637721 -0.265296
O43   O     O_2   0.117084 0.406708 0.705004 -0.346902
O44   O     O_3   0.253294 0.533450 0.798307 -0.504460
H24   H     H_    0.239944 0.482422 0.837166 0.323408

loop_
_geom_bond_atom_site_label_1
_geom_bond_atom_site_label_2
_ccdc_geom_bond_type
O1    C5    A    
O26   H18   S    
C12   C32   A    
C27   C31   A    
O13   V1    S    
O3    C7    A    
S3    O27   D    
C6    C40   S    
O15   V3    S    
S3    O29   S    
O44   H24   S    
C41   C42   S    
S5    O34   D    
C31   C36   A    
C22   C26   A    
C32   C35   A    
C9    S1    S    
O20   V1    S    
O9    C4    A    
C10   C14   A    
H12   C43   S    
O10   C3    A    
O16   V4    S    
O4    C8    A    
O11   C2    A    
C39   H16   S    
S7    O39   D    
C22   S6    S    
O35   H21   S    
H4    C19   S    
C14   C18   A    
O41   H23   S    
S6    O37   D    
C10   C30   A    
C25   C33   A    
O16   C8    A    
S7    O40   D    
C27   C35   A    
O2    C6    A    
C28   C36   A    
O14   V2    S    
O5    C1    A    
O4    V1    S    
S8    O44   S    
O9    V1    S    
C30   C33   A    
O7    C3    A    
O11   V3    S    
O18   V3    S    
O8    C4    A    
O12   V4    S    
O19   V2    S    
H1    C18   S    
H9    C42   S    
C4    C34   S    
C7    C37   S    
H3    C20   S    
C40   H15   S    
H11   C44   S    
S8    O43   D    
O5    V1    S    
S1    O22   D    
C11   C15   A    
S5    O35   S    
O7    V3    S    
O8    V4    S    
C29   C34   A    
S6    O36   D    
C25   C29   A    
C19   C23   A    
C26   C34   A    
S1    O21   D    
S4    O32   S    
O13   C5    A    
C28   C32   A    
O2    V3    S    
O3    V2    S    
O15   C7    A    
O6    C2    A    
C10   S2    S    
O10   V2    S    
S2    O25   D    
C1    C35   S    
C17   C21   A    
S7    O41   S    
C11   C31   A    
S4    O31   D    
C3    C33   S    
H2    C17   S    
O12   C1    A    
S6    O38   S    
C11   S3    S    
C2    C36   S    
C24   S8    S    
O6    V2    S    
C16   H8    S    
C38   H13   S    
C37   H14   S    
S8    O42   D    
S2    O26   S    
O38   H22   S    
C26   C30   A    
S1    O23   S    
C5    C39   S    
C37   C41   D    
O14   C6    A    
C21   S5    S    
C40   C44   D    
C12   S4    S    
C13   H5    S    
S3    O28   D    
S5    O33   D    
C18   C22   A    
C8    C38   S    
S2    O24   D    
C15   C19   A    
O17   V4    S    
C21   C25   A    
S4    O30   D    
C23   C27   A    
O1    V4    S    
C9    C13   A    
C23   S7    S    
C43   C44   S    
C16   C20   A    
C12   C16   A    
O23   H17   S    
C15   H7    S    
O29   H19   S    
C38   C42   D    
O32   H20   S    
C14   H6    S    
C13   C17   A    
C20   C24   A    
C39   C43   D    
C9    C29   A    
C24   C28   A    
H10   C41   S    
