data_mof_unit_51037.cif
_audit_creation_date              2012-12-10T17:31:22-0500
_audit_creation_method            fapswitch 2.2
_symmetry_space_group_name_H-M    P1
_symmetry_Int_Tables_number       1
_space_group_crystal_system       triclinic
_cell_length_a                    19.150698
_cell_length_b                    18.430276
_cell_length_c                    12.321664
_cell_angle_alpha                 89.999963
_cell_angle_beta                  128.817127
_cell_angle_gamma                 90.0
_cell_volume                      3388.49798205

loop_
_atom_site_label
_atom_site_type_symbol
_atom_type_description
_atom_site_fract_x
_atom_site_fract_y
_atom_site_fract_z
_atom_type_partial_charge
C1    C     C_R   0.608655 0.895877 0.648806 0.789922
C2    C     C_R   0.608654 0.104123 0.648806 0.789922
C3    C     C_R   0.108655 0.395877 0.648806 0.789922
C4    C     C_R   0.108655 0.604123 0.648806 0.789922
C5    C     C_R   0.234359 0.782289 0.028712 0.028817
C6    C     C_R   0.234359 0.217710 0.028712 0.028817
C7    C     C_R   0.734359 0.282289 0.028712 0.028817
C8    C     C_R   0.734359 0.717710 0.028712 0.028817
C9    C     C_R   0.667291 0.263787 0.041006 0.149529
C10   C     C_R   0.667290 0.736212 0.041005 0.149529
C11   C     C_R   0.167290 0.763788 0.041005 0.149529
C12   C     C_R   0.167290 0.236212 0.041005 0.149529
C13   C     C_R   0.592387 0.222904 0.935428 0.145960
C14   C     C_R   0.592386 0.777095 0.935427 0.145960
C15   C     C_R   0.092386 0.722905 0.935427 0.145960
C16   C     C_R   0.092386 0.277095 0.935427 0.145960
C17   C     C_R   0.587110 0.198739 0.823412 -0.205154
C18   C     C_R   0.587110 0.801260 0.823411 -0.205154
C19   C     C_R   0.087110 0.698740 0.823411 -0.205153
C20   C     C_R   0.087110 0.301260 0.823411 -0.205153
C21   C     C_R   0.307957 0.823391 0.135075 -0.242036
C22   C     C_R   0.307957 0.176608 0.135075 -0.242036
C23   C     C_R   0.807957 0.323392 0.135075 -0.242036
C24   C     C_R   0.807957 0.676608 0.135075 -0.242036
C25   C     C_R   0.247851 0.831134 0.258238 -0.207742
C26   C     C_R   0.247852 0.168866 0.258238 -0.207741
C27   C     C_R   0.747852 0.331133 0.258240 -0.207742
C28   C     C_R   0.747852 0.668866 0.258238 -0.207742
C29   C     C_R   0.663058 0.169488 0.723308 -0.095853
C30   C     C_R   0.663058 0.830512 0.723308 -0.095853
C31   C     C_R   0.163058 0.669488 0.723308 -0.095854
C32   C     C_R   0.163058 0.330512 0.723308 -0.095853
C33   C     C_R   0.682831 1.000000 0.284413 -0.301387
C34   C     C_R   0.182831 0.500000 0.284413 -0.301387
C35   C     C_R   0.344663 0.000000 0.628605 0.054251
C36   C     C_R   0.844663 0.500000 0.628605 0.054251
C37   C     C_R   0.310992 0.000000 0.701263 -0.258040
C38   C     C_R   0.810992 0.500000 0.701263 -0.258039
C39   C     C_R   0.384852 0.099171 0.343010 0.794825
C40   C     C_R   0.384852 0.900828 0.343010 0.794825
C41   C     C_R   0.884852 0.599172 0.343010 0.794826
C42   C     C_R   0.884853 0.400828 0.343010 0.794825
C43   C     C_R   0.369342 0.000000 0.846528 -0.204796
C44   C     C_R   0.869342 0.500000 0.846528 -0.204797
C45   C     C_R   0.462854 0.000000 0.921692 -0.005837
C46   C     C_R   0.962854 0.500000 0.921692 -0.005837
C47   C     C_R   0.494307 1.000000 0.842429 0.279483
C48   C     C_R   0.994307 0.500000 0.842429 0.279484
C49   C     C_R   0.526246 0.000000 0.071902 -0.045476
C50   C     C_R   0.026246 0.500000 0.071902 -0.045475
C51   C     C_R   0.619136 1.000000 0.138694 0.168935
C52   C     C_R   0.119136 0.500000 0.138694 0.168935
C53   C     C_R   0.648280 1.000000 0.060020 -0.266565
C54   C     C_R   0.148280 0.500000 0.060020 -0.266566
C55   C     C_R   0.587504 1.000000 0.915789 -0.160284
C56   C     C_R   0.087504 0.500000 0.915789 -0.160284
C57   C     C_R   0.502217 0.000000 0.160107 0.008148
C58   C     C_R   0.002217 0.500000 0.160107 0.008148
C59   C     C_R   0.654841 1.000000 0.364647 0.062647
C60   C     C_R   0.154841 0.500000 0.364647 0.062647
C61   C     C_R   0.675842 0.288115 0.157351 -0.186782
C62   C     C_R   0.675841 0.711884 0.157350 -0.186782
C63   C     C_R   0.175841 0.788116 0.157350 -0.186782
C64   C     C_R   0.175841 0.211884 0.157350 -0.186781
C65   C     C_R   0.313493 0.849678 0.246319 -0.045625
C66   C     C_R   0.313493 0.150322 0.246319 -0.045626
C67   C     C_R   0.813494 0.349678 0.246320 -0.045625
C68   C     C_R   0.813493 0.650322 0.246319 -0.045625
C69   C     C_R   0.723969 0.192249 0.702939 -0.187968
C70   C     C_R   0.723969 0.807751 0.702940 -0.187968
C71   C     C_R   0.223969 0.692249 0.702939 -0.187968
C72   C     C_R   0.223969 0.307751 0.702940 -0.187968
C73   C     C_R   0.282435 0.748982 0.780321 -0.155786
C74   C     C_R   0.282435 0.251018 0.780321 -0.155786
C75   C     C_R   0.782434 0.248982 0.780320 -0.155786
C76   C     C_R   0.782434 0.751018 0.780320 -0.155786
C77   C     C_R   0.286503 0.779965 0.887011 -0.168269
C78   C     C_R   0.286503 0.220035 0.887011 -0.168269
C79   C     C_R   0.786503 0.279965 0.887010 -0.168269
C80   C     C_R   0.786502 0.720035 0.887010 -0.168269
C81   C     C_R   0.727707 0.257054 0.913476 0.075734
C82   C     C_R   0.727707 0.742946 0.913476 0.075734
C83   C     C_R   0.227707 0.757054 0.913477 0.075734
C84   C     C_R   0.227707 0.242946 0.913476 0.075734
C85   C     C_R   0.658714 0.207633 0.819536 0.034720
C86   C     C_R   0.658714 0.792367 0.819536 0.034720
C87   C     C_R   0.158715 0.707633 0.819536 0.034720
C88   C     C_R   0.158714 0.292367 0.819536 0.034720
Cu1   Cu    Cu3+1 0.526340 0.000000 0.421010 0.930551
Cu2   Cu    Cu3+1 0.026340 0.500000 0.421010 0.930551
Cu3   Cu    Cu3+1 0.473640 0.000000 0.578990 0.910026
Cu4   Cu    Cu3+1 0.973640 0.500000 0.578990 0.910026
H1    H     H_    0.251184 0.850901 0.344183 0.152863
H2    H     H_    0.251184 0.149099 0.344184 0.152863
H3    H     H_    0.751186 0.350900 0.344185 0.152863
H4    H     H_    0.751184 0.649099 0.344184 0.152863
H5    H     H_    0.719326 1.000000 0.110661 0.151216
H6    H     H_    0.219326 0.500000 0.110661 0.151216
H7    H     H_    0.753981 1.000000 0.336014 0.139020
H8    H     H_    0.253981 0.500000 0.336014 0.139020
H9    H     H_    0.433155 0.000000 0.118232 0.123697
H10   H     H_    0.933155 0.500000 0.118232 0.123697
H11   H     H_    0.298723 0.000000 0.515949 0.128071
H12   H     H_    0.798723 0.500000 0.515949 0.128071
H13   H     H_    0.339537 0.000000 0.897197 0.136410
H14   H     H_    0.839537 0.500000 0.897197 0.136410
H15   H     H_    0.239278 0.000000 0.644679 0.148393
H16   H     H_    0.739278 0.500000 0.644679 0.148393
H17   H     H_    0.617275 1.000000 0.866379 0.210684
H18   H     H_    0.117275 0.500000 0.866379 0.210684
H19   H     H_    0.626430 0.275406 0.170548 0.149955
H20   H     H_    0.626428 0.724592 0.170546 0.149955
H21   H     H_    0.126428 0.775408 0.170545 0.149955
H22   H     H_    0.126428 0.224592 0.170546 0.149955
H23   H     H_    0.362763 0.835212 0.134534 0.151175
H24   H     H_    0.362763 0.164787 0.134533 0.151175
H25   H     H_    0.862763 0.335213 0.134532 0.151175
H26   H     H_    0.862763 0.664787 0.134533 0.151175
H27   H     H_    0.726643 0.166178 0.626827 0.155125
H28   H     H_    0.726644 0.833822 0.626829 0.155125
H29   H     H_    0.226643 0.666178 0.626828 0.155125
H30   H     H_    0.226644 0.333823 0.626830 0.155125
H31   H     H_    0.334454 0.823191 0.943735 0.130014
H32   H     H_    0.334454 0.176809 0.943735 0.130014
H33   H     H_    0.834454 0.323191 0.943734 0.130013
H34   H     H_    0.834453 0.676808 0.943734 0.130014
H35   H     H_    0.326454 0.767746 0.759498 0.145793
H36   H     H_    0.326454 0.232254 0.759499 0.145793
H37   H     H_    0.826453 0.267747 0.759497 0.145793
H38   H     H_    0.826454 0.732253 0.759498 0.145793
H39   H     H_    0.524459 0.174963 0.737218 0.184939
H40   H     H_    0.524459 0.825036 0.737218 0.184939
H41   H     H_    0.024459 0.674964 0.737218 0.184939
H42   H     H_    0.024459 0.325036 0.737217 0.184939
H43   H     H_    0.703773 1.000000 0.477104 0.124173
H44   H     H_    0.203773 0.500000 0.477104 0.124173
N1    N     N_R   0.566260 0.000000 0.302220 -0.177989
N2    N     N_R   0.066260 0.500000 0.302220 -0.177989
N3    N     N_R   0.434410 0.000000 0.697680 -0.211206
N4    N     N_R   0.934410 0.500000 0.697680 -0.211206
O1    O     O_R   0.608610 0.924520 0.551740 -0.579311
O2    O     O_R   0.608610 0.075480 0.551740 -0.579311
O3    O     O_R   0.108610 0.424520 0.551740 -0.579311
O4    O     O_R   0.108610 0.575480 0.551740 -0.579311
O5    O     O_R   0.564110 0.924510 0.685150 -0.607475
O6    O     O_R   0.564110 0.075490 0.685150 -0.607475
O7    O     O_R   0.064110 0.424510 0.685150 -0.607475
O8    O     O_R   0.064110 0.575490 0.685150 -0.607475
O9    O     O_R   0.435880 0.075470 0.314850 -0.589288
O10   O     O_R   0.435880 0.924530 0.314850 -0.589288
O11   O     O_R   0.935880 0.575470 0.314850 -0.589288
O12   O     O_R   0.935880 0.424530 0.314850 -0.589288
O13   O     O_R   0.391380 0.075460 0.448260 -0.595863
O14   O     O_R   0.391380 0.924540 0.448260 -0.595863
O15   O     O_R   0.891380 0.575460 0.448260 -0.595863
O16   O     O_R   0.891380 0.424540 0.448260 -0.595862
C89   C     C_3   0.517977 0.203197 0.940607 -0.899371
H45   H     H_    0.465013 0.170242 0.849233 0.232916
H46   H     H_    0.545293 0.170391 0.035196 0.241967
H47   H     H_    0.486678 0.253317 0.942609 0.230206
C90   C     C_3   0.517976 0.796802 0.940605 -0.899374
H48   H     H_    0.465012 0.829757 0.849232 0.232917
H49   H     H_    0.486677 0.746681 0.942606 0.230206
H50   H     H_    0.545292 0.829607 0.035195 0.241968
C91   C     C_3   0.017976 0.703198 0.940605 -0.899373
H51   H     H_    0.965012 0.670243 0.849231 0.232917
H52   H     H_    0.045292 0.670393 0.035194 0.241968
H53   H     H_    0.986677 0.753319 0.942606 0.230206
C92   C     C_3   0.017976 0.296802 0.940605 -0.899372
H54   H     H_    0.965012 0.329757 0.849231 0.232916
H55   H     H_    0.986677 0.246682 0.942606 0.230206
H56   H     H_    0.045292 0.329607 0.035194 0.241967

loop_
_geom_bond_atom_site_label_1
_geom_bond_atom_site_label_2
_ccdc_geom_bond_type
C26   H2    S    
C83   C87   A    
C3    O7    A    
C89   H45   S    
C17   H39   S    
C92   H54   S    
C14   C18   A    
C27   H3    S    
C25   C63   A    
C21   H23   S    
C39   C66   S    
C90   H48   S    
C32   C72   A    
C42   O16   A    
C25   H1    S    
C4    O4    A    
C91   H51   S    
C39   O13   A    
C2    C29   S    
C9    C61   A    
C1    O1    A    
C28   C68   A    
C37   H15   S    
C35   H11   S    
C6    C12   A    
C12   C64   A    
Cu1   O1    S    
Cu4   O8    S    
C59   N1    A    
Cu1   O2    S    
C6    C22   A    
C49   C57   A    
C48   C56   A    
C43   H13   S    
C23   C67   A    
Cu3   O13   S    
C26   C64   A    
C22   C66   A    
C9    C13   A    
C27   C61   A    
C35   N3    A    
C33   C59   A    
C11   C15   A    
C16   C92   S    
C3    O3    A    
C74   H36   S    
C12   C16   A    
C44   C46   A    
C22   H24   S    
C49   C51   A    
C18   H40   S    
C34   H8    S    
C58   H10   S    
C30   C86   A    
C78   H32   S    
C30   C70   A    
C29   C85   A    
Cu2   O3    S    
C21   C65   A    
C58   N2    A    
C62   H20   S    
C45   C47   A    
C79   H33   S    
C91   H52   S    
C55   H17   S    
Cu4   O7    S    
C34   C60   A    
C92   H55   S    
C40   O14   A    
C10   C62   A    
C76   H38   S    
C56   H18   S    
C90   H49   S    
C52   C54   A    
C46   C50   A    
C41   C68   S    
C29   C69   A    
C53   C55   A    
Cu2   Cu4   S    
C46   C48   A    
Cu1   O9    S    
C31   C87   A    
C28   C62   A    
C48   N4    A    
C57   N1    A    
C26   C66   A    
C76   C80   A    
C6    C84   A    
Cu3   O14   S    
C72   C74   A    
C10   C14   A    
C70   H28   S    
C79   C81   A    
C53   H5    S    
C73   H35   S    
C69   H27   S    
C33   H7    S    
C50   C58   A    
Cu2   N2    S    
C15   C19   A    
C5    C83   A    
C38   C44   A    
C77   H31   S    
C43   C45   A    
C50   C52   A    
C45   C49   A    
C16   C20   A    
C40   O10   A    
Cu4   O16   S    
C18   C86   A    
C36   N4    A    
Cu3   N3    S    
C19   H41   S    
Cu2   O12   S    
Cu1   O10   S    
C7    C81   A    
C89   H47   S    
Cu1   N1    S    
C40   C65   S    
C70   C76   A    
C42   C67   S    
C2    O2    A    
C92   H56   S    
C17   C85   A    
C37   C43   A    
C32   C88   A    
C33   C51   A    
C1    O5    A    
C47   N3    A    
Cu4   N4    S    
Cu3   O5    S    
C90   H50   S    
C42   O12   A    
C35   C37   A    
C47   C55   A    
C7    C9    A    
C60   H44   S    
C73   C77   A    
C72   H30   S    
C24   H26   S    
C71   H29   S    
C8    C10   A    
C54   H6    S    
C84   C88   A    
Cu2   O11   S    
C23   H25   S    
C54   C56   A    
C5    C11   A    
C91   H53   S    
C41   O11   A    
C44   H14   S    
C2    O6    A    
C57   H9    S    
C39   O9    A    
C34   C52   A    
C13   C17   A    
C28   H4    S    
C20   H42   S    
C14   C90   S    
C36   C38   A    
C19   C87   A    
C82   C86   A    
C36   H12   S    
C80   H34   S    
C61   H19   S    
C7    C23   A    
C20   C88   A    
C59   H43   S    
C1    C30   S    
C8    C24   A    
C80   C82   A    
C69   C75   A    
Cu4   O15   S    
C38   H16   S    
C3    C32   S    
C81   C85   A    
C4    C31   S    
C27   C67   A    
C24   C68   A    
C63   H21   S    
C78   C84   A    
C8    C82   A    
C5    C21   A    
C64   H22   S    
C89   H46   S    
Cu1   Cu3   S    
C74   C78   A    
C71   C73   A    
C25   C65   A    
C77   C83   A    
C15   C91   S    
C51   C53   A    
C13   C89   S    
C11   C63   A    
C75   C79   A    
Cu3   O6    S    
Cu2   O4    S    
C75   H37   S    
C60   N2    A    
C31   C71   A    
C41   O15   A    
C4    O8    A    
