data_mof_unit_44987.cif
_audit_creation_date              2012-10-26T20:31:44-0400
_audit_creation_method            fapswitch 2.2
_symmetry_space_group_name_H-M    P1
_symmetry_Int_Tables_number       1
_space_group_crystal_system       triclinic
_cell_length_a                    15.881566
_cell_length_b                    10.840978
_cell_length_c                    9.568703
_cell_angle_alpha                 91.761692
_cell_angle_beta                  89.336599
_cell_angle_gamma                 90.587954
_cell_volume                      1646.48999511

loop_
_atom_site_label
_atom_site_type_symbol
_atom_type_description
_atom_site_fract_x
_atom_site_fract_y
_atom_site_fract_z
_atom_type_partial_charge
C1    C     C_R   0.498325 0.262709 0.497591 0.574345
C2    C     C_R   0.501357 0.129807 0.489773 0.025436
C3    C     C_R   0.455197 0.058937 0.390037 0.106351
C4    C     C_R   0.340284 0.499763 0.500730 0.562021
C5    C     C_R   0.454727 0.929729 0.397608 -0.145952
C6    C     C_R   0.501732 0.871229 0.499950 -0.028364
C7    C     C_R   0.558083 0.942926 0.579536 -0.031112
C8    C     C_3   0.582402 0.946485 0.730351 -0.087911
C9    C     C_3   0.577672 0.087851 0.726784 0.019550
C10   C     C_R   0.569412 0.538264 0.073749 0.154093
C11   C     C_R   0.437118 0.444311 0.074724 -0.024281
C12   C     C_3   0.947746 0.417062 0.616858 -0.228966
C13   C     C_R   0.437691 0.441659 0.926134 0.070970
C14   C     C_R   0.569520 0.537766 0.926804 0.135039
C15   C     C_3   0.611659 0.660256 0.925152 -0.264182
C16   C     C_R   0.501099 0.737680 0.501427 0.549134
C17   C     C_3   0.611583 0.661217 0.083822 -0.265019
C18   C     C_R   0.659684 0.500481 0.499301 0.541557
C19   C     C_3   0.045725 0.414461 0.619263 -0.085105
C20   C     C_3   0.051202 0.446930 0.359388 -0.222625
C21   C     C_3   0.953218 0.444979 0.356230 -0.086205
C22   C     C_1   0.749246 0.500049 0.497978 -0.027256
C23   C     C_3   0.917017 0.498683 0.497554 0.039602
C24   C     C_3   0.082778 0.497956 0.502976 0.036142
C25   C     C_1   0.076910 0.450825 0.759719 0.201350
C26   C     C_3   0.442346 0.117950 0.151366 -0.289063
C27   C     C_1   0.667862 0.897599 0.747288 0.231316
C28   C     C_3   0.715227 0.176191 0.638974 -0.261215
C29   C     C_1   0.373024 0.369922 0.856734 0.232615
C30   C     C_1   0.922547 0.511569 0.234555 0.190540
C31   C     C_3   0.951949 0.631396 0.524741 -0.214905
C32   C     C_3   0.049429 0.631369 0.524502 -0.222899
C33   C     C_1   0.824730 0.499391 0.497599 -0.062712
C34   C     C_1   0.175125 0.498484 0.502911 -0.056624
C35   C     C_1   0.250655 0.499084 0.502237 -0.005755
C36   C     C_R   0.555837 0.069385 0.576082 -0.015950
Cu1   Cu    Cu3+1 0.500000 0.499980 0.640670 0.963756
Cu2   Cu    Cu3+1 0.500000 0.500020 0.359330 0.948510
H1    H     H_    0.923116 0.321178 0.601029 0.097167
H2    H     H_    0.569520 0.729750 0.882913 0.143551
H3    H     H_    0.675756 0.655950 0.128277 0.151766
H4    H     H_    0.570731 0.733804 0.132260 0.152772
H5    H     H_    0.078315 0.503861 0.274511 0.145943
H6    H     H_    0.074739 0.351453 0.340063 0.109985
H7    H     H_    0.931421 0.347473 0.342541 0.103030
H8    H     H_    0.072606 0.673057 0.624742 0.139791
H9    H     H_    0.073614 0.690271 0.439323 0.123043
H10   H     H_    0.928316 0.668506 0.627488 0.140647
H11   H     H_    0.343902 0.080883 0.286820 0.246308
H12   H     H_    0.921094 0.452257 0.718589 0.142900
H13   H     H_    0.451217 0.022328 0.108766 0.127008
H14   H     H_    0.504210 0.166696 0.154603 0.173824
H15   H     H_    0.400532 0.167276 0.080135 0.134740
H16   H     H_    0.650662 0.228466 0.821719 0.255278
H17   H     H_    0.774532 0.217143 0.680675 0.134895
H18   H     H_    0.687341 0.241757 0.566128 0.142020
H19   H     H_    0.730777 0.088770 0.581427 0.167233
H20   H     H_    0.929393 0.694164 0.443614 0.139110
H21   H     H_    0.415716 0.875576 0.326009 0.130828
H22   H     H_    0.533471 0.906238 0.799372 0.077447
H23   H     H_    0.524465 0.125637 0.791163 0.119737
H24   H     H_    0.386091 0.400484 0.131133 0.135403
H25   H     H_    0.066412 0.317879 0.597620 0.108904
H26   H     H_    0.675709 0.654412 0.877759 0.165081
N1    N     N_R   0.500530 0.500930 0.147930 -0.241745
N2    N     N_R   0.500530 0.500890 0.852020 -0.245971
N3    N     N_1   0.101342 0.479269 0.869663 -0.287237
N4    N     N_2   0.404472 0.116106 0.289605 -0.497318
N5    N     N_1   0.735240 0.860094 0.759840 -0.317186
N6    N     N_2   0.657186 0.153390 0.753750 -0.494573
N7    N     N_1   0.320875 0.311195 0.802406 -0.303841
N8    N     N_1   0.898481 0.563643 0.139313 -0.299208
O1    O     O_R   0.500000 0.319640 0.618810 -0.506703
O2    O     O_R   0.500010 0.319680 0.381230 -0.481710
O3    O     O_R   0.379430 0.499990 0.618840 -0.478078
O4    O     O_R   0.379440 0.500030 0.381260 -0.505255
O5    O     O_R   0.499990 0.680320 0.618770 -0.502261
O6    O     O_R   0.500000 0.680360 0.381190 -0.507399
O7    O     O_R   0.620560 0.499970 0.618740 -0.499792
O8    O     O_R   0.620570 0.500010 0.381160 -0.496357

loop_
_geom_bond_atom_site_label_1
_geom_bond_atom_site_label_2
_ccdc_geom_bond_type
H11   N4    S    
C7    C36   A    
C3    N4    S    
C25   N3    T    
C11   H24   S    
C28   H18   S    
C7    C8    S    
Cu2   O4    S    
C28   H19   S    
Cu1   O7    S    
C12   C23   S    
C9    H23   S    
C1    O2    A    
C31   H20   S    
C13   C29   S    
C34   C35   T    
C5    C6    A    
C10   C17   S    
C1    C2    S    
C17   H4    S    
C4    O3    A    
C20   C24   S    
C19   H25   S    
C8    C9    S    
C23   C33   S    
C9    C36   S    
C15   H26   S    
C27   N5    T    
Cu1   O3    S    
C4    C35   S    
C20   H6    S    
C28   H17   S    
C21   H7    S    
C13   N2    A    
C5    H21   S    
C9    N6    S    
C10   C14   A    
C18   O7    A    
Cu2   O6    S    
Cu1   O5    S    
C24   C34   S    
C23   C31   S    
C24   C32   S    
Cu1   Cu2   S    
C26   H14   S    
C30   N8    T    
C31   C32   S    
H16   N6    S    
Cu2   N1    S    
Cu1   N2    S    
C14   N2    A    
C31   H10   S    
C21   C23   S    
C32   H9    S    
C26   H15   S    
C20   H5    S    
Cu2   O2    S    
C10   N1    A    
C2    C36   A    
C15   C17   S    
C22   C33   T    
Cu1   O1    S    
C18   C22   S    
C32   H8    S    
C28   N6    S    
C3    C5    A    
C12   H12   S    
C6    C7    A    
C21   C30   S    
C1    O1    A    
C12   H1    S    
C2    C3    A    
C26   N4    S    
C26   H13   S    
C8    H22   S    
C11   C13   A    
Cu2   O8    S    
C12   C19   S    
C19   C24   S    
C16   O6    A    
C19   C25   S    
C17   H3    S    
C15   H2    S    
C4    O4    A    
C6    C16   S    
C20   C21   S    
C18   O8    A    
C8    C27   S    
C14   C15   S    
C16   O5    A    
C11   N1    A    
C29   N7    T    
