data_mof_unit_48744.cif
_audit_creation_date              2012-12-11T15:41:34-0500
_audit_creation_method            fapswitch 2.2
_symmetry_space_group_name_H-M    P1
_symmetry_Int_Tables_number       1
_space_group_crystal_system       triclinic
_cell_length_a                    8.585858
_cell_length_b                    19.035293
_cell_length_c                    19.171503
_cell_angle_alpha                 96.137508
_cell_angle_beta                  95.039285
_cell_angle_gamma                 94.037648
_cell_volume                      3093.19042616

loop_
_atom_site_label
_atom_site_type_symbol
_atom_type_description
_atom_site_fract_x
_atom_site_fract_y
_atom_site_fract_z
_atom_type_partial_charge
Ba1   Ba    Ba6+2 0.154050 0.534420 0.467300 1.618583
Ba2   Ba    Ba6+2 0.656120 0.465570 0.532650 1.630295
C1    C     C_3   0.325798 0.782875 0.216221 -0.063825
C2    C     C_3   0.623357 0.750831 0.428346 -0.017742
C3    C     C_2   0.670556 0.829250 0.445112 0.036129
C4    C     C_3   0.914728 0.729627 0.305667 0.471810
C5    C     C_2   0.808287 0.850795 0.484475 -0.031973
C6    C     C_2   0.897356 0.796614 0.520673 -0.009952
C7    C     C_1   0.849438 0.726332 0.510315 0.109837
C8    C     C_R   0.968859 0.068821 0.498006 0.444951
C9    C     C_R   0.872714 0.927377 0.489504 0.511289
C10   C     C_R   0.913078 0.196336 0.472038 0.134671
C11   C     C_R   0.964002 0.270713 0.481637 0.045155
C12   C     C_3   0.360137 0.723302 0.265374 0.623102
C13   C     C_R   0.210943 0.245344 0.542267 0.050007
C14   C     C_R   0.156864 0.173841 0.540162 -0.148535
C15   C     C_R   0.010474 0.147513 0.504009 -0.043119
C16   C     C_3   0.944171 0.801400 0.276173 -0.075743
C17   C     C_R   0.114265 0.292430 0.513384 -0.299470
C18   C     C_R   0.612541 0.520414 0.297855 -0.258538
C19   C     C_R   0.460301 0.491716 0.276668 0.076983
C20   C     C_R   0.404824 0.485536 0.205378 -0.101332
C21   C     C_R   0.501211 0.508952 0.155073 0.023227
C22   C     C_R   0.650563 0.543731 0.178871 -0.139183
C23   C     C_3   0.577666 0.685458 0.703935 0.528443
C24   C     C_R   0.705459 0.549916 0.250719 0.014016
C25   C     C_R   0.461017 0.553286 0.036636 -0.146399
C26   C     C_R   0.403573 0.544951 0.965422 -0.096647
C27   C     C_R   0.334820 0.479280 0.931825 0.054197
C28   C     C_3   0.827649 0.370322 0.306489 0.466032
C29   C     C_R   0.313200 0.422289 0.973311 0.125184
C30   C     C_R   0.370826 0.431191 0.046265 0.133416
C31   C     C_R   0.444439 0.497321 0.078120 0.043939
C32   C     C_R   0.145171 0.439177 0.823880 -0.175912
C33   C     C_R   0.105285 0.429012 0.750844 -0.024980
C34   C     C_3   0.559529 0.765491 0.732340 0.192969
C35   C     C_R   0.358420 0.489336 0.733167 0.058524
C36   C     C_R   0.402258 0.495693 0.807058 0.030891
C37   C     C_R   0.294180 0.470397 0.852919 0.011252
C38   C     C_R   0.216008 0.451649 0.705782 -0.072112
C39   C     C_3   0.932223 0.359574 0.245818 -0.301495
C40   C     C_3   0.092694 0.677113 0.693400 0.475121
C41   C     C_3   0.096081 0.713681 0.771032 -0.097241
C42   C     C_3   0.299572 0.315090 0.369213 0.306320
C43   C     C_3   0.314132 0.237969 0.340471 -0.148857
C44   C     C_3   0.235967 0.631516 0.167993 -0.203673
C45   C     C_3   0.943205 0.260609 0.697492 0.504323
C46   C     C_3   0.953242 0.568069 0.716704 -0.161154
C47   C     C_3   0.486136 0.688713 0.579404 -0.144388
C48   C     C_3   0.756935 0.786801 0.835864 -0.275485
C49   C     C_3   0.744931 0.161564 0.644954 -0.190873
C50   C     C_3   0.172061 0.118079 0.773268 -0.214904
C51   C     C_3   0.656079 0.122789 0.441160 -0.169411
C52   C     C_3   0.601396 0.316666 0.221878 -0.232648
C53   C     C_3   0.002583 0.212948 0.753188 -0.029612
C54   C     C_3   0.446257 0.305979 0.714989 0.462070
C55   C     C_3   0.451061 0.281375 0.788621 -0.068739
C56   C     C_2   0.723114 0.701456 0.466432 -0.076698
H1    H     H_    0.903980 0.306886 0.214687 0.083798
H2    H     H_    0.237079 0.224546 0.290563 0.100942
H3    H     H_    0.436800 0.231837 0.328799 0.105444
H4    H     H_    0.677711 0.668957 0.736744 0.000581
H5    H     H_    0.646457 0.800866 0.708399 0.026671
H6    H     H_    0.343373 0.835640 0.248459 0.096300
H7    H     H_    0.883682 0.842706 0.306820 0.059631
H8    H     H_    0.050688 0.287622 0.680377 -0.057241
H9    H     H_    0.902800 0.181335 0.771658 0.069581
H10   H     H_    0.060180 0.247867 0.800334 0.065809
H11   H     H_    0.333046 0.329908 0.706125 -0.123259
H12   H     H_    0.919435 0.401977 0.210622 0.088606
H13   H     H_    0.544673 0.347102 0.714109 0.085300
H14   H     H_    0.328468 0.266839 0.799316 0.081942
H15   H     H_    0.501645 0.326269 0.828586 0.022404
H16   H     H_    0.233457 0.137717 0.563026 0.088808
H17   H     H_    0.160926 0.346285 0.511199 0.070270
H18   H     H_    0.415051 0.590364 0.936004 0.112228
H19   H     H_    0.516698 0.604494 0.059659 0.076781
H20   H     H_    0.789311 0.722164 0.312060 0.015375
H21   H     H_    0.287874 0.460997 0.189122 0.089616
H22   H     H_    0.057923 0.424188 0.858200 0.115032
H23   H     H_    0.055474 0.360042 0.266621 0.141193
H24   H     H_    0.725823 0.563467 0.141625 0.075847
H25   H     H_    0.662389 0.515556 0.350662 0.069544
H26   H     H_    0.071978 0.818392 0.284566 0.097655
H27   H     H_    0.865168 0.423049 0.336170 0.054850
H28   H     H_    0.281552 0.618015 0.274212 0.212750
H29   H     H_    0.178090 0.577002 0.160632 0.136028
H30   H     H_    0.348417 0.629419 0.144868 0.058478
H31   H     H_    0.157230 0.664836 0.139359 0.128172
H32   H     H_    0.188967 0.591516 0.730433 0.147975
H33   H     H_    0.973880 0.547310 0.768219 0.059071
H34   H     H_    0.196077 0.697303 0.670011 0.076953
H35   H     H_    0.909810 0.527734 0.673109 0.186307
H36   H     H_    0.860752 0.603896 0.723924 0.117279
H37   H     H_    0.228138 0.807299 0.806445 0.198463
H38   H     H_    0.106499 0.811805 0.731263 0.192027
H39   H     H_    0.300720 0.138983 0.370751 0.176669
H40   H     H_    0.150188 0.185525 0.388821 0.180379
H41   H     H_    0.554735 0.691126 0.217036 0.148424
H42   H     H_    0.540935 0.664502 0.294448 0.095342
H43   H     H_    0.538221 0.800177 0.176299 0.187452
H44   H     H_    0.414410 0.738262 0.124982 0.176487
H45   H     H_    0.191071 0.692941 0.805057 0.090318
H46   H     H_    0.708114 0.715341 0.624803 0.142387
H47   H     H_    0.499940 0.742537 0.562642 0.055390
H48   H     H_    0.372468 0.680409 0.599946 0.148676
H49   H     H_    0.484317 0.647470 0.535051 0.138113
H50   H     H_    0.530576 0.816755 0.835109 0.202423
H51   H     H_    0.830828 0.780059 0.791554 0.135233
H52   H     H_    0.783469 0.747663 0.873050 0.126722
H53   H     H_    0.788213 0.841311 0.863005 0.114280
H54   H     H_    0.392992 0.792458 0.656803 0.145670
H55   H     H_    0.399361 0.840480 0.731904 0.159826
H56   H     H_    0.986362 0.697342 0.793490 0.081359
H57   H     H_    0.813309 0.253066 0.599788 0.224789
H58   H     H_    0.655007 0.150902 0.599175 0.134765
H59   H     H_    0.682041 0.174108 0.692307 0.168745
H60   H     H_    0.805840 0.112479 0.650182 0.101361
H61   H     H_    0.081728 0.141115 0.675569 0.224673
H62   H     H_    0.269867 0.090782 0.751121 0.132811
H63   H     H_    0.076461 0.077668 0.780364 0.101670
H64   H     H_    0.216424 0.147309 0.825294 0.104719
H65   H     H_    0.041072 0.783553 0.397362 0.155919
H66   H     H_    0.094395 0.701472 0.373390 0.276550
H67   H     H_    0.179229 0.321475 0.384055 -0.001888
H68   H     H_    0.662454 0.238226 0.803897 0.197219
H69   H     H_    0.515464 0.197643 0.840022 0.159367
H70   H     H_    0.469427 0.879270 0.436711 0.199942
H71   H     H_    0.552096 0.863294 0.359368 0.187464
H72   H     H_    0.017541 0.809543 0.617708 0.173687
H73   H     H_    0.132378 0.801647 0.549672 0.226036
H74   H     H_    0.745030 0.202620 0.384995 0.219188
H75   H     H_    0.546262 0.149496 0.443080 0.143358
H76   H     H_    0.684228 0.102659 0.492417 0.102916
H77   H     H_    0.634337 0.077034 0.399403 0.125681
H78   H     H_    0.387634 0.330508 0.415228 0.077035
H79   H     H_    0.628598 0.599554 0.463431 0.196774
H80   H     H_    0.658339 0.627565 0.385714 0.115468
H81   H     H_    0.621905 0.547353 0.799692 0.197583
H82   H     H_    0.616188 0.487416 0.857576 0.192822
H83   H     H_    0.224276 0.317086 0.974917 0.168298
H84   H     H_    0.304519 0.335942 0.902140 0.157411
H85   H     H_    0.243727 0.355813 0.090089 0.167017
H86   H     H_    0.420789 0.331500 0.064380 0.163848
H87   H     H_    0.105360 0.471117 0.612610 0.208548
H88   H     H_    0.142376 0.384534 0.620656 0.137409
H89   H     H_    0.201439 0.777168 0.194871 0.111601
H90   H     H_    0.785491 0.821488 0.196860 0.168508
H91   H     H_    0.968179 0.827963 0.176499 0.172026
H92   H     H_    0.599009 0.368945 0.322272 0.198695
H93   H     H_    0.472693 0.318975 0.211948 0.149788
H94   H     H_    0.625818 0.262371 0.234232 0.110143
H95   H     H_    0.651143 0.328224 0.172311 0.107983
N1    N     N_R   0.914264 0.031454 0.435132 -0.238208
N2    N     N_3   0.421807 0.786430 0.156876 -0.520746
N3    N     N_2   0.613733 0.680977 0.630973 -0.455197
N4    N     N_2   0.591578 0.777673 0.809881 -0.417041
N5    N     N_3   0.404447 0.787900 0.710637 -0.510239
N6    N     N_2   0.856998 0.220168 0.635064 -0.441816
N7    N     N_2   0.114931 0.166357 0.725463 -0.427675
N8    N     N_3   0.999165 0.731933 0.376084 -0.487201
N9    N     N_3   0.543375 0.219953 0.794696 -0.469239
N10   N     N_3   0.576690 0.879867 0.413751 -0.484301
N11   N     N_3   0.033125 0.823353 0.567526 -0.491331
N12   N     N_R   0.866667 0.962550 0.431108 -0.243358
N13   N     N_2   0.780338 0.171019 0.422790 -0.424206
N14   N     N_3   0.706473 0.628968 0.437300 -0.428773
N15   N     N_3   0.554667 0.527460 0.836940 -0.504238
N16   N     N_3   0.234590 0.356028 0.940360 -0.518051
N17   N     N_3   0.362019 0.372828 0.087878 -0.523890
N18   N     N_3   0.185791 0.437266 0.631242 -0.448653
N19   N     N_3   0.889323 0.796704 0.201104 -0.473107
N20   N     N_2   0.664451 0.369466 0.280121 -0.448020
N21   N     N_R   0.933683 0.964014 0.551981 -0.231482
N22   N     N_R   0.980739 0.033167 0.556070 -0.267784
N23   N     N_2   0.261860 0.657529 0.242424 -0.377085
N24   N     N_2   0.095462 0.602127 0.697447 -0.463994
N25   N     N_3   0.117403 0.791247 0.779637 -0.516512
N26   N     N_3   0.271852 0.189350 0.390261 -0.525960
N27   N     N_3   0.525687 0.708771 0.267586 -0.525288
O1    O     O_2   0.126770 0.670950 0.539180 -0.496505
O2    O     O_2   0.778951 0.439716 0.750464 -0.518556
O3    O     O_3   0.843428 0.308517 0.728330 -0.614486
O4    O     O_3   0.874330 0.583580 0.538020 -0.446105
O5    O     O_3   0.434510 0.464950 0.415850 -0.497777
O6    O     O_2   0.630930 0.532620 0.670490 -0.489355
O7    O     O_3   0.443600 0.639190 0.711017 -0.664578
O8    O     O_2   0.534425 0.247089 0.534008 -0.487663
O9    O     O_3   0.457627 0.249213 0.662537 -0.592705
O10   O     O_3   0.360240 0.629040 0.412110 -0.496321
O11   O     O_2   0.316632 0.757291 0.467375 -0.513406
O12   O     O_3   0.325470 0.354896 0.313679 -0.673207
O13   O     O_3   0.956374 0.689077 0.651507 -0.675949
O14   O     O_3   0.317718 0.751759 0.332683 -0.621502
O15   O     O_2   0.179370 0.467330 0.329490 -0.465376
O16   O     O_3   0.943350 0.594040 0.376060 -0.449831
O17   O     O_2   0.022348 0.540886 0.253076 -0.496021
O18   O     O_3   0.958365 0.673545 0.258131 -0.569218
O19   O     O_2   0.683530 0.329010 0.460790 -0.462815
O20   O     O_3   0.935970 0.416420 0.461920 -0.495053
O21   O     O_3   0.450050 0.370950 0.587830 -0.465124
O22   O     O_3   0.842748 0.314774 0.348372 -0.662118
O23   O     O_3   0.375780 0.535040 0.584090 -0.440659
O24   O     O_3   0.866950 0.405950 0.623880 -0.490180
P1    P     P_3+3 0.954930 0.659850 0.559700 1.008144
P2    P     P_3+3 0.352180 0.446150 0.339620 0.952198
P3    P     P_3+3 0.903792 0.589811 0.284362 0.946444
P4    P     P_3+3 0.855360 0.340140 0.440240 0.962970
P5    P     P_3+3 0.900492 0.395770 0.714058 0.901924
P6    P     P_3+3 0.407302 0.720558 0.409223 0.888154
P7    P     P_3+3 0.453927 0.549165 0.674646 0.974877
P8    P     P_3+3 0.411803 0.278493 0.580028 0.958802

loop_
_geom_bond_atom_site_label_1
_geom_bond_atom_site_label_2
_ccdc_geom_bond_type
H82   N15   S    
H87   N18   S    
C41   N25   S    
C42   H78   S    
H91   N19   S    
C47   N3    S    
O1    P1    D    
C24   P3    S    
C51   H77   S    
C51   H76   S    
C8    N1    A    
C52   H95   S    
C53   H10   S    
C5    C6    S    
C47   H49   S    
C44   H31   S    
C45   N6    S    
C1    H6    S    
C25   C31   A    
C16   H7    S    
C1    H89   S    
C35   C36   A    
H54   N5    S    
Ba2   O20   S    
C3    N10   S    
C52   N20   S    
O6    P7    D    
C26   C27   A    
Ba1   O15   S    
H74   N13   S    
C20   H21   S    
Ba1   Ba2   S    
C35   C38   A    
C41   H56   S    
C10   N13   S    
C36   C37   A    
H65   N8    S    
H90   N19   S    
H39   N26   S    
H43   N2    S    
C8    C15   S    
C13   C14   A    
H42   N27   S    
H86   N17   S    
C48   H52   S    
C49   H60   S    
C2    P6    S    
C54   C55   S    
H71   N10   S    
C32   C33   A    
C55   H15   S    
C22   H24   S    
N21   N22   A    
C35   P7    S    
C43   H2    S    
C12   N23   S    
C23   O7    S    
C32   H22   S    
C50   H64   S    
C55   N9    S    
C14   C15   A    
C21   C31   S    
C46   H33   S    
C10   C15   A    
C16   H26   S    
C21   C22   A    
N1    N12   A    
H55   N5    S    
C34   H5    S    
Ba1   P1    S    
C28   N20   S    
C4    O18   S    
C34   N5    S    
Ba1   O10   S    
C43   H3    S    
C12   O14   S    
H32   N24   S    
O20   P4    S    
O22   P4    S    
C19   C20   A    
C23   N3    S    
O23   P7    S    
Ba2   O21   S    
C50   N7    S    
C4    C16   S    
C1    N2    S    
C46   N24   S    
Ba1   O4    S    
C5    C9    S    
C44   H30   S    
C48   N4    S    
C28   O22   S    
C42   H67   S    
O13   P1    S    
C46   H35   S    
C11   C17   A    
Ba2   O19   S    
Ba1   O16   S    
Ba2   O24   S    
C39   H1    S    
C45   O3    S    
C6    N11   S    
C3    C5    D    
Ba1   O1    S    
H61   N7    S    
C52   H94   S    
H50   N4    S    
C29   N16   S    
C48   H51   S    
O4    P1    S    
C32   C37   A    
H57   N6    S    
H80   N14   S    
C19   P2    S    
O24   P5    S    
C40   O13   S    
C13   C17   A    
Ba2   O6    S    
C13   P8    S    
C56   N14   S    
O14   P6    S    
C50   H63   S    
H37   N25   S    
C53   H9    S    
C29   C30   A    
C4    N8    S    
C54   H13   S    
C39   H23   S    
C27   C37   S    
H83   N16   S    
C6    C7    D    
C11   P4    S    
C51   H75   S    
C28   C39   S    
Ba2   O4    S    
H46   N3    S    
C28   H27   S    
Ba1   P2    S    
C52   H93   S    
C1    C12   S    
C46   H36   S    
C34   N4    S    
H84   N16   S    
C50   H62   S    
C53   N7    S    
O7    P7    S    
H69   N9    S    
C16   N19   S    
C44   N23   S    
O17   P3    D    
Ba1   O20   S    
Ba2   P4    S    
C40   C41   S    
O2    P5    D    
Ba1   O23   S    
H79   N14   S    
C42   C43   S    
C45   C53   S    
C44   H29   S    
H72   N11   S    
C8    N22   A    
C30   N17   S    
C54   O9    S    
C7    C56   D    
C9    N21   A    
O19   P4    D    
C45   H8    S    
C40   H34   S    
O18   P3    S    
O12   P2    S    
O5    P2    S    
Ba2   O23   S    
H85   N17   S    
C22   C24   A    
C2    C3    S    
C25   H19   S    
O9    P8    S    
C47   H47   S    
C47   H48   S    
C14   H16   S    
Ba1   O5    S    
O3    P5    S    
H66   N8    S    
C49   H58   S    
C30   C31   A    
O16   P3    S    
C17   H17   S    
C33   C38   A    
O10   P6    S    
Ba2   O5    S    
H41   N27   S    
C27   C29   A    
O21   P8    S    
C23   C34   S    
C42   O12   S    
O8    P8    D    
C36   N15   S    
O15   P2    D    
C18   C24   A    
H73   N11   S    
C49   N6    S    
C48   H53   S    
C49   H59   S    
H28   N23   S    
C23   H4    S    
H70   N10   S    
C55   H14   S    
C33   P5    S    
H81   N15   S    
C41   H45   S    
C4    H20   S    
C43   N26   S    
O11   P6    D    
H88   N18   S    
C51   N13   S    
H92   N20   S    
C10   C11   A    
C18   C19   A    
C54   H11   S    
C18   H25   S    
C2    C56   S    
C25   C26   A    
C9    N12   A    
C20   C21   A    
C7    P1    S    
C40   N24   S    
H38   N25   S    
H40   N26   S    
H68   N9    S    
H44   N2    S    
C38   N18   S    
C12   N27   S    
C39   H12   S    
C26   H18   S    
