data_mof_unit_28743.cif
_audit_creation_date              2013-03-05T15:55:44-0500
_audit_creation_method            fapswitch 2.2
_symmetry_space_group_name_H-M    P1
_symmetry_Int_Tables_number       1
_space_group_crystal_system       triclinic
_cell_length_a                    10.604148
_cell_length_b                    12.33075
_cell_length_c                    13.113498
_cell_angle_alpha                 116.454154
_cell_angle_beta                  77.703496
_cell_angle_gamma                 100.946346
_cell_volume                      1491.04763114

loop_
_atom_site_label
_atom_site_type_symbol
_atom_site_description
_atom_site_fract_x
_atom_site_fract_y
_atom_site_fract_z
_atom_type_partial_charge
O1    O     O_R   0.537510 0.972500 0.318130 -0.519204
O2    O     O_R   0.487140 0.806530 0.359650 -0.608613
C1    C     C_R   0.512478 0.855089 0.285699 0.792979
O3    O     O_R   0.708330 0.082950 0.479220 -0.587627
O4    O     O_R   0.657960 0.916980 0.520740 -0.602644
C2    C     C_R   0.740362 0.999092 0.499619 0.781456
Cu1   Cu    Cu3+1 0.529830 0.098270 0.475420 0.968104
Cu2   Cu    Cu3+1 0.470170 0.901730 0.524580 0.924733
O5    O     O_R   0.512860 0.193470 0.640350 -0.591863
O6    O     O_R   0.462490 0.027500 0.681870 -0.581699
O7    O     O_R   0.342040 0.083020 0.479260 -0.583079
O8    O     O_R   0.291670 0.917050 0.520780 -0.596674
C3    C     C_R   0.481165 0.144818 0.713671 0.792441
C4    C     C_R   0.259677 0.000559 0.499894 0.773137
C5    C     C_3   0.981988 0.986046 0.395910 -0.165030
C6    C     C_3   0.040938 0.894012 0.417559 -0.171547
H1    H     H_    0.077822 0.807881 0.350552 0.127600
H2    H     H_    0.963798 0.974842 0.311267 0.148694
C7    C     C_3   0.122924 0.001032 0.499305 0.023249
C8    C     C_3   0.066321 0.093096 0.477623 -0.134212
C9    C     C_3   0.959157 0.105003 0.581306 -0.166103
C10   C     C_3   0.018033 0.012961 0.602951 -0.163275
C11   C     C_3   0.933708 0.905916 0.521228 -0.135976
C12   C     C_3   0.877135 0.998054 0.499603 0.019932
H3    H     H_    0.123292 0.169772 0.459838 0.142815
H4    H     H_    0.922359 0.191143 0.648345 0.132372
H5    H     H_    0.036165 0.024157 0.687607 0.133996
H6    H     H_    0.876657 0.829186 0.538889 0.145828
C13   C     C_R   0.325062 0.278183 0.022494 -0.171970
H7    H     H_    0.324100 0.097352 0.887234 0.151880
H8    H     H_    0.245385 0.462499 0.217558 0.143604
H9    H     H_    0.253652 0.249503 0.080750 0.142456
C14   C     C_R   0.455697 0.227153 0.835602 -0.052277
C15   C     C_R   0.600793 0.813900 0.079266 0.358110
C16   C     C_R   0.632813 0.730246 0.966311 -0.192538
C17   C     C_R   0.590090 0.607613 0.932156 -0.267625
C18   C     C_R   0.508042 0.564396 0.009526 0.086568
C19   C     C_R   0.465610 0.650358 0.122324 0.044644
C20   C     C_R   0.464104 0.438703 0.977375 0.092257
C21   C     C_R   0.370821 0.401798 0.054237 0.155798
C22   C     C_R   0.320740 0.488887 0.160101 -0.239405
C23   C     C_R   0.365383 0.611257 0.192736 -0.169602
C24   C     C_R   0.508956 0.348288 0.870185 -0.248689
C25   C     C_R   0.366312 0.191215 0.913012 -0.173290
C26   C     C_R   0.522084 0.773759 0.160769 -0.234835
H10   H     H_    0.583706 0.369297 0.809911 0.145842
H11   H     H_    0.619481 0.550198 0.842915 0.151257
H12   H     H_    0.692563 0.760658 0.903898 0.174301
H13   H     H_    0.316654 0.674851 0.272376 0.168461
C27   C     C_R   0.709571 0.347957 0.330483 -0.279373
H14   H     H_    0.733789 0.171163 0.312270 0.166038
H15   H     H_    0.751794 0.548128 0.296813 0.152871
H16   H     H_    0.791470 0.347772 0.264889 0.146652
N1    N     N_R   0.575030 0.246270 0.438190 -0.189073
C28   C     C_R   0.323614 0.759289 0.645080 0.085620
C29   C     C_R   0.284973 0.662590 0.676416 -0.249323
C30   C     C_R   0.351153 0.559196 0.621613 -0.194159
C31   C     C_R   0.457729 0.551314 0.534322 -0.002183
C32   C     C_R   0.494031 0.653115 0.505361 0.288703
C33   C     C_R   0.529834 0.447037 0.475139 -0.035322
C34   C     C_R   0.636501 0.447451 0.389197 0.161959
C35   C     C_R   0.670232 0.547270 0.362444 -0.278340
C36   C     C_R   0.600783 0.647601 0.419160 -0.183682
C37   C     C_R   0.501549 0.341605 0.497108 0.013752
C38   C     C_R   0.677283 0.247909 0.356765 0.148748
N2    N     N_R   0.425760 0.754330 0.561190 -0.207669
H17   H     H_    0.422034 0.333175 0.560586 0.123656
H18   H     H_    0.271683 0.839153 0.688149 0.125225
H19   H     H_    0.317100 0.487211 0.649431 0.135490
H20   H     H_    0.203407 0.667800 0.743457 0.148797
H21   H     H_    0.634986 0.719126 0.392415 0.206162
N3    N     N_R   0.648515 0.939319 0.108527 0.114966
O9    O     O_R   0.772171 0.969509 0.085975 -0.408784
O10   O     O_R   0.567448 0.016669 0.130406 -0.355467

loop_
_geom_bond_atom_site_label_1
_geom_bond_atom_site_label_2
_geom_bond_distance
_ccdc_geom_bond_type
C5    H2    1.110287 S    
C9    H4    1.110246 S    
Cu2   N2    2.027763 S    
C22   C23   1.386995 A    
C7    C8    1.532606 S    
C28   C29   1.392047 A    
C28   H18   1.081650 S    
Cu1   Cu2   2.706488 S    
N1    C38   1.354252 A    
Cu1   O7    1.956246 S    
C35   C36   1.385272 A    
C17   C18   1.414210 A    
C19   C23   1.413740 A    
C13   H9    1.083828 S    
C32   N2    1.386019 A    
O4    C2    1.294670 A    
O7    C4    1.295038 A    
C8    H3    1.110318 S    
C31   C33   1.439366 A    
C5    C6    1.546391 S    
C29   C30   1.393935 A    
C17   H11   1.076175 S    
C15   C16   1.389544 A    
H14   C38   1.081446 S    
O5    C3    1.302703 A    
C19   C26   1.423805 A    
C16   C17   1.383939 A    
C6    H1    1.110384 S    
C11   C12   1.532797 S    
C9    C10   1.545987 S    
H7    C25   1.083206 S    
O3    Cu1   1.950736 S    
C16   H12   1.083646 S    
C24   H10   1.075989 S    
C5    C8    1.545962 S    
C27   H16   1.083942 S    
C14   C24   1.393163 A    
C37   H17   1.076823 S    
C7    C10   1.531732 S    
O3    C2    1.294097 A    
C20   C21   1.419345 A    
C20   C24   1.401909 A    
C31   C32   1.430774 A    
C1    C26   1.484573 S    
C33   C34   1.417566 A    
O1    C1    1.304187 A    
C3    C14   1.460874 S    
C18   C19   1.419392 A    
Cu2   O8    1.950737 S    
C2    C12   1.452803 S    
C15   C26   1.420699 A    
C11   H6    1.110399 S    
N3    O10   1.301356 A    
C5    C12   1.531779 S    
C36   H21   1.064120 S    
C6    C11   1.545904 S    
C29   H20   1.082602 S    
C10   H5    1.110269 S    
C13   C25   1.393363 A    
C15   N3    1.432412 S    
C28   N2    1.358260 A    
Cu1   O5    1.934044 S    
C21   C22   1.391680 A    
H8    C22   1.084125 S    
O1    Cu1   1.947448 S    
C14   C25   1.398822 A    
C4    C7    1.452951 S    
O2    Cu2   1.934044 S    
O8    C4    1.293820 A    
N3    O9    1.301152 A    
O6    C3    1.301815 A    
O4    Cu2   1.956245 S    
C32   C36   1.406975 A    
C33   C37   1.418423 A    
O2    C1    1.310117 A    
C18   C20   1.422756 A    
H15   C35   1.084654 S    
C30   C31   1.410156 A    
N1    C37   1.366837 A    
C6    C7    1.532088 S    
C13   C21   1.404257 A    
C34   C35   1.389262 A    
C27   C38   1.387834 A    
C23   H13   1.080269 S    
C8    C9    1.545630 S    
Cu2   O6    1.947447 S    
C9    C12   1.531675 S    
C27   C34   1.401306 A    
C10   C11   1.545939 S    
Cu1   N1    2.039728 S    
C30   H19   1.077969 S    
