data_mof_unit_59463.cif
_audit_creation_date              2012-12-11T14:58:36-0500
_audit_creation_method            fapswitch 2.2
_symmetry_space_group_name_H-M    P1
_symmetry_Int_Tables_number       1
_space_group_crystal_system       triclinic
_cell_length_a                    11.024033
_cell_length_b                    10.989502
_cell_length_c                    18.793426
_cell_angle_alpha                 89.866867
_cell_angle_beta                  90.702875
_cell_angle_gamma                 59.795547
_cell_volume                      1967.4468795

loop_
_atom_site_label
_atom_site_type_symbol
_atom_type_description
_atom_site_fract_x
_atom_site_fract_y
_atom_site_fract_z
_atom_type_partial_charge
C1    C     C_R   0.356309 0.778143 0.398817 0.519762
C2    C     C_R   0.260566 0.441767 0.193301 -0.152272
C3    C     C_R   0.263090 0.453620 0.266450 -0.039923
C4    C     C_R   0.412557 0.376392 0.381997 0.544374
C5    C     C_R   0.906302 0.854783 0.279419 -0.099253
C6    C     C_R   0.892965 0.739374 0.261408 -0.087118
C7    C     C_R   0.004410 0.601951 0.272139 -0.098627
C8    C     C_R   0.136786 0.579100 0.292236 0.043017
C9    C     C_R   0.389460 0.363757 0.305346 -0.001412
C10   C     C_R   0.853386 0.235814 0.295474 -0.172428
C11   C     C_R   0.878018 0.220055 0.223345 -0.157379
C12   C     C_R   0.616657 0.125984 0.158600 0.037637
C13   C     C_R   0.851293 0.337016 0.181321 0.010431
C14   C     C_R   0.789994 0.470911 0.210457 -0.164806
C15   C     C_R   0.769679 0.486771 0.282918 -0.042824
C16   C     C_R   0.768115 0.385071 0.400541 0.538843
C17   C     C_R   0.804360 0.367351 0.326141 0.018684
C18   C     C_R   0.419390 0.741845 0.273019 -0.126160
C19   C     C_R   0.402204 0.785488 0.202833 -0.123103
C20   C     C_R   0.310527 0.926214 0.185735 0.028394
C21   C     C_R   0.242683 0.025035 0.239790 -0.149601
C22   C     C_R   0.261009 0.980561 0.311096 -0.136824
C23   C     C_R   0.368968 0.332443 0.158267 0.004151
C24   C     C_R   0.346866 0.837338 0.327534 0.037428
C25   C     C_R   0.463941 0.277594 0.717696 -0.124126
C26   C     C_R   0.445594 0.276888 0.789752 -0.132523
C27   C     C_R   0.310282 0.334908 0.816399 0.030189
C28   C     C_R   0.345240 0.767447 0.604886 0.545090
C29   C     C_R   0.192360 0.405713 0.771064 -0.133233
C30   C     C_R   0.211031 0.409714 0.698232 -0.138086
C31   C     C_R   0.347172 0.340516 0.671394 0.034674
C32   C     C_R   0.739101 0.475621 0.731576 -0.127365
C33   C     C_R   0.751275 0.462300 0.804537 -0.136888
C34   C     C_R   0.505840 0.260856 0.267796 -0.143990
C35   C     C_R   0.814000 0.328761 0.835983 0.026976
C36   C     C_R   0.848763 0.210010 0.793914 -0.139932
C37   C     C_R   0.832739 0.224170 0.720133 -0.152588
C38   C     C_R   0.783377 0.356644 0.688607 0.030147
C39   C     C_R   0.205728 0.823537 0.713700 -0.129097
C40   C     C_R   0.373667 0.351883 0.597459 0.553380
C41   C     C_R   0.197427 0.835954 0.786803 -0.137611
C42   C     C_R   0.302224 0.844289 0.825283 0.031744
C43   C     C_R   0.417316 0.836760 0.789677 -0.133765
C44   C     C_R   0.425383 0.824707 0.716358 -0.141451
C45   C     C_R   0.496703 0.243265 0.194937 -0.023480
C46   C     C_R   0.320882 0.815699 0.678007 0.033671
C47   C     C_R   0.910328 0.315250 0.111332 0.531237
C48   C     C_R   0.331404 0.294689 0.090654 0.535884
C49   C     C_R   0.271719 0.964529 0.111582 0.556678
C50   C     C_R   0.878888 0.310730 0.905933 0.544396
C51   C     C_R   0.295667 0.291419 0.886595 0.548378
C52   C     C_R   0.756734 0.380073 0.612400 0.545544
C53   C     C_R   0.275176 0.894725 0.897941 0.555524
C54   C     C_R   0.795255 0.916527 0.063872 -0.108019
C55   C     C_R   0.779163 0.050677 0.060283 -0.094680
C56   C     C_R   0.150263 0.695420 0.302682 -0.024924
C57   C     C_R   0.689135 0.155664 0.106863 -0.077747
C58   C     C_1   0.713447 0.626656 0.311744 0.207074
C59   C     C_R   0.036707 0.832369 0.300502 -0.097006
C60   C     C_R   0.633274 0.990688 0.161897 -0.068973
C61   C     C_R   0.720602 0.887271 0.113788 -0.096639
Cr1   Cr    Cr6+3 0.601770 0.606860 0.505860 1.042686
Cr2   Cr    Cr6+3 0.291380 0.601660 0.495070 1.028103
Cr3   Cr    Cr6+3 0.606880 0.291510 0.499120 1.018773
Cr4   Cr    Cr6+3 0.062440 0.063090 0.008210 0.982257
Cr5   Cr    Cr6+3 0.062880 0.375170 0.998920 1.000067
Cr6   Cr    Cr6+3 0.374700 0.061720 0.992470 1.017233
H1    H     H_    0.604413 0.192673 0.295274 0.136420
H2    H     H_    0.171758 0.134744 0.226504 0.113619
H3    H     H_    0.729094 0.784803 0.114602 0.100364
H4    H     H_    0.203948 0.055647 0.352422 0.117935
H5    H     H_    0.570189 0.229793 0.698322 0.141782
H6    H     H_    0.537466 0.223457 0.824305 0.127478
H7    H     H_    0.086898 0.450074 0.791218 0.136679
H8    H     H_    0.120419 0.463250 0.662971 0.125101
H9    H     H_    0.695626 0.579989 0.708823 0.134327
H10   H     H_    0.722285 0.555395 0.835918 0.124285
H11   H     H_    0.897616 0.105481 0.817315 0.130161
H12   H     H_    0.818812 0.960707 0.273012 0.110801
H13   H     H_    0.862503 0.132072 0.687867 0.118608
H14   H     H_    0.123667 0.815581 0.685580 0.135821
H15   H     H_    0.052316 0.920302 0.309379 0.114888
H16   H     H_    0.106359 0.844192 0.812685 0.124686
H17   H     H_    0.498796 0.845239 0.818102 0.129312
H18   H     H_    0.514892 0.818936 0.689982 0.122809
H19   H     H_    0.862869 0.836325 0.026834 0.099446
H20   H     H_    0.832473 0.074439 0.019554 0.152174
H21   H     H_    0.670386 0.261700 0.100420 0.107139
H22   H     H_    0.253707 0.675086 0.304584 0.128916
H23   H     H_    0.797924 0.756369 0.236423 0.119709
H24   H     H_    0.571882 0.968250 0.198630 0.124882
H25   H     H_    0.167544 0.516125 0.163189 0.147523
H26   H     H_    0.994763 0.513877 0.254474 0.122401
H27   H     H_    0.874014 0.145619 0.327702 0.120395
H28   H     H_    0.924626 0.115247 0.201355 0.148091
H29   H     H_    0.766515 0.561621 0.177568 0.114775
H30   H     H_    0.479965 0.629991 0.284548 0.099288
H31   H     H_    0.453183 0.708020 0.161549 0.124285
N1    N     N_1   0.668436 0.737209 0.336677 -0.275901
O1    O     O_R   0.748800 0.497470 0.428000 -0.494546
O2    O     O_R   0.417600 0.174890 0.067840 -0.508261
O3    O     O_R   0.375320 0.946260 0.070860 -0.503088
O4    O     O_R   0.476420 0.724060 0.429470 -0.471851
O5    O     O_R   0.160600 0.919630 0.926660 -0.527442
O6    O     O_R   0.933060 0.190520 0.936020 -0.524864
O7    O     O_R   0.908880 0.403460 0.925020 -0.520904
O8    O     O_R   0.179600 0.361450 0.918490 -0.503996
O9    O     O_R   0.391510 0.170860 0.907530 -0.521654
O10   O     O_R   0.351130 0.942530 0.922260 -0.501765
O11   O     O_3   0.166667 0.166667 0.999870 -0.264651
O12   O     O_R   0.300070 0.471040 0.567100 -0.495604
O13   O     O_R   0.264580 0.744340 0.416750 -0.537779
O14   O     O_R   0.309380 0.472470 0.418200 -0.489506
O15   O     O_R   0.501710 0.260430 0.414300 -0.507940
O16   O     O_R   0.728090 0.305600 0.428960 -0.522546
O17   O     O_R   0.738760 0.495930 0.588610 -0.523909
O18   O     O_R   0.467110 0.722640 0.578360 -0.509362
O19   O     O_R   0.254530 0.742800 0.577360 -0.523517
O20   O     O_R   0.491670 0.258900 0.574910 -0.519270
O21   O     O_R   0.718780 0.304180 0.577850 -0.507215
O22   O     O_3   0.500010 0.500010 0.500020 -0.278550
O23   O     O_R   0.186690 0.923650 0.086970 -0.512096
O24   O     O_R   0.957250 0.194250 0.084630 -0.537713
O25   O     O_R   0.934970 0.407490 0.085330 -0.524762
O26   O     O_R   0.203780 0.365190 0.067090 -0.513978

loop_
_geom_bond_atom_site_label_1
_geom_bond_atom_site_label_2
_ccdc_geom_bond_type
C61   H3    S    
C25   C31   A    
C23   C45   A    
C27   C29   A    
C41   C42   A    
C19   C20   A    
C59   H15   S    
Cr5   O8    S    
C8    C56   A    
C48   O2    A    
C7    C8    A    
C39   C41   A    
C28   C46   S    
C26   C27   A    
C29   C30   A    
Cr3   O20   S    
C18   C24   A    
C4    O15   A    
C36   C37   A    
C37   C38   A    
C28   O18   A    
C1    O13   A    
C30   C31   A    
Cr6   O9    S    
C38   C52   S    
C10   H27   S    
C10   C17   A    
C53   O10   A    
Cr3   O22   S    
C41   H16   S    
C26   H6    S    
C31   C40   S    
C18   C19   A    
Cr4   O6    S    
Cr2   O13   S    
Cr1   O18   S    
C48   O26   A    
Cr6   O10   S    
C35   C36   A    
C27   C51   S    
C16   C17   S    
C50   O6    A    
C18   H30   S    
C32   C38   A    
C5    H12   S    
C1    O4    A    
Cr3   O16   S    
C21   C22   A    
Cr2   O12   S    
C43   H17   S    
Cr5   O7    S    
C14   H29   S    
Cr2   O22   S    
C19   H31   S    
C44   C46   A    
C40   O12   A    
C52   O17   A    
C7    H26   S    
C37   H13   S    
Cr3   O15   S    
C5    C59   A    
C4    O14   A    
C39   H14   S    
C3    C8    S    
C34   H1    S    
C49   O3    A    
C54   H19   S    
Cr2   O19   S    
C16   O1    A    
C29   H7    S    
C25   C26   A    
C6    H23   S    
C21   H2    S    
C60   C61   A    
Cr2   O14   S    
C43   C44   A    
Cr1   O17   S    
C20   C49   S    
C3    C9    A    
Cr6   O11   S    
C47   O24   A    
Cr5   O26   S    
C35   C50   S    
C25   H5    S    
Cr4   O23   S    
Cr5   O11   S    
C2    H25   S    
C34   C45   A    
C39   C46   A    
Cr1   O1    S    
C12   C57   A    
C52   O21   A    
C56   H22   S    
C51   O9    A    
C55   C57   A    
C9    C34   A    
C15   C58   S    
Cr5   O25   S    
C42   C43   A    
C44   H18   S    
C16   O16   A    
C22   H4    S    
Cr6   O2    S    
C13   C47   S    
Cr1   O4    S    
C60   H24   S    
C11   H28   S    
C15   C17   A    
C54   C55   A    
C23   C48   S    
C58   N1    T    
C12   C45   S    
C32   H9    S    
C57   H21   S    
C6    C7    A    
C54   C61   A    
Cr3   O21   S    
C56   C59   A    
C32   C33   A    
C2    C3    A    
C42   C53   S    
C36   H11   S    
C30   H8    S    
C11   C13   A    
C33   H10   S    
C47   O25   A    
C5    C6    A    
C49   O23   A    
C33   C35   A    
C22   C24   A    
Cr4   O24   S    
C55   H20   S    
Cr4   O11   S    
C10   C11   A    
C12   C60   A    
C40   O20   A    
C20   C21   A    
C1    C24   S    
C51   O8    A    
C2    C23   A    
C50   O7    A    
C14   C15   A    
C28   O19   A    
C53   O5    A    
Cr4   O5    S    
C4    C9    S    
C13   C14   A    
Cr1   O22   S    
Cr6   O3    S    
