data_mof_unit_18925.cif
_audit_creation_date              2012-12-11T15:42:41-0500
_audit_creation_method            fapswitch 2.2
_symmetry_space_group_name_H-M    P1
_symmetry_Int_Tables_number       1
_space_group_crystal_system       triclinic
_cell_length_a                    6.928671
_cell_length_b                    14.561272
_cell_length_c                    16.206085
_cell_angle_alpha                 90.486906
_cell_angle_beta                  89.779861
_cell_angle_gamma                 90.188555
_cell_volume                      1634.95639205

loop_
_atom_site_label
_atom_site_type_symbol
_atom_type_description
_atom_site_fract_x
_atom_site_fract_y
_atom_site_fract_z
_atom_type_partial_charge
O1    O     O_R   0.505810 0.583360 0.413880 -0.497986
O2    O     O_R   0.175870 0.595480 0.585520 -0.548554
O3    O     O_R   0.005540 0.416640 0.586120 -0.550589
C1    C     C_R   0.344889 0.617639 0.614674 0.676205
O4    O     O_R   0.176100 0.594390 0.414490 -0.538298
O5    O     O_R   0.005770 0.415540 0.413870 -0.544269
C2    C     C_R   0.345744 0.616209 0.385458 0.741611
O6    O     O_R   0.505580 0.584460 0.586130 -0.543999
O7    O     O_3   0.339190 0.441320 0.500000 -0.376219
V1    V     V_3+5 0.064350 0.510890 0.500000 1.451963
O8    O     O_R   0.676050 0.404520 0.414480 -0.545457
C3    C     C_R   0.845173 0.382017 0.385765 0.704149
O9    O     O_R   0.675830 0.405610 0.585510 -0.514633
C4    C     C_R   0.844025 0.383054 0.613452 0.748181
V2    V     V_3+5 0.564340 0.489110 0.500000 1.483290
O10   O     O_3   0.839370 0.558680 0.500000 -0.358742
C5    C     C_2   0.720631 0.205847 0.785687 -0.202771
C6    C     C_2   0.886802 0.180942 0.822136 -0.352812
H1    H     H_    0.586674 0.175240 0.807372 0.148690
H2    H     H_    0.024210 0.209319 0.802931 0.129234
C7    C     C_2   0.701692 0.272548 0.716412 0.316174
C8    C     C_2   0.856118 0.314088 0.680229 -0.334374
H3    H     H_    0.000983 0.298482 0.700237 0.097029
C9    C     C_R   0.047512 0.222885 0.219402 -0.154617
H4    H     H_    0.188418 0.204319 0.195584 0.117000
C10   C     C_R   0.036289 0.286855 0.284220 -0.147681
H5    H     H_    0.169107 0.315771 0.308181 0.117231
C11   C     C_R   0.856467 0.313196 0.317443 -0.046379
C12   C     C_R   0.688187 0.273759 0.284040 -0.152616
H6    H     H_    0.547287 0.292309 0.307877 0.114046
C13   C     C_R   0.699411 0.209790 0.219219 -0.149360
H7    H     H_    0.566597 0.180862 0.195268 0.118289
C14   C     C_R   0.879227 0.183500 0.185951 -0.045650
C15   C     C_R   0.188263 0.723706 0.718989 -0.156545
H8    H     H_    0.047367 0.705674 0.695028 0.115207
C16   C     C_R   0.199678 0.785920 0.785314 -0.149589
H9    H     H_    0.066947 0.814134 0.810064 0.118621
C17   C     C_R   0.379437 0.811504 0.819004 -0.047416
C18   C     C_R   0.547445 0.773053 0.784316 -0.155704
H10   H     H_    0.688341 0.791093 0.808273 0.116594
C19   C     C_R   0.536029 0.710835 0.717994 -0.148061
H11   H     H_    0.668759 0.682624 0.693241 0.116967
C20   C     C_R   0.356268 0.685250 0.684306 -0.044832
C21   C     C_R   0.192682 0.730854 0.290456 -0.214458
H12   H     H_    0.054789 0.719287 0.320217 0.209977
C22   C     C_R   0.202668 0.793971 0.225753 -0.148447
H13   H     H_    0.071919 0.828855 0.207597 0.141259
C23   C     C_R   0.379015 0.812409 0.185672 -0.134187
C24   C     C_R   0.544715 0.765648 0.211831 -0.231747
H14   H     H_    0.682738 0.777745 0.182191 0.146483
C25   C     C_R   0.535037 0.701983 0.276056 0.617085
C26   C     C_R   0.358305 0.683859 0.316754 -0.177176
O11   O     O_R   0.230120 0.912300 0.917180 -0.541159
O12   O     O_R   0.559740 0.902430 0.088770 -0.543844
O13   O     O_R   0.729930 0.081310 0.089370 -0.541740
C27   C     C_R   0.390347 0.880363 0.117513 0.721374
O14   O     O_R   0.559840 0.901330 0.917750 -0.543929
O15   O     O_R   0.730030 0.080210 0.917120 -0.537679
C28   C     C_R   0.390815 0.879131 0.888626 0.686456
O16   O     O_R   0.230020 0.913400 0.089430 -0.540641
O17   O     O_3   0.396460 0.055470 0.003290 -0.370653
V3    V     V_3+5 0.671360 0.985960 0.003250 1.403924
O18   O     O_R   0.059740 0.091300 0.917690 -0.545421
C29   C     C_R   0.891536 0.113070 0.889406 0.767611
O19   O     O_R   0.059640 0.092400 0.088720 -0.544980
C30   C     C_R   0.890524 0.114787 0.117528 0.684711
V4    V     V_3+5 0.171350 0.007820 0.003190 1.401692
O20   O     O_3   0.896380 0.938200 0.003220 -0.371177
F1    F     F_    0.699185 0.657550 0.297210 -0.705307
N1    N     N_2   0.510836 0.292133 0.689208 -0.491553
H15   H     H_    0.413054 0.299042 0.737012 0.236482
C31   C     C_3   0.440779 0.230139 0.625748 -0.509118
H16   H     H_    0.297570 0.253754 0.604066 0.189641
H17   H     H_    0.425346 0.159547 0.650598 0.169048
H18   H     H_    0.541294 0.229002 0.572128 0.194150

loop_
_geom_bond_atom_site_label_1
_geom_bond_atom_site_label_2
_ccdc_geom_bond_type
O15   V3    S    
C19   H11   S    
C1    O6    A    
O11   C28   A    
O14   V3    S    
C18   C19   A    
C10   H5    S    
C3    C11   S    
C11   C12   A    
C9    C10   A    
C2    C26   S    
O5    C3    A    
C17   C18   A    
O14   C28   A    
V2    O10   S    
O13   V3    S    
C25   C26   A    
C15   H8    S    
O8    V2    S    
O16   V4    S    
O19   V4    S    
C13   C14   A    
N1    H15   S    
O1    V2    S    
O7    V1    S    
C6    H2    S    
C21   C26   A    
O9    C4    A    
C19   C20   A    
C31   H18   S    
C21   C22   A    
C14   C30   S    
O12   C27   A    
O15   C29   A    
O18   V4    S    
V4    O20   S    
C9    H4    S    
C31   H17   S    
C18   H10   S    
O4    C2    A    
O12   V3    S    
C24   C25   A    
C5    C7    S    
O18   C29   A    
O2    C1    A    
C12   H6    S    
O17   V4    S    
C13   H7    S    
C5    C6    D    
O3    C4    A    
C23   C24   A    
C24   H14   S    
O6    V2    S    
O9    V2    S    
O2    V1    S    
O13   C30   A    
C21   H12   S    
C23   C27   S    
C22   H13   S    
C16   H9    S    
O1    C2    A    
C15   C20   A    
C31   H16   S    
O5    V1    S    
O8    C3    A    
C1    C20   S    
C10   C11   A    
C9    C14   A    
V3    O20   S    
C7    N1    S    
C4    C8    S    
C16   C17   A    
O7    V2    S    
O4    V1    S    
C12   C13   A    
O3    V1    S    
V1    O10   S    
C6    C29   S    
C5    H1    S    
C15   C16   A    
O17   V3    S    
O11   V4    S    
C17   C28   S    
C22   C23   A    
C27   O16   A    
O19   C30   A    
C8    H3    S    
N1    C31   S    
C25   F1    S    
C7    C8    D    
