data_mof_unit_14058.cif
_audit_creation_date              2012-12-10T16:46:42-0500
_audit_creation_method            fapswitch 2.2
_symmetry_space_group_name_H-M    P1
_symmetry_Int_Tables_number       1
_space_group_crystal_system       triclinic
_cell_length_a                    15.854826
_cell_length_b                    8.691005
_cell_length_c                    7.44947
_cell_angle_alpha                 103.034733
_cell_angle_beta                  93.896014
_cell_angle_gamma                 92.177081
_cell_volume                      996.232821979

loop_
_atom_site_label
_atom_site_type_symbol
_atom_type_description
_atom_site_fract_x
_atom_site_fract_y
_atom_site_fract_z
_atom_type_partial_charge
C1    C     C_R   0.497467 0.199722 0.453247 0.879587
C2    C     C_3   0.951299 0.397586 0.623728 -0.377608
C3    C     C_3   0.917141 0.505313 0.498172 0.296967
C4    C     C_3   0.954864 0.676353 0.576973 -0.362750
C5    C     C_3   0.053641 0.679746 0.586086 0.036441
C6    C     C_1   0.824770 0.502416 0.492186 -0.109390
C7    C     C_1   0.175569 0.504748 0.511927 -0.129884
C8    C     C_1   0.250998 0.502282 0.509263 -0.178694
C9    C     C_2   0.496231 0.031805 0.426995 -0.372962
C10   C     C_2   0.503662 0.968187 0.573011 -0.373501
C11   C     C_R   0.340353 0.500020 0.502897 0.824671
C12   C     C_R   0.502487 0.800275 0.546756 0.878642
C13   C     C_R   0.659660 0.500154 0.497166 0.823433
C14   C     C_3   0.048924 0.393577 0.624838 -0.365188
C15   C     C_3   0.044438 0.448060 0.309370 -0.436773
C16   C     C_3   0.946556 0.445402 0.301778 -0.395259
C17   C     C_1   0.749142 0.500859 0.491810 -0.174637
C18   C     C_3   0.083353 0.507984 0.511714 0.304469
Cu1   Cu    Cu3+1 0.509300 0.517380 0.684380 0.949720
Cu2   Cu    Cu3+1 0.490700 0.482620 0.315620 0.950535
H1    H     H_    0.922602 0.275208 0.573135 0.160697
H2    H     H_    0.078868 0.422340 0.768181 0.168837
H3    H     H_    0.932920 0.441175 0.767113 0.160411
H4    H     H_    0.931750 0.754436 0.486528 0.130828
H5    H     H_    0.489217 0.960174 0.286291 0.179625
H6    H     H_    0.510668 0.039818 0.713714 0.179701
H7    H     H_    0.434942 0.376920 0.948763 0.225651
H8    H     H_    0.565052 0.623089 0.051239 0.225634
H9    H     H_    0.065943 0.270886 0.562741 0.155429
H10   H     H_    0.067784 0.525733 0.221264 0.163965
H11   H     H_    0.064612 0.326918 0.250275 0.176335
H12   H     H_    0.919993 0.322696 0.241996 0.170927
H13   H     H_    0.922840 0.521067 0.209035 0.164123
H14   H     H_    0.072823 0.748179 0.484130 0.101032
H15   H     H_    0.930389 0.723167 0.713290 0.179485
N1    N     N_2   0.476670 0.456430 0.038530 -0.215689
N2    N     N_2   0.523330 0.543570 0.961470 -0.215766
O1    O     O_R   0.506050 0.286130 0.619770 -0.584278
O2    O     O_R   0.490330 0.256780 0.308370 -0.586777
O3    O     O_R   0.387300 0.514690 0.655770 -0.584667
O4    O     O_R   0.371580 0.485340 0.344370 -0.575226
O5    O     O_R   0.509670 0.743220 0.691630 -0.587060
O6    O     O_R   0.493950 0.713870 0.380230 -0.584393
O7    O     O_R   0.628420 0.514660 0.655630 -0.576083
O8    O     O_R   0.612700 0.485310 0.344230 -0.583568
C19   C     C_3   0.098793 0.774150 0.774187 -0.372801
C20   C     C_3   0.059086 0.757929 0.951770 -0.857940
H16   H     H_    0.006334 0.838267 0.979566 0.234642
H17   H     H_    0.035082 0.636034 0.945958 0.248694
H18   H     H_    0.107258 0.793550 0.070977 0.235229
H19   H     H_    0.165936 0.743543 0.785462 0.209080
H20   H     H_    0.100852 0.902047 0.773209 0.186108

loop_
_geom_bond_atom_site_label_1
_geom_bond_atom_site_label_2
_ccdc_geom_bond_type
C15   C18   S    
C15   H11   S    
Cu1   O1    S    
C16   H13   S    
C16   H12   S    
C9    C10   D    
C14   C18   S    
Cu1   Cu2   S    
Cu1   O5    S    
C13   C17   S    
C20   H18   S    
C3    C6    S    
C5    H14   S    
C14   H2    S    
C2    H1    S    
C2    C3    S    
C4    H15   S    
C9    H5    S    
C7    C8    T    
C20   H17   S    
C7    C18   S    
C13   O8    A    
C10   H6    S    
C10   C12   S    
C1    O1    A    
C8    C11   S    
Cu2   O4    S    
C15   C16   S    
H8    N2    S    
N1    N2    D    
C11   O4    A    
C12   O6    A    
C11   O3    A    
C4    H4    S    
Cu1   O3    S    
C1    O2    A    
C14   H9    S    
C3    C4    S    
Cu2   N1    S    
C19   H20   S    
Cu2   O6    S    
C1    C9    S    
Cu1   O7    S    
C15   H10   S    
C5    C19   S    
Cu2   O8    S    
C2    C14   S    
C2    H3    S    
C6    C17   T    
Cu2   O2    S    
C19   C20   S    
C12   O5    A    
C5    C18   S    
Cu1   N2    S    
C19   H19   S    
H7    N1    S    
C13   O7    A    
C3    C16   S    
C20   H16   S    
C4    C5    S    
