data_mof_unit_33325.cif
_audit_creation_date              2012-12-10T17:53:20-0500
_audit_creation_method            fapswitch 2.2
_symmetry_space_group_name_H-M    P1
_symmetry_Int_Tables_number       1
_space_group_crystal_system       triclinic
_cell_length_a                    23.382914
_cell_length_b                    10.625314
_cell_length_c                    9.893732
_cell_angle_alpha                 88.328473
_cell_angle_beta                  89.7716
_cell_angle_gamma                 93.695332
_cell_volume                      2451.90874676

loop_
_atom_site_label
_atom_site_type_symbol
_atom_type_description
_atom_site_fract_x
_atom_site_fract_y
_atom_site_fract_z
_atom_type_partial_charge
C1    C     C_R   0.498588 0.256771 0.502806 0.915472
C2    C     C_R   0.967751 0.332862 0.322141 -0.133443
C3    C     C_R   0.027326 0.342712 0.317788 -0.114680
C4    C     C_R   0.058457 0.406668 0.418683 0.017144
C5    C     C_R   0.029398 0.461200 0.525090 -0.082791
C6    C     C_R   0.060398 0.524142 0.628059 -0.180162
C7    C     C_R   0.030530 0.580174 0.732212 0.689093
C8    C     C_R   0.970850 0.574575 0.732636 -0.217889
C9    C     C_R   0.118200 0.417156 0.416256 0.545046
C10   C     C_R   0.120425 0.528211 0.623338 0.623444
C11   C     C_R   0.239552 0.591188 0.487646 -0.153526
C12   C     C_R   0.389673 0.498244 0.500304 1.012220
C13   C     C_R   0.298692 0.596301 0.479326 0.628078
C14   C     C_R   0.327653 0.486732 0.501471 -0.268609
C15   C     C_R   0.297465 0.369105 0.531084 -0.229411
C16   C     C_R   0.237082 0.364786 0.540696 -0.040576
C17   C     C_R   0.208757 0.476985 0.518282 0.110944
C18   C     C_R   0.768283 0.519459 0.412413 -0.136028
C19   C     C_R   0.709802 0.531372 0.399467 -0.081364
C20   C     C_R   0.672385 0.479466 0.501934 -0.225605
C21   C     C_R   0.694342 0.408179 0.610232 0.589855
C22   C     C_R   0.753107 0.390887 0.619235 -0.127142
C23   C     C_R   0.513040 0.737249 0.496917 0.917147
C24   C     C_R   0.790095 0.450211 0.520372 0.136812
C25   C     C_R   0.528174 0.095664 0.756339 0.592799
C26   C     C_R   0.562979 0.040355 0.852673 0.664755
C27   C     C_R   0.595300 0.940679 0.818975 -0.365953
C28   C     C_R   0.589445 0.887654 0.691695 -0.206616
C29   C     C_R   0.549337 0.936349 0.599476 -0.069660
C30   C     C_R   0.526348 0.053430 0.621323 -0.103137
C31   C     C_R   0.502257 0.118510 0.507274 -0.115650
C32   C     C_R   0.495990 0.056147 0.382428 -0.090333
C33   C     C_R   0.516512 0.937876 0.368615 -0.089121
C34   C     C_R   0.610637 0.496613 0.499816 0.939730
C35   C     C_R   0.531186 0.871201 0.485423 -0.172377
C36   C     C_R   0.412353 0.361844 0.143980 -0.075513
C37   C     C_R   0.366229 0.304661 0.075891 -0.180956
C38   C     C_R   0.367571 0.300227 0.936453 -0.157511
C39   C     C_R   0.413998 0.357290 0.864721 -0.019382
C40   C     C_R   0.457253 0.430800 0.929943 0.200005
C41   C     C_R   0.456901 0.431883 0.074401 0.184944
C42   C     C_R   0.540415 0.567798 0.069026 -0.028995
C43   C     C_R   0.540328 0.567904 0.926040 -0.046140
C44   C     C_R   0.880000 0.507949 0.627760 0.609513
C45   C     C_R   0.878510 0.383395 0.430115 0.573152
C46   C     C_R   0.938302 0.388651 0.426196 -0.008305
C47   C     C_R   0.969144 0.453505 0.527712 -0.012126
C48   C     C_R   0.939841 0.511848 0.630852 -0.119247
H1    H     H_    0.944906 0.282877 0.242890 0.202788
H2    H     H_    0.624828 0.904806 0.892565 0.234436
H3    H     H_    0.573084 0.623976 0.120562 0.200734
H4    H     H_    0.048858 0.299628 0.235545 0.205516
H5    H     H_    0.413945 0.341037 0.249592 0.217776
H6    H     H_    0.331293 0.255588 0.132034 0.199336
H7    H     H_    0.333721 0.247448 0.884738 0.211646
H8    H     H_    0.416416 0.336719 0.760007 0.207371
H9    H     H_    0.572948 0.623881 0.870691 0.191336
H10   H     H_    0.949051 0.619645 0.813108 0.223586
H11   H     H_    0.217227 0.676202 0.469312 0.188297
H12   H     H_    0.797524 0.562658 0.336566 0.177043
N1    N     N_R   0.850816 0.444159 0.528580 -0.327734
N2    N     N_R   0.147645 0.474573 0.519069 -0.347833
N3    N     N_R   0.499460 0.498800 0.142780 -0.128371
N4    N     N_R   0.499440 0.498720 0.857170 -0.127080
O1    O     O_R   0.500000 0.316780 0.614690 -0.562141
O2    O     O_2   0.848083 0.319354 0.335650 -0.523088
O3    O     O_2   0.146906 0.369860 0.312593 -0.521298
O4    O     O_2   0.151589 0.584033 0.722061 -0.439505
O5    O     O_R   0.500000 0.316750 0.385360 -0.627968
O6    O     O_R   0.416160 0.499970 0.614690 -0.656528
O7    O     O_R   0.416150 0.499950 0.385360 -0.615470
O8    O     O_R   0.500000 0.683250 0.614640 -0.612749
O9    O     O_R   0.500000 0.683220 0.385310 -0.607049
O10   O     O_R   0.583850 0.500050 0.614640 -0.552340
O11   O     O_R   0.583840 0.500030 0.385310 -0.614606
O12   O     O_2   0.851119 0.568731 0.721644 -0.521576
Zn1   Zn    Zn3+2 0.500000 0.500020 0.653130 1.037274
Zn2   Zn    Zn3+2 0.500000 0.499980 0.346870 1.030243
C49   C     C_2   0.690177 0.596164 0.276128 0.996641
O13   O     O_2   0.667170 0.534370 0.186853 -0.578827
O14   O     O_R   0.701612 0.726201 0.257792 -0.734331
H13   H     H_    0.687080 0.759191 0.167949 0.367396
F1    F     F_    0.657850 0.349227 0.702812 -0.603021
C50   C     C_2   0.774852 0.309382 0.730162 1.026338
O15   O     O_2   0.818439 0.253734 0.714002 -0.613274
O16   O     O_R   0.745157 0.295020 0.853226 -0.676811
H14   H     H_    0.764080 0.237055 0.920220 0.363829
C51   C     C_2   0.461500 0.102336 0.269542 0.997386
O17   O     O_2   0.485182 0.153939 0.170468 -0.527962
O18   O     O_R   0.402837 0.068261 0.268827 -0.718399
H15   H     H_    0.385483 0.077846 0.175935 0.356314
F2    F     F_    0.490226 0.174082 0.803700 -0.636001
F3    F     F_    0.566000 0.085038 0.979522 -0.566740
C52   C     C_2   0.631300 0.795137 0.651058 0.970315
O19   O     O_2   0.651238 0.725388 0.736310 -0.567716
O20   O     O_R   0.651771 0.791575 0.518332 -0.764557
H16   H     H_    0.641915 0.866428 0.459373 0.345748
C53   C     C_2   0.525566 0.886120 0.232257 1.029035
O21   O     O_2   0.572840 0.852304 0.202275 -0.643589
O22   O     O_R   0.480487 0.874023 0.140090 -0.749785
H17   H     H_    0.492498 0.837215 0.051738 0.335328
F4    F     F_    0.058524 0.641707 0.833254 -0.587764
F5    F     F_    0.327960 0.708681 0.451139 -0.620661
C54   C     C_2   0.328840 0.252364 0.552105 0.959073
O23   O     O_2   0.369574 0.233299 0.479664 -0.648813
O24   O     O_R   0.311591 0.163564 0.653582 -0.787485
H18   H     H_    0.336523 0.088927 0.657463 0.375172
C55   C     C_2   0.202827 0.243996 0.568355 1.029379
O25   O     O_2   0.164932 0.238178 0.654285 -0.599100
O26   O     O_R   0.213154 0.137742 0.494053 -0.732150
H19   H     H_    0.186902 0.061581 0.521625 0.365082

loop_
_geom_bond_atom_site_label_1
_geom_bond_atom_site_label_2
_ccdc_geom_bond_type
C24   N1    S    
N4    Zn1   S    
C19   C20   A    
C54   O24   S    
O14   H13   S    
O5    Zn2   S    
C7    C8    A    
C45   C46   A    
C2    C46   A    
C5    C47   A    
C26   C27   A    
C37   C38   A    
C18   C24   A    
C28   C29   A    
C50   O16   S    
C18   C19   A    
C30   C31   A    
O24   H18   S    
C15   C16   A    
C32   C51   S    
C1    C31   S    
C55   O25   D    
C28   C52   S    
C33   C53   S    
C44   O12   S    
O26   H19   S    
C36   H5    S    
O8    Zn1   S    
C8    H10   S    
C38   H7    S    
C21   F1    S    
C16   C17   A    
O10   Zn1   S    
C1    O1    A    
O9    Zn2   S    
C15   C54   S    
C13   F5    S    
C27   H2    S    
C42   H3    S    
C20   C34   S    
C26   F3    S    
C21   C22   A    
O6    Zn1   S    
C36   C41   A    
C10   N2    A    
C23   O9    A    
C11   H11   S    
C54   O23   D    
C43   N4    A    
C38   C39   A    
O1    Zn1   S    
C9    N2    A    
C50   O15   D    
C39   C40   A    
C49   O14   S    
C43   H9    S    
O16   H14   S    
C25   C26   A    
C7    F4    S    
C1    O5    A    
C22   C50   S    
C19   C49   S    
C8    C48   A    
C9    O3    S    
C29   C30   A    
C2    H1    S    
C17   N2    S    
C47   C48   A    
O20   H16   S    
C39   H8    S    
C20   C21   A    
C52   O20   S    
C34   O10   A    
C37   H6    S    
C18   H12   S    
C40   C41   A    
C12   O7    A    
C12   C14   S    
C53   O22   S    
C22   C24   A    
C42   C43   A    
C41   N3    A    
C3    C4    A    
C45   O2    S    
C25   C30   A    
C12   O6    A    
C46   C47   A    
C11   C17   A    
C25   F2    S    
C23   O8    A    
C31   C32   A    
C51   O18   S    
C4    C5    A    
C6    C10   A    
C3    H4    S    
C6    C7    A    
C10   O4    S    
C44   N1    A    
C29   C35   A    
C23   C35   S    
C40   N4    A    
C32   C33   A    
C2    C3    A    
C11   C13   A    
O18   H15   S    
C5    C6    A    
C45   N1    A    
O22   H17   S    
C33   C35   A    
C55   O26   S    
C52   O19   D    
O11   Zn2   S    
C16   C55   S    
C49   O13   D    
C34   O11   A    
C51   O17   D    
C36   C37   A    
C53   O21   D    
C27   C28   A    
C14   C15   A    
C4    C9    A    
C13   C14   A    
C42   N3    A    
O7    Zn2   S    
C44   C48   A    
N3    Zn2   S    
