data_mof_unit_52165.cif
_audit_creation_date              2013-03-05T16:11:20-0500
_audit_creation_method            fapswitch 2.2
_symmetry_space_group_name_H-M    P1
_symmetry_Int_Tables_number       1
_space_group_crystal_system       triclinic
_cell_length_a                    10.715413
_cell_length_b                    9.832986
_cell_length_c                    10.649304
_cell_angle_alpha                 89.989775
_cell_angle_beta                  89.872274
_cell_angle_gamma                 90.060306
_cell_volume                      1122.05522744

loop_
_atom_site_label
_atom_site_type_symbol
_atom_site_description
_atom_site_fract_x
_atom_site_fract_y
_atom_site_fract_z
_atom_type_partial_charge
O1    O     O_R   0.316750 0.614620 0.499990 -0.631995
O2    O     O_R   0.316750 0.385380 0.499990 -0.635239
C1    C     C_R   0.259828 0.499944 0.500020 0.859323
O3    O     O_R   0.499970 0.614670 0.314790 -0.615167
O4    O     O_R   0.499970 0.385330 0.314790 -0.588006
C2    C     C_R   0.501728 0.500218 0.257514 0.916099
Zn1   Zn    Zn3+2 0.499980 0.653120 0.500000 0.967632
Zn2   Zn    Zn3+2 0.499980 0.346880 0.500000 0.985915
O5    O     O_R   0.683220 0.614710 0.500010 -0.616959
O6    O     O_R   0.683220 0.385290 0.500010 -0.609939
O7    O     O_R   0.500010 0.614660 0.685200 -0.634432
O8    O     O_R   0.500010 0.385340 0.685200 -0.636998
C3    C     C_R   0.740092 0.500042 0.501529 0.938233
C4    C     C_R   0.498729 0.500216 0.742319 0.852093
C5    C     C_3   0.488158 0.648896 0.071262 -0.409492
C6    C     C_3   0.390863 0.417991 0.072591 -0.420605
H1    H     H_    0.560475 0.719012 0.109151 0.237390
H2    H     H_    0.392065 0.311249 0.106170 0.230700
H3    H     H_    0.395974 0.690034 0.101437 0.186202
H4    H     H_    0.302935 0.462853 0.110120 0.177031
C7    C     C_3   0.495454 0.649171 0.928699 -0.373379
C8    C     C_3   0.386530 0.421021 0.928876 -0.390439
H5    H     H_    0.412337 0.703311 0.890899 0.187655
H6    H     H_    0.298537 0.470291 0.897153 0.177210
H7    H     H_    0.580057 0.706277 0.898149 0.215525
H8    H     H_    0.386267 0.314836 0.892579 0.200468
H9    H     H_    0.703604 0.470441 0.872131 0.184796
H10   H     H_    0.617928 0.321082 0.895966 0.197889
C9    C     C_3   0.634112 0.443613 0.069450 0.516992
C10   C     C_3   0.505197 0.500842 0.120877 -0.032537
C11   C     C_3   0.500541 0.500666 0.878422 0.079487
C12   C     C_3   0.621522 0.430079 0.923919 -0.468667
C13   C     C_R   0.063744 0.378299 0.523549 -0.180562
C14   C     C_R   0.063992 0.621699 0.478903 -0.185863
H11   H     H_    0.112325 0.283666 0.541372 0.159576
H12   H     H_    0.112721 0.716258 0.460403 0.158550
C15   C     C_R   0.935900 0.378432 0.524363 -0.155901
C16   C     C_R   0.936203 0.621856 0.479848 -0.117677
H13   H     H_    0.887096 0.283868 0.542641 0.160379
H14   H     H_    0.887683 0.716496 0.461884 0.171533
C17   C     C_R   0.872534 0.500165 0.502261 0.001260
C18   C     C_R   0.127388 0.499916 0.500688 -0.022518
C19   C     C_R   0.570972 0.072049 0.583931 -0.059338
C20   C     C_R   0.570959 0.928087 0.583942 -0.064930
H15   H     H_    0.627741 0.126722 0.651000 0.129164
H16   H     H_    0.627696 0.873524 0.651037 0.132863
N1    N     N_R   0.499970 0.857200 0.499970 -0.085409
N2    N     N_R   0.499970 0.142800 0.499970 -0.084318
C21   C     C_R   0.429092 0.927955 0.415899 -0.058899
C22   C     C_R   0.429104 0.071920 0.415890 -0.019558
H17   H     H_    0.372418 0.873286 0.348749 0.125274
H18   H     H_    0.372462 0.126489 0.348716 0.132087
N3    N     N_R   0.735787 0.540126 0.102833 0.196317
O9    O     O_R   0.795303 0.610849 0.018334 -0.414463
O10   O     O_R   0.763265 0.561300 0.220131 -0.392444
N4    N     N_R   0.663662 0.308173 0.122688 0.195146
O11   O     O_R   0.766936 0.288237 0.184203 -0.331213
O12   O     O_R   0.592458 0.203607 0.100503 -0.435845

loop_
_geom_bond_atom_site_label_1
_geom_bond_atom_site_label_2
_geom_bond_distance
_ccdc_geom_bond_type
O4    Zn2   2.008201 S    
C22   H18   1.081898 S    
C19   C20   1.415576 A    
Zn2   N2    2.006716 S    
C1    C18   1.419145 S    
C9    C10   1.588459 S    
C9    N4    1.482141 S    
C19   H15   1.081926 S    
C19   N2    1.366097 A    
C11   C12   1.549719 S    
C14   C18   1.396993 A    
C20   N1    1.366118 A    
C6    H4    1.114136 S    
C4    C11   1.449580 S    
Zn2   O8    2.008248 S    
C6    C8    1.531560 S    
C21   H17   1.081906 S    
C3    C17   1.419215 S    
O2    C1    1.281595 A    
N1    C21   1.366142 A    
C6    H2    1.108876 S    
O1    Zn1   1.999158 S    
N3    O9    1.302430 A    
C5    H3    1.114496 S    
C7    C11   1.556367 S    
C13   H11   1.083647 S    
C9    N3    1.487840 S    
C16   C17   1.397028 A    
O3    Zn1   2.008334 S    
C13   C18   1.397093 A    
H10   C12   1.113040 S    
N2    C22   1.366109 A    
C16   H14   1.083652 S    
O8    C4    1.283113 A    
C13   C15   1.369909 A    
Zn1   O7    2.008116 S    
C9    C12   1.561657 S    
C14   H12   1.083717 S    
N3    O10   1.300770 A    
C7    H5    1.114092 S    
C15   C17   1.396978 A    
O4    C2    1.283846 A    
C15   H13   1.083714 S    
O7    C4    1.279152 A    
C8    H6    1.113636 S    
O3    C2    1.280296 A    
C8    C11   1.545774 S    
C6    C10   1.558819 S    
Zn1   O5    1.999877 S    
C5    C7    1.520033 S    
N4    O11   1.302248 A    
C5    C10   1.559677 S    
Zn2   O6    1.999097 S    
C21   C22   1.415605 A    
C8    H8    1.113432 S    
C5    H1    1.113103 S    
C7    H7    1.113801 S    
O5    C3    1.282355 A    
C20   H16   1.081891 S    
C2    C10   1.455496 S    
H9    C12   1.110088 S    
C14   C16   1.369334 A    
O2    Zn2   1.999940 S    
N4    O12   1.301676 A    
O1    C1    1.281439 A    
O6    C3    1.281966 A    
Zn1   N1    2.006716 S    
