data_mof_unit_30492.cif
_audit_creation_date              2012-12-10T20:28:39-0500
_audit_creation_method            fapswitch 2.2
_symmetry_space_group_name_H-M    P1
_symmetry_Int_Tables_number       1
_space_group_crystal_system       triclinic
_cell_length_a                    10.595986
_cell_length_b                    10.693182
_cell_length_c                    9.875135
_cell_angle_alpha                 88.92142
_cell_angle_beta                  90.125793
_cell_angle_gamma                 90.737272
_cell_volume                      1118.60726374

loop_
_atom_site_label
_atom_site_type_symbol
_atom_type_description
_atom_site_fract_x
_atom_site_fract_y
_atom_site_fract_z
_atom_type_partial_charge
C1    C     C_R   0.504402 0.259984 0.500924 0.886880
C2    C     C_R   0.068756 0.623171 0.496724 0.076425
C3    C     C_R   0.128611 0.506357 0.499604 -0.071658
C4    C     C_R   0.062553 0.393290 0.502733 -0.242453
C5    C     C_R   0.933499 0.394257 0.502795 -0.198704
C6    C     C_R   0.871953 0.508277 0.500036 -0.067476
C7    C     C_R   0.529306 0.060594 0.622318 0.129255
C8    C     C_R   0.527008 0.129137 0.501424 -0.123381
C9    C     C_R   0.552453 0.069741 0.379097 -0.295507
C10   C     C_R   0.552966 0.940026 0.375399 0.072559
C11   C     C_R   0.527682 0.871780 0.496400 -0.135351
C12   C     C_R   0.260595 0.499317 0.499934 0.861455
C13   C     C_R   0.528634 0.933222 0.619332 0.083867
C14   C     C_3   0.441967 0.919906 0.737875 -0.451360
C15   C     C_3   0.443338 0.061246 0.742004 -0.502388
C16   C     C_R   0.394427 0.462902 0.071734 0.158055
C17   C     C_R   0.599575 0.547267 0.071161 -0.121238
C18   C     C_R   0.599714 0.546968 0.927329 -0.133600
C19   C     C_R   0.394165 0.465137 0.928956 0.184718
C20   C     C_3   0.328943 0.342133 0.920956 -0.516151
C21   C     C_3   0.333026 0.335317 0.075072 -0.090766
C22   C     C_R   0.505438 0.740071 0.498531 0.864280
C23   C     C_R   0.739509 0.502467 0.500029 0.864134
C24   C     C_R   0.137091 0.737595 0.493746 -0.274505
C25   C     C_R   0.074440 0.852429 0.491305 0.172817
C26   C     C_R   0.942195 0.853263 0.491296 0.151854
C27   C     C_R   0.873971 0.739924 0.493863 -0.287152
C28   C     C_R   0.936837 0.624246 0.496875 0.062929
H1    H     H_    0.111196 0.304599 0.504949 0.145148
H2    H     H_    0.488676 0.875175 0.826987 0.207856
H3    H     H_    0.350016 0.103065 0.718602 0.197533
H4    H     H_    0.492483 0.096331 0.833505 0.199022
H5    H     H_    0.680852 0.583710 0.124641 0.157880
H6    H     H_    0.681200 0.582953 0.872772 0.154029
H7    H     H_    0.233245 0.351380 0.875698 0.208549
H8    H     H_    0.388901 0.272359 0.872901 0.196960
H9    H     H_    0.397523 0.262119 0.115513 0.171694
H10   H     H_    0.239099 0.738445 0.493524 0.136268
H11   H     H_    0.772095 0.743368 0.493524 0.140259
H12   H     H_    0.881317 0.306268 0.504984 0.148118
H13   H     H_    0.563715 0.122497 0.285007 0.172253
H14   H     H_    0.348193 0.879523 0.710768 0.199695
N1    N     N_R   0.499160 0.499140 0.142800 -0.116680
N2    N     N_R   0.499160 0.499180 0.857150 -0.103668
O1    O     O_R   0.500020 0.316790 0.614690 -0.615906
O2    O     O_R   0.500000 0.316760 0.385350 -0.630110
O3    O     O_R   0.316770 0.500020 0.614690 -0.610922
O4    O     O_R   0.316760 0.499980 0.385350 -0.630190
O5    O     O_R   0.500000 0.683240 0.614650 -0.621809
O6    O     O_R   0.499980 0.683210 0.385310 -0.584793
O7    O     O_R   0.683240 0.500020 0.614650 -0.621744
O8    O     O_R   0.683230 0.499980 0.385310 -0.620716
Zn1   Zn    Zn3+2 0.500010 0.500020 0.653130 0.940077
Zn2   Zn    Zn3+2 0.499990 0.499980 0.346870 0.944173
C29   C     C_3   0.201724 0.331230 0.141127 -0.332112
C30   C     C_3   0.135542 0.205371 0.120027 -0.868146
H15   H     H_    0.118508 0.189602 0.010667 0.260885
H16   H     H_    0.193770 0.128214 0.162317 0.264667
H17   H     H_    0.043174 0.204107 0.173012 0.255512
H18   H     H_    0.212297 0.343021 0.251485 0.235140
H19   H     H_    0.141647 0.407847 0.100470 0.210599
N3    N     N_3   0.144053 0.968682 0.487045 -0.450925
H20   H     H_    0.240835 0.952502 0.478816 0.177014
H21   H     H_    0.130647 0.012217 0.579738 0.179986
N4    N     N_3   0.877380 0.969911 0.487809 -0.458874
H22   H     H_    0.816877 0.971750 0.571220 0.182325
H23   H     H_    0.822166 0.973017 0.400072 0.192404
N5    N     N_3   0.572324 0.879801 0.248748 -0.424498
H24   H     H_    0.503117 0.910560 0.180660 0.185247
H25   H     H_    0.660239 0.908662 0.210817 0.170261

loop_
_geom_bond_atom_site_label_1
_geom_bond_atom_site_label_2
_ccdc_geom_bond_type
C24   H10   S    
C29   C30   S    
C17   N1    A    
C24   C25   A    
C15   H3    S    
C16   C21   S    
C18   N2    A    
C30   H16   S    
C1    C8    S    
C11   C13   A    
C9    C10   A    
N1    Zn2   S    
C23   O7    A    
C19   C20   S    
C30   H17   S    
O3    Zn1   S    
C22   O6    A    
O2    Zn2   S    
C7    C15   S    
C17   C18   A    
C23   O8    A    
O1    Zn1   S    
C7    C8    A    
O6    Zn2   S    
C14   H14   S    
C20   C21   S    
O4    Zn2   S    
C4    C5    A    
C18   H6    S    
C16   N1    A    
C1    O1    A    
C26   C27   A    
N3    H20   S    
C17   H5    S    
C14   H2    S    
C12   O3    A    
O5    Zn1   S    
C6    C23   S    
C29   H19   S    
C12   O4    A    
O8    Zn2   S    
C2    C3    A    
C10   N5    S    
C25   N3    S    
C16   C19   A    
C2    C24   A    
C5    C6    A    
C1    O2    A    
C2    C28   A    
C30   H15   S    
C3    C4    A    
C20   H8    S    
C7    C13   A    
C21   H9    S    
C19   N2    A    
N5    H25   S    
N4    H22   S    
C10   C11   A    
C5    H12   S    
C22   O5    A    
C27   C28   A    
C21   C29   S    
C14   C15   S    
N5    H24   S    
N3    H21   S    
C3    C12   S    
C11   C22   S    
C13   C14   S    
N4    H23   S    
C25   C26   A    
C29   H18   S    
C26   N4    S    
C9    H13   S    
N2    Zn1   S    
C20   H7    S    
C6    C28   A    
C4    H1    S    
C27   H11   S    
C8    C9    A    
O7    Zn1   S    
C15   H4    S    
