data_mof_unit_63304.cif
_audit_creation_date              2012-12-10T18:09:51-0500
_audit_creation_method            fapswitch 2.2
_symmetry_space_group_name_H-M    P1
_symmetry_Int_Tables_number       1
_space_group_crystal_system       triclinic
_cell_length_a                    21.606683
_cell_length_b                    21.606846
_cell_length_c                    32.093631
_cell_angle_alpha                 90.00064
_cell_angle_beta                  89.999838
_cell_angle_gamma                 89.99908
_cell_volume                      14982.984551

loop_
_atom_site_label
_atom_site_type_symbol
_atom_type_description
_atom_site_fract_x
_atom_site_fract_y
_atom_site_fract_z
_atom_type_partial_charge
C1    C     C_R   0.313445 0.499998 0.999993 -0.026634
C2    C     C_R   0.539000 0.217884 0.972590 -0.153565
C3    C     C_1   0.500002 0.000002 0.661955 0.287332
C4    C     C_1   0.500000 0.000003 0.838027 0.286143
C5    C     C_1   0.000025 0.499995 0.838043 0.286882
C6    C     C_1   0.500000 0.999999 0.161965 0.286969
C7    C     C_1   0.999996 0.500002 0.161971 0.286347
C8    C     C_1   0.999997 0.500001 0.124662 -0.062291
C9    C     C_1   0.500000 1.000000 0.124657 -0.061906
C10   C     C_1   0.000018 0.499999 0.875348 -0.062844
C11   C     C_1   0.500000 0.000002 0.875337 -0.062290
C12   C     C_1   0.500001 0.000001 0.624650 -0.061826
C13   C     C_R   0.782127 0.538778 0.972428 -0.158700
C14   C     C_1   0.999998 0.499995 0.624662 -0.062257
C15   C     C_1   0.500000 0.999999 0.375342 -0.062115
C16   C     C_1   0.000001 0.499999 0.375348 -0.061634
C17   C     C_R   0.461000 0.782115 0.972591 -0.153552
C18   C     C_R   0.217871 0.538799 0.027534 -0.153772
C19   C     C_R   0.538984 0.782114 0.027436 -0.156833
C20   C     C_R   0.782128 0.461200 0.027533 -0.153697
C21   C     C_R   0.461015 0.217887 0.027435 -0.156843
C22   C     C_R   0.717858 0.961423 0.472322 -0.155292
C23   C     C_R   0.038761 0.717871 0.472417 -0.158560
C24   C     C_R   0.282142 0.038575 0.472321 -0.155285
C25   C     C_R   0.499999 0.313454 0.000004 -0.026832
C26   C     C_R   0.961239 0.282128 0.472418 -0.158560
C27   C     C_R   0.717858 0.038560 0.527707 -0.158939
C28   C     C_R   0.038784 0.282129 0.527544 -0.153698
C29   C     C_R   0.282142 0.961441 0.527707 -0.158948
C30   C     C_R   0.961215 0.717872 0.527543 -0.153695
C31   C     C_R   0.281804 0.461917 0.971990 -0.160133
C32   C     C_R   0.538297 0.281813 0.972139 -0.159310
C33   C     C_R   0.718197 0.538083 0.971990 -0.159717
C34   C     C_R   0.461702 0.718186 0.972140 -0.159286
C35   C     C_R   0.281800 0.538095 0.027983 -0.159353
C36   C     C_R   0.686555 0.500002 0.999993 -0.026741
C37   C     C_R   0.538288 0.718184 0.027879 -0.160106
C38   C     C_R   0.718200 0.461904 0.027982 -0.159408
C39   C     C_R   0.461711 0.281817 0.027878 -0.160132
C40   C     C_R   0.781787 0.962127 0.471877 -0.158982
C41   C     C_R   0.038067 0.781801 0.471980 -0.159691
C42   C     C_R   0.218213 0.037871 0.471877 -0.158977
C43   C     C_R   0.961932 0.218198 0.471981 -0.159722
C44   C     C_R   0.781788 0.037864 0.528142 -0.159700
C45   C     C_R   0.038079 0.218200 0.527993 -0.158927
C46   C     C_R   0.218212 0.962136 0.528142 -0.159663
C47   C     C_R   0.500000 0.686546 0.000005 -0.026828
C48   C     C_R   0.961919 0.781801 0.527992 -0.158907
C49   C     C_R   0.120252 0.500000 0.999991 0.858821
C50   C     C_R   0.500000 0.120255 0.000006 0.858963
C51   C     C_R   0.879748 0.499999 0.999991 0.858462
C52   C     C_R   0.500000 0.879745 0.000006 0.858919
C53   C     C_R   0.620248 0.999999 0.500007 0.858682
C54   C     C_R   0.999999 0.620252 0.499991 0.858851
C55   C     C_R   0.379751 0.000001 0.500007 0.858637
C56   C     C_R   0.000001 0.379748 0.499991 0.858904
C57   C     C_R   0.999999 0.500000 0.080473 0.876472
C58   C     C_R   0.813435 0.000002 0.500005 -0.026718
C59   C     C_R   0.500000 1.000000 0.080472 0.877079
C60   C     C_R   0.000005 0.500000 0.919530 0.876964
C61   C     C_R   0.500000 0.000000 0.919527 0.876488
C62   C     C_R   0.500000 0.000000 0.580469 0.877294
C63   C     C_R   1.000000 0.499999 0.580473 0.876527
C64   C     C_R   0.500000 1.000000 0.419529 0.876769
C65   C     C_R   0.000000 0.500000 0.419530 0.877418
C66   C     C_R   0.032388 0.453122 0.271800 0.297125
C67   C     C_R   0.543059 0.037311 0.271790 0.296720
C68   C     C_R   0.967607 0.546875 0.271803 0.297099
C69   C     C_R   0.000001 0.813444 0.499993 -0.026874
C70   C     C_R   0.456939 0.962685 0.271789 0.296707
C71   C     C_R   0.040958 0.539605 0.728218 0.296306
C72   C     C_R   0.547804 0.968986 0.728194 0.297270
C73   C     C_R   0.959059 0.460364 0.728224 0.296396
C74   C     C_R   0.452202 0.031023 0.728194 0.297239
C75   C     C_R   0.542196 0.961707 0.771775 0.296251
C76   C     C_R   0.046802 0.532508 0.771798 0.297271
C77   C     C_R   0.457809 0.038302 0.771775 0.296299
C78   C     C_R   0.953236 0.467455 0.771807 0.296869
C79   C     C_R   0.536499 0.043750 0.228209 0.296819
C80   C     C_R   0.186565 0.999998 0.500005 -0.026733
C81   C     C_R   0.039501 0.458940 0.228220 0.296411
C82   C     C_R   0.463499 0.956247 0.228209 0.296803
C83   C     C_R   0.960492 0.541059 0.228223 0.296430
C84   C     C_R   0.999999 0.499999 0.293390 -0.253547
C85   C     C_R   0.499999 0.999998 0.293380 -0.253725
C86   C     C_R   0.000002 0.499988 0.706629 -0.253910
C87   C     C_R   0.500002 0.000004 0.706607 -0.253436
C88   C     C_R   0.500001 0.000004 0.793368 -0.254028
C89   C     C_R   0.000022 0.499986 0.793390 -0.253227
C90   C     C_R   0.499999 0.999999 0.206619 -0.253690
C91   C     C_R   0.999998 0.186555 0.499994 -0.026861
C92   C     C_R   0.999996 0.500001 0.206629 -0.253930
C93   C     C_R   0.186285 0.500005 0.999984 -0.020453
C94   C     C_R   0.500004 0.186294 0.000010 -0.021263
C95   C     C_R   0.813715 0.499994 0.999984 -0.020633
C96   C     C_R   0.499996 0.813706 0.000011 -0.021279
C97   C     C_R   0.686275 0.999995 0.500012 -0.019839
C98   C     C_R   0.999993 0.686284 0.499983 -0.020596
C99   C     C_R   0.313725 0.000005 0.500012 -0.019861
C100  C     C_R   0.000007 0.313715 0.499984 -0.020573
C101  C     C_R   0.500003 0.620441 0.000001 0.858848
C102  C     C_R   0.217873 0.461222 0.972428 -0.158640
C103  C     C_R   0.379556 0.499995 0.999999 0.858754
C104  C     C_R   0.499997 0.379559 0.000000 0.858855
C105  C     C_R   0.620444 0.500004 0.999999 0.858761
C106  C     C_R   0.999995 0.120444 0.499999 0.858776
C107  C     C_R   0.879552 0.000003 0.500001 0.858689
C108  C     C_R   0.000004 0.879556 0.499999 0.858778
C109  C     C_R   0.120448 0.999996 0.500001 0.858691
C110  C     C_1   0.000000 0.499998 0.338042 0.287353
C111  C     C_1   0.500000 0.999998 0.338035 0.286755
C112  C     C_1   0.999997 0.499990 0.661971 0.286308
H1    H     H_    0.193083 0.431423 0.950994 0.163117
H2    H     H_    0.068548 0.693079 0.450976 0.163208
H3    H     H_    0.306937 0.068212 0.450789 0.162749
H4    H     H_    0.931452 0.306919 0.450977 0.163202
H5    H     H_    0.693062 0.068188 0.549246 0.162938
H6    H     H_    0.068585 0.306920 0.548976 0.162473
H7    H     H_    0.306938 0.931814 0.549246 0.162945
H8    H     H_    0.931414 0.693082 0.548975 0.162478
H9    H     H_    0.306539 0.432246 0.950449 0.160908
H10   H     H_    0.568126 0.306549 0.950699 0.160745
H11   H     H_    0.693461 0.567754 0.950450 0.160991
H12   H     H_    0.568971 0.193097 0.951264 0.162502
H13   H     H_    0.431873 0.693449 0.950700 0.160720
H14   H     H_    0.306532 0.567769 0.049523 0.160689
H15   H     H_    0.568114 0.693445 0.049320 0.160635
H16   H     H_    0.693468 0.432231 0.049521 0.160691
H17   H     H_    0.431885 0.306556 0.049319 0.160634
H18   H     H_    0.806516 0.932622 0.450231 0.161346
H19   H     H_    0.067726 0.806534 0.450432 0.161221
H20   H     H_    0.193485 0.067376 0.450230 0.161348
H21   H     H_    0.932274 0.193464 0.450433 0.161214
H22   H     H_    0.806517 0.067368 0.549789 0.161188
H23   H     H_    0.806917 0.568577 0.950995 0.163178
H24   H     H_    0.067740 0.193469 0.549541 0.161038
H25   H     H_    0.193482 0.932634 0.549789 0.161198
H26   H     H_    0.932258 0.806533 0.549539 0.161042
H27   H     H_    0.150840 0.431581 0.143896 0.385105
H28   H     H_    0.551570 0.157366 0.143859 0.383892
H29   H     H_    0.849055 0.568396 0.143945 0.385151
H30   H     H_    0.448374 0.842731 0.143809 0.383854
H31   H     H_    0.161083 0.537713 0.856268 0.382774
H32   H     H_    0.572769 0.851100 0.856044 0.385544
H33   H     H_    0.840490 0.461490 0.857015 0.382045
H34   H     H_    0.431029 0.806901 0.951265 0.162499
H35   H     H_    0.427273 0.149039 0.855987 0.385584
H36   H     H_    0.662070 0.967330 0.643657 0.382343
H37   H     H_    0.068003 0.651044 0.643907 0.385174
H38   H     H_    0.338073 0.032765 0.643588 0.382274
H39   H     H_    0.931996 0.348852 0.643945 0.385227
H40   H     H_    0.656308 0.054526 0.356171 0.384132
H41   H     H_    0.037213 0.338715 0.356214 0.382878
H42   H     H_    0.343739 0.945448 0.356194 0.384115
H43   H     H_    0.962720 0.661169 0.356275 0.382823
H44   H     H_    0.193080 0.568612 0.048958 0.162387
H45   H     H_    0.568946 0.806900 0.048768 0.163065
H46   H     H_    0.806920 0.431387 0.048957 0.162405
H47   H     H_    0.431053 0.193102 0.048767 0.163061
H48   H     H_    0.693063 0.931786 0.450789 0.162746
O1    O     O_R   0.091640 0.551640 0.999920 -0.613297
O2    O     O_R   0.948360 0.591640 0.499920 -0.613340
O3    O     O_R   0.408360 0.948360 0.499920 -0.613424
O4    O     O_R   0.051640 0.408360 0.499920 -0.613331
O5    O     O_R   0.591640 0.948360 0.500080 -0.613145
O6    O     O_R   0.948360 0.408360 0.500080 -0.613725
O7    O     O_R   0.408360 0.051640 0.500080 -0.613162
O8    O     O_R   0.051640 0.591640 0.500080 -0.613734
O9    O     O_R   0.000010 0.551640 0.060910 -0.601385
O10   O     O_R   0.448360 0.000010 0.060910 -0.601584
O11   O     O_R   0.999990 0.448360 0.060910 -0.601395
O12   O     O_R   0.448360 0.091640 0.999920 -0.613935
O13   O     O_R   0.551640 0.999990 0.060910 -0.601555
O14   O     O_R   0.000010 0.448360 0.939090 -0.601945
O15   O     O_R   0.448360 0.999990 0.939090 -0.601300
O16   O     O_R   0.999990 0.551640 0.939090 -0.601538
O17   O     O_R   0.551640 0.000010 0.939090 -0.601347
O18   O     O_R   0.500010 0.051640 0.560910 -0.601856
O19   O     O_R   0.948360 0.500010 0.560910 -0.601453
O20   O     O_R   0.499990 0.948360 0.560910 -0.601819
O21   O     O_R   0.051640 0.499990 0.560910 -0.601484
O22   O     O_R   0.500010 0.948360 0.439090 -0.601685
O23   O     O_R   0.908360 0.448360 0.999920 -0.613466
O24   O     O_R   0.948360 0.499990 0.439090 -0.601797
O25   O     O_R   0.499990 0.051640 0.439090 -0.601666
O26   O     O_R   0.051640 0.500010 0.439090 -0.601770
O27   O     O_R   0.500000 0.591640 0.965510 -0.614682
O28   O     O_R   0.408360 0.500000 0.965510 -0.614784
O29   O     O_R   0.500000 0.408360 0.965510 -0.614689
O30   O     O_R   0.591640 0.500000 0.965510 -0.614695
O31   O     O_R   0.500000 0.408360 0.034490 -0.614889
O32   O     O_R   0.408360 0.500000 0.034490 -0.614973
O33   O     O_R   0.500000 0.591640 0.034490 -0.614888
O34   O     O_R   0.551640 0.908360 0.999920 -0.613945
O35   O     O_R   0.591640 0.500000 0.034490 -0.614984
O36   O     O_R   0.000000 0.091640 0.465510 -0.614630
O37   O     O_R   0.908360 0.000000 0.465510 -0.614749
O38   O     O_R   0.000000 0.908360 0.465510 -0.614625
O39   O     O_R   0.091640 0.000000 0.465510 -0.614746
O40   O     O_R   0.000000 0.908360 0.534490 -0.614761
O41   O     O_R   0.908360 0.000000 0.534490 -0.614811
O42   O     O_R   0.000000 0.091640 0.534490 -0.614766
O43   O     O_R   0.091640 0.000000 0.534490 -0.614806
O44   O     O_2   0.151785 0.401814 0.228230 -0.176528
O45   O     O_R   0.091640 0.448360 0.000080 -0.613713
O46   O     O_2   0.070468 0.358924 0.183275 -0.243526
O47   O     O_3   0.125341 0.460389 0.160683 -0.578775
O48   O     O_2   0.581022 0.161599 0.228221 -0.176686
O49   O     O_2   0.632543 0.085451 0.183270 -0.244077
O50   O     O_3   0.525697 0.128921 0.160667 -0.579329
O51   O     O_2   0.848200 0.598164 0.228240 -0.176648
O52   O     O_2   0.929509 0.641084 0.183291 -0.243414
O53   O     O_3   0.874655 0.539616 0.160682 -0.578810
O54   O     O_2   0.418962 0.838402 0.228213 -0.176578
O55   O     O_2   0.367445 0.914564 0.183271 -0.244157
O56   O     O_R   0.448360 0.908360 0.000080 -0.613623
O57   O     O_3   0.474286 0.871084 0.160660 -0.579303
O58   O     O_2   0.168104 0.566532 0.771796 -0.176381
O59   O     O_2   0.096750 0.624548 0.816724 -0.244987
O60   O     O_3   0.130691 0.514317 0.839358 -0.579190
O61   O     O_2   0.602546 0.851124 0.771759 -0.176307
O62   O     O_2   0.643084 0.933648 0.816705 -0.243470
O63   O     O_3   0.543257 0.875862 0.839313 -0.578416
O64   O     O_2   0.831948 0.433302 0.771863 -0.174578
O65   O     O_2   0.903429 0.375386 0.816752 -0.246497
O66   O     O_3   0.869380 0.485605 0.839386 -0.578565
O67   O     O_R   0.908360 0.551640 0.000080 -0.613673
O68   O     O_2   0.397475 0.148891 0.771759 -0.176488
O69   O     O_2   0.356919 0.066374 0.816703 -0.243364
O70   O     O_3   0.456751 0.124146 0.839316 -0.578461
O71   O     O_2   0.670125 0.938812 0.728180 -0.175965
O72   O     O_2   0.600628 0.878570 0.683264 -0.245619
O73   O     O_3   0.631068 0.989817 0.660625 -0.579165
O74   O     O_2   0.097780 0.652042 0.728227 -0.176027
O75   O     O_2   0.140888 0.570841 0.683270 -0.243917
O76   O     O_3   0.039272 0.625443 0.660682 -0.578591
O77   O     O_2   0.329884 0.061216 0.728176 -0.175815
O78   O     O_R   0.551640 0.091640 0.000080 -0.613613
O79   O     O_2   0.399395 0.121447 0.683265 -0.245764
O80   O     O_3   0.368940 0.010203 0.660623 -0.579111
O81   O     O_2   0.902307 0.347896 0.728239 -0.176172
O82   O     O_2   0.859089 0.429091 0.683326 -0.243803
O83   O     O_3   0.960706 0.374559 0.660663 -0.578667
O84   O     O_2   0.660049 0.084052 0.271783 -0.175833
O85   O     O_2   0.582941 0.134114 0.316739 -0.244603
O86   O     O_3   0.628420 0.028101 0.339328 -0.579032
O87   O     O_2   0.066083 0.331730 0.271800 -0.175968
O88   O     O_2   0.124287 0.402924 0.316732 -0.245344
O89   O     O_R   0.591640 0.051640 0.499920 -0.613422
O90   O     O_3   0.013962 0.369287 0.339361 -0.579206
O91   O     O_2   0.339946 0.915950 0.271784 -0.175777
O92   O     O_2   0.417057 0.865878 0.316732 -0.244642
O93   O     O_3   0.371584 0.971891 0.339333 -0.579018
O94   O     O_2   0.933887 0.668263 0.271812 -0.175829
O95   O     O_2   0.875705 0.597051 0.316743 -0.245459
O96   O     O_3   0.986028 0.630708 0.339365 -0.579160
S1    S     S_3+6 0.098088 0.417482 0.200409 0.102700
S2    S     S_3+6 0.082255 0.598303 0.700406 0.102827
S3    S     S_3+6 0.385751 0.058139 0.700371 0.101710
S4    S     S_3+6 0.917761 0.401657 0.700420 0.102785
S5    S     S_3+6 0.605156 0.073300 0.299603 0.102446
S6    S     S_3+6 0.061400 0.387474 0.299617 0.101855
S7    S     S_3+6 0.394843 0.926696 0.299603 0.102456
S8    S     S_3+6 0.938586 0.612516 0.299624 0.101881
S9    S     S_3+6 0.571315 0.106513 0.200398 0.102138
S10   S     S_3+6 0.901899 0.582515 0.200415 0.102685
S11   S     S_3+6 0.428673 0.893491 0.200395 0.102159
S12   S     S_3+6 0.112372 0.561702 0.799613 0.101844
S13   S     S_3+6 0.585342 0.904348 0.799582 0.102930
S14   S     S_3+6 0.887710 0.438213 0.799644 0.102168
S15   S     S_3+6 0.414667 0.095665 0.799582 0.102885
S16   S     S_3+6 0.614260 0.941879 0.700372 0.101687
Zn1   Zn    Zn3+2 0.000000 0.568980 0.000000 1.046746
Zn2   Zn    Zn3+2 0.500000 0.500000 0.046050 1.023101
Zn3   Zn    Zn3+2 0.000000 0.000000 0.453950 1.025200
Zn4   Zn    Zn3+2 0.000000 0.000000 0.546050 1.024634
Zn5   Zn    Zn3+2 0.431020 0.000000 0.000000 1.046550
Zn6   Zn    Zn3+2 0.000000 0.431020 0.000000 1.046442
Zn7   Zn    Zn3+2 0.568980 0.000000 0.000000 1.046543
Zn8   Zn    Zn3+2 0.500000 0.068980 0.500000 1.046602
Zn9   Zn    Zn3+2 0.931020 0.500000 0.500000 1.046456
Zn10  Zn    Zn3+2 0.500000 0.931020 0.500000 1.046619
Zn11  Zn    Zn3+2 0.068980 0.500000 0.500000 1.046454
Zn12  Zn    Zn3+2 0.500000 0.500000 0.953950 1.024102

loop_
_geom_bond_atom_site_label_1
_geom_bond_atom_site_label_2
_ccdc_geom_bond_type
H42   O93   S    
O39   Zn3   S    
O28   Zn12  S    
C42   C80   A    
C42   H20   S    
C63   O21   A    
O81   S4    D    
O76   S2    S    
C24   C99   A    
C60   O14   A    
O56   Zn5   S    
C5    C89   S    
C10   C60   S    
C61   O15   A    
C55   O7    A    
C48   C69   A    
O85   S5    D    
O16   Zn1   S    
C34   C47   A    
O73   S16   S    
C73   S4    S    
H28   O50   S    
C7    C8    T    
C74   S3    S    
C71   S2    S    
C61   O17   A    
C83   C92   A    
C29   H7    S    
C49   C93   S    
O80   S3    S    
C22   H48   S    
O54   S11   D    
C13   C95   A    
C47   C101  S    
O79   S3    D    
O63   S13   S    
C51   O23   A    
C34   H13   S    
C62   O20   A    
C71   C76   A    
O37   Zn3   S    
H35   O70   S    
C59   O13   A    
C53   O5    A    
C21   C94   A    
C7    C92   S    
O48   S9    D    
O47   S1    S    
O29   Zn12  S    
C52   O56   A    
C33   C36   A    
C12   C62   S    
C28   H6    S    
C2    C32   A    
C58   C107  S    
H43   O96   S    
C43   H21   S    
O10   Zn5   S    
O90   S6    S    
C79   C90   A    
C3    C12   T    
C19   C37   A    
O92   S7    D    
O32   Zn2   S    
H31   O60   S    
C81   C92   A    
C27   C44   A    
O19   Zn9   S    
C77   C88   A    
C44   C58   A    
O24   Zn9   S    
O57   S11   S    
C74   C77   A    
C51   C95   S    
C80   C109  S    
O77   S3    D    
O58   S12   D    
C73   C78   A    
C77   S15   S    
C82   S11   S    
C68   S8    S    
C74   C87   A    
C37   C47   A    
C59   O10   A    
C18   C35   A    
C1    C103  S    
O31   Zn2   S    
H40   O86   S    
C64   O25   A    
C76   C89   A    
O20   Zn10  S    
C64   O22   A    
C28   C100  A    
C25   C32   A    
O15   Zn5   S    
C14   C112  T    
O52   S10   D    
O34   Zn7   S    
C78   C89   A    
C22   C97   A    
C20   H46   S    
C108  O38   A    
O62   S13   D    
C91   C106  S    
O82   S4    D    
C6    C9    T    
C72   C75   A    
C45   C91   A    
O5    Zn10  S    
C67   S5    S    
C69   C108  S    
C101  O33   A    
C26   C43   A    
C57   O9    A    
C27   H5    S    
C1    C31   A    
C44   H22   S    
C70   S7    S    
O65   S14   D    
C28   C45   A    
C67   C85   A    
H37   O76   S    
C40   C58   A    
C29   C99   A    
C16   C110  T    
O59   S12   D    
C19   H45   S    
C31   C102  A    
C32   H10   S    
C2    C94   A    
C52   O34   A    
C31   H9    S    
C66   S6    S    
O78   Zn7   S    
C13   H23   S    
H29   O53   S    
C103  O32   A    
C41   H19   S    
C50   C94   S    
C106  O36   A    
O38   Zn3   S    
C39   H17   S    
C85   C111  S    
O33   Zn2   S    
C6    C90   S    
C104  O31   A    
C3    C87   S    
O53   S10   S    
O51   S10   D    
C43   C91   A    
O4    Zn11  S    
C9    C59   S    
C66   C84   A    
C68   C84   A    
C108  O40   A    
C35   H14   S    
C86   C112  S    
H30   O57   S    
C62   O18   A    
C21   H47   S    
C15   C111  T    
C8    C57   S    
C106  O42   A    
C71   C86   A    
C20   C38   A    
O44   S1    D    
C21   C39   A    
O3    Zn10  S    
C50   O78   A    
C15   C64   S    
C22   C40   A    
O71   S16   D    
O35   Zn2   S    
O72   S16   D    
O9    Zn1   S    
C25   C104  S    
C17   C96   A    
C53   O89   A    
C54   O2    A    
C4    C11   T    
C37   H15   S    
C24   C42   A    
O36   Zn3   S    
O11   Zn6   S    
O1    Zn1   S    
O6    Zn9   S    
C46   H25   S    
C4    C88   S    
H27   O47   S    
O42   Zn4   S    
O14   Zn6   S    
C20   C95   A    
C49   O45   A    
O50   S9    S    
H38   O80   S    
O96   S8    S    
C51   O67   A    
C60   O16   A    
C109  O39   A    
C17   C34   A    
C56   C100  S    
C55   C99   S    
O60   S12   S    
O25   Zn8   S    
H36   O73   S    
C72   C87   A    
O61   S13   D    
C1    C35   A    
O23   Zn6   S    
C107  O37   A    
H41   O90   S    
O2    Zn9   S    
C30   C48   A    
C105  O35   A    
O88   S6    D    
C40   H18   S    
C65   O26   A    
C27   C97   A    
C109  O43   A    
O86   S5    S    
C36   C105  S    
C41   C69   A    
C68   C83   A    
C49   O1    A    
C105  O30   A    
O46   S1    D    
C83   S10   S    
C26   C100  A    
C103  O28   A    
O12   Zn5   S    
C18   H44   S    
C54   O8    A    
C11   C61   S    
O68   S15   D    
C82   C90   A    
C93   C102  A    
O22   Zn10  S    
C38   H16   S    
O27   Zn12  S    
O8    Zn11  S    
O21   Zn11  S    
O84   S5    D    
C2    H12   S    
O43   Zn4   S    
C75   S13   S    
H33   O66   S    
C30   C98   A    
C81   S1    S    
C23   C41   A    
O89   Zn8   S    
C48   H26   S    
C29   C46   A    
C53   C97   S    
C36   C38   A    
C17   H34   S    
O67   Zn1   S    
C55   O3    A    
C5    C10   T    
C102  H1    S    
C101  O27   A    
O66   S14   S    
C23   H2    S    
C46   C80   A    
O69   S15   D    
O93   S7    S    
C30   H8    S    
O75   S2    D    
C14   C63   S    
C76   S12   S    
O40   Zn4   S    
C79   S9    S    
C84   C110  S    
O30   Zn12  S    
C52   C96   S    
O83   S4    S    
C78   S14   S    
C107  O41   A    
C45   H24   S    
C70   C82   A    
C26   H4    S    
C73   C86   A    
O87   S6    D    
O26   Zn11  S    
O17   Zn7   S    
O41   Zn4   S    
O94   S8    D    
O18   Zn8   S    
C75   C88   A    
C23   C98   A    
O55   S11   D    
O95   S8    D    
H39   O83   S    
C24   H3    S    
C66   C81   A    
C13   C33   A    
O70   S15   S    
C63   O19   A    
C56   O6    A    
C33   H11   S    
C18   C93   A    
O74   S2    D    
C54   C98   S    
C50   O12   A    
C16   C65   S    
O64   S14   D    
O13   Zn7   S    
O49   S9    D    
C70   C85   A    
C104  O29   A    
O7    Zn8   S    
C72   S16   S    
C67   C79   A    
C25   C39   A    
C19   C96   A    
O45   Zn6   S    
O91   S7    D    
C56   O4    A    
C57   O11   A    
C65   O24   A    
H32   O63   S    
