data_mof_unit_8345.cif
_audit_creation_date              2012-12-10T18:21:14-0500
_audit_creation_method            fapswitch 2.2
_symmetry_space_group_name_H-M    P1
_symmetry_Int_Tables_number       1
_space_group_crystal_system       triclinic
_cell_length_a                    14.937857
_cell_length_b                    14.007155
_cell_length_c                    10.627309
_cell_angle_alpha                 89.760336
_cell_angle_beta                  91.579772
_cell_angle_gamma                 90.041528
_cell_volume                      2222.75992477

loop_
_atom_site_label
_atom_site_type_symbol
_atom_type_description
_atom_site_fract_x
_atom_site_fract_y
_atom_site_fract_z
_atom_type_partial_charge
C1    C     C_R   0.326685 0.500200 0.497540 0.872205
C2    C     C_R   0.050831 0.646626 0.621442 -0.248616
C3    C     C_R   0.095192 0.578602 0.550479 0.138507
C4    C     C_R   0.499873 0.499954 0.257487 0.872099
C5    C     C_R   0.046656 0.512138 0.476091 0.089910
C6    C     C_R   0.091408 0.443164 0.404497 0.112666
C7    C     C_R   0.042549 0.379756 0.327567 -0.226841
C8    C     C_R   0.949282 0.382013 0.325629 -0.194982
C9    C     C_R   0.187468 0.574110 0.555568 -0.272999
C10   C     C_R   0.231127 0.502532 0.490405 -0.070478
C11   C     C_R   0.184211 0.437980 0.413548 -0.284353
C12   C     C_3   0.567142 0.574423 0.930717 -0.409165
C13   C     C_R   0.550544 0.798115 0.588055 -0.055230
C14   C     C_R   0.549186 0.201413 0.589430 -0.065845
C15   C     C_R   0.448324 0.797933 0.413187 0.000301
C16   C     C_R   0.451036 0.202452 0.409738 -0.007464
C17   C     C_R   0.446290 0.898785 0.410616 -0.149317
C18   C     C_R   0.449164 0.101511 0.406836 -0.149736
C19   C     C_R   0.673524 0.500119 0.500168 0.951923
C20   C     C_R   0.498980 0.949421 0.499717 0.004466
C21   C     C_R   0.499043 0.050588 0.499425 0.009001
C22   C     C_R   0.550927 0.898730 0.590388 0.065124
C23   C     C_R   0.812035 0.444324 0.409102 -0.349809
C24   C     C_R   0.550066 0.100849 0.591115 0.079782
C25   C     C_R   0.392292 0.949486 0.322295 0.373993
C26   C     C_R   0.399322 0.050641 0.313948 0.332454
C27   C     C_R   0.600806 0.049683 0.681904 -0.214364
C28   C     C_R   0.601529 0.949501 0.681226 -0.202780
C29   C     C_R   0.500552 0.499713 0.742506 0.885817
C30   C     C_3   0.404977 0.527479 0.067848 0.311760
C31   C     C_3   0.522686 0.396882 0.073044 0.314698
C32   C     C_3   0.405127 0.523707 0.922739 -0.452280
C33   C     C_3   0.526835 0.398724 0.929834 -0.490437
C34   C     C_R   0.769459 0.501624 0.496254 -0.180301
C35   C     C_3   0.571071 0.570808 0.074308 -0.364134
C36   C     C_3   0.499947 0.499265 0.121027 0.031647
C37   C     C_3   0.500056 0.499005 0.878714 0.061610
C38   C     C_3   0.298132 0.625293 0.162446 0.133128
C39   C     C_3   0.221208 0.621819 0.063903 -0.391358
C40   C     C_3   0.130889 0.635764 0.124948 -0.942225
C41   C     C_3   0.606227 0.263820 0.136560 0.108672
C42   C     C_3   0.689498 0.231584 0.211434 -0.334171
C43   C     C_3   0.694071 0.122919 0.220643 -0.975946
C44   C     C_3   0.245497 0.913601 0.270583 0.093300
C45   C     C_R   0.818118 0.561876 0.577990 0.447285
C46   C     C_3   0.219866 0.857653 0.389150 -0.413936
C47   C     C_3   0.119738 0.865135 0.411934 -0.930765
C48   C     C_3   0.400434 0.084693 0.104101 0.093277
C49   C     C_3   0.362026 0.151383 0.002100 -0.355165
C50   C     C_3   0.411533 0.140795 0.879055 -0.967711
C51   C     C_3   0.806275 0.555036 0.793245 0.037574
C52   C     C_3   0.774848 0.450425 0.799862 -0.398062
C53   C     C_3   0.789790 0.408599 0.931645 -0.933586
C54   C     C_R   0.909527 0.574422 0.559745 0.000211
C55   C     C_R   0.953475 0.511969 0.477890 -0.007660
C56   C     C_R   0.904648 0.445931 0.403209 0.124514
C57   C     C_R   0.958220 0.644733 0.625881 -0.209761
H1    H     H_    0.087826 0.698885 0.677008 0.145333
H2    H     H_    0.640172 0.087169 0.753208 0.132305
H3    H     H_    0.641486 0.911721 0.751958 0.140093
H4    H     H_    0.356589 0.472222 0.100497 0.011166
H5    H     H_    0.465604 0.349860 0.099226 0.040194
H6    H     H_    0.356469 0.468822 0.888247 0.123597
H7    H     H_    0.480374 0.343187 0.891479 0.167210
H8    H     H_    0.382908 0.593371 0.881752 0.207512
H9    H     H_    0.595092 0.379852 0.899542 0.207843
H10   H     H_    0.559000 0.643814 0.111148 0.215021
H11   H     H_    0.639161 0.548952 0.108311 0.181572
H12   H     H_    0.225447 0.624407 0.613334 0.153142
H13   H     H_    0.546655 0.647407 0.899546 0.201402
H14   H     H_    0.634376 0.561194 0.894444 0.182026
H15   H     H_    0.773104 0.397743 0.347741 0.178026
H16   H     H_    0.924975 0.696248 0.684284 0.176244
H17   H     H_    0.294276 0.694355 0.212189 0.180158
H18   H     H_    0.290773 0.568632 0.235210 0.110155
H19   H     H_    0.230787 0.678995 0.992679 0.232567
H20   H     H_    0.220760 0.551838 0.015143 0.210604
H21   H     H_    0.119550 0.578728 0.195603 0.276570
H22   H     H_    0.076473 0.632491 0.051775 0.262135
H23   H     H_    0.219987 0.384965 0.360357 0.151471
H24   H     H_    0.128416 0.706396 0.171775 0.263614
H25   H     H_    0.606611 0.231680 0.040965 0.124897
H26   H     H_    0.547124 0.237520 0.187784 0.141898
H27   H     H_    0.750485 0.258827 0.165585 0.216814
H28   H     H_    0.687218 0.261086 0.308153 0.235816
H29   H     H_    0.634475 0.094612 0.268851 0.267608
H30   H     H_    0.755100 0.101664 0.275790 0.271655
H31   H     H_    0.697047 0.091141 0.125254 0.259727
H32   H     H_    0.203679 0.887264 0.189906 0.165110
H33   H     H_    0.228784 0.990527 0.281210 0.175763
H34   H     H_    0.076388 0.327734 0.270582 0.149824
H35   H     H_    0.237797 0.781242 0.379192 0.225629
H36   H     H_    0.257002 0.886487 0.472677 0.220110
H37   H     H_    0.100034 0.941045 0.422788 0.262544
H38   H     H_    0.103675 0.826014 0.499447 0.271202
H39   H     H_    0.080582 0.833291 0.332268 0.262829
H40   H     H_    0.390933 0.009911 0.071579 0.193282
H41   H     H_    0.473559 0.098988 0.116294 0.114493
H42   H     H_    0.289968 0.134713 0.984957 0.230753
H43   H     H_    0.367424 0.226449 0.034485 0.208864
H44   H     H_    0.483633 0.158134 0.893610 0.249732
H45   H     H_    0.912162 0.331789 0.266986 0.143215
H46   H     H_    0.382521 0.190517 0.807237 0.272141
H47   H     H_    0.405022 0.066676 0.843134 0.276339
H48   H     H_    0.779481 0.595472 0.873395 0.164626
H49   H     H_    0.880181 0.557633 0.807453 0.145557
H50   H     H_    0.702952 0.445697 0.771897 0.218361
H51   H     H_    0.812965 0.406613 0.732827 0.218118
H52   H     H_    0.862106 0.410346 0.958827 0.261582
H53   H     H_    0.766493 0.333314 0.932996 0.263448
H54   H     H_    0.751693 0.449556 0.001466 0.285399
H55   H     H_    0.590287 0.757863 0.656508 0.148065
H56   H     H_    0.587678 0.241266 0.659287 0.125533
H57   H     H_    0.409193 0.756950 0.345683 0.175280
H58   H     H_    0.413101 0.243676 0.340401 0.160446
N1    N     N_R   0.500070 0.750030 0.500050 -0.119485
N2    N     N_R   0.500070 0.249970 0.500050 -0.112473
O1    O     O_R   0.367860 0.580280 0.500020 -0.637262
O2    O     O_3   0.605548 0.364595 0.127147 -0.630051
O3    O     O_3   0.336286 0.899005 0.240244 -0.660989
O4    O     O_3   0.355301 0.100162 0.217551 -0.662137
O5    O     O_3   0.776395 0.601691 0.680425 -0.656039
O6    O     O_R   0.367860 0.419720 0.500020 -0.619263
O7    O     O_R   0.500000 0.580270 0.314790 -0.611023
O8    O     O_R   0.500000 0.419730 0.314790 -0.626867
O9    O     O_R   0.632160 0.580270 0.499960 -0.587167
O10   O     O_R   0.632160 0.419730 0.499960 -0.633340
O11   O     O_R   0.500030 0.580270 0.685200 -0.626584
O12   O     O_R   0.500030 0.419730 0.685200 -0.634509
O13   O     O_3   0.382678 0.621647 0.105715 -0.623280
Zn1   Zn    Zn3+2 0.500020 0.607200 0.499990 0.953749
Zn2   Zn    Zn3+2 0.500020 0.392800 0.499990 0.933654

loop_
_geom_bond_atom_site_label_1
_geom_bond_atom_site_label_2
_ccdc_geom_bond_type
C53   H53   S    
C55   C56   A    
C4    C36   S    
C50   H47   S    
O6    Zn2   S    
C18   C21   A    
C41   C42   S    
C35   C36   S    
C18   C26   A    
C24   C27   A    
C8    C56   A    
C2    C57   A    
C7    C8    A    
C48   H40   S    
N1    Zn1   S    
C4    O8    A    
C43   H31   S    
C38   O13   S    
C9    H12   S    
C13   H55   S    
C51   H49   S    
C38   C39   S    
C46   H35   S    
C44   O3    S    
C14   C24   A    
C41   H26   S    
C17   C20   A    
C35   H11   S    
C4    O7    A    
C57   H16   S    
C12   C37   S    
N2    Zn2   S    
O10   Zn2   S    
O1    Zn1   S    
C46   C47   S    
C29   O12   A    
C52   H50   S    
C47   H39   S    
C31   C33   S    
C26   O4    S    
C9    C10   A    
O12   Zn2   S    
C53   H54   S    
C50   H46   S    
C22   C28   A    
C31   H5    S    
C40   H24   S    
C44   C46   S    
C33   H9    S    
C38   H18   S    
C28   H3    S    
C40   H22   S    
C51   C52   S    
C23   C56   A    
C42   H27   S    
C11   H23   S    
C6    C11   A    
C42   H28   S    
C25   C26   A    
C39   H19   S    
C16   H58   S    
C33   C37   S    
O7    Zn1   S    
C25   O3    S    
C1    O6    A    
C3    C9    A    
C49   H42   S    
C35   H10   S    
C51   H48   S    
C14   N2    A    
C7    H34   S    
C15   H57   S    
C34   C45   A    
C32   C37   S    
C41   O2    S    
C12   C35   S    
C31   O2    S    
C48   C49   S    
C12   H14   S    
C20   C22   A    
C45   C54   A    
C40   H21   S    
C29   O11   A    
C42   C43   S    
C21   C24   A    
O11   Zn1   S    
C39   H20   S    
C48   O4    S    
C44   H33   S    
C52   C53   S    
C38   H17   S    
C53   H52   S    
C15   C17   A    
C12   H13   S    
C54   C55   A    
C23   C34   A    
C15   N1    A    
C43   H29   S    
C23   H15   S    
C5    C55   A    
C1    C10   S    
C32   H6    S    
C3    C5    A    
C19   C34   S    
C2    H1    S    
C6    C7    A    
C45   O5    S    
C14   H56   S    
C48   H41   S    
C19   O9    A    
C30   C36   S    
C43   H30   S    
C2    C3    A    
C17   C25   A    
C30   O13   S    
C16   N2    A    
C49   H43   S    
C30   C32   S    
O8    Zn2   S    
C5    C6    A    
C46   H36   S    
O9    Zn1   S    
C33   H7    S    
C41   H25   S    
C19   O10   A    
C47   H37   S    
C13   C22   A    
C1    O1    A    
C13   N1    A    
C10   C11   A    
C39   C40   S    
C20   C21   A    
C52   H51   S    
C50   H44   S    
C16   C18   A    
C49   C50   S    
C30   H4    S    
C29   C37   S    
C27   C28   A    
C51   O5    S    
C47   H38   S    
C31   C36   S    
C27   H2    S    
C8    H45   S    
C44   H32   S    
C32   H8    S    
C54   C57   A    
