data_mof_unit_40391.cif
_audit_creation_date              2012-12-10T18:13:52-0500
_audit_creation_method            fapswitch 2.2
_symmetry_space_group_name_H-M    P1
_symmetry_Int_Tables_number       1
_space_group_crystal_system       triclinic
_cell_length_a                    11.359048
_cell_length_b                    9.857438
_cell_length_c                    23.307074
_cell_angle_alpha                 90.096492
_cell_angle_beta                  92.196342
_cell_angle_gamma                 91.168311
_cell_volume                      2607.2517223

loop_
_atom_site_label
_atom_site_type_symbol
_atom_type_description
_atom_site_fract_x
_atom_site_fract_y
_atom_site_fract_z
_atom_type_partial_charge
C1    C     C_R   0.263663 0.499062 0.501934 0.771696
C2    C     C_R   0.523475 0.251598 0.970607 0.200237
C3    C     C_R   0.524178 0.253744 0.030256 -0.164132
C4    C     C_R   0.553042 0.372257 0.061201 -0.037315
C5    C     C_R   0.586507 0.491561 0.032142 -0.045920
C6    C     C_R   0.615510 0.611645 0.063667 -0.110447
C7    C     C_R   0.660624 0.726953 0.034024 0.153363
C8    C     C_R   0.666994 0.723410 0.973460 0.172656
C9    C     C_R   0.545626 0.374331 0.120943 0.563965
C10   C     C_R   0.598665 0.609607 0.123799 0.581503
C11   C     C_R   0.434260 0.474526 0.231869 -0.091186
C12   C     C_R   0.500749 0.499980 0.391899 0.818152
C13   C     C_R   0.414440 0.479421 0.290956 0.109847
C14   C     C_R   0.512178 0.500116 0.329713 -0.043056
C15   C     C_R   0.625509 0.519053 0.308943 -0.199136
C16   C     C_R   0.643216 0.516561 0.250190 -0.073297
C17   C     C_R   0.547815 0.493943 0.211418 0.295498
C18   C     C_R   0.428710 0.498342 0.767521 0.155385
C19   C     C_R   0.411475 0.491313 0.706573 0.107680
C20   C     C_R   0.510783 0.500058 0.671584 -0.078055
C21   C     C_R   0.623987 0.509401 0.696849 -0.266448
C22   C     C_R   0.641397 0.508479 0.755957 -0.078238
C23   C     C_R   0.743071 0.501805 0.504778 0.744672
C24   C     C_R   0.545502 0.502663 0.791460 0.272616
C25   C     C_3   0.096937 0.635495 0.530227 -0.340815
C26   C     C_3   0.087382 0.403627 0.552816 -0.380687
C27   C     C_3   0.960264 0.647659 0.530662 0.270043
C28   C     C_3   0.952044 0.380279 0.544935 0.305376
C29   C     C_3   0.069232 0.478350 0.446138 -0.339853
C30   C     C_3   0.131391 0.500506 0.506561 0.027059
C31   C     C_3   0.889972 0.505375 0.508998 -0.032104
C32   C     C_3   0.932268 0.486533 0.447129 -0.397525
C33   C     C_3   0.620713 0.086336 0.507285 0.280671
C34   C     C_3   0.622359 0.919122 0.503175 0.286191
C35   C     C_3   0.424634 0.081460 0.545653 -0.253543
C36   C     C_3   0.426488 0.918900 0.546394 -0.220768
C37   C     C_3   0.443555 0.080782 0.446820 0.088839
C38   C     C_3   0.438829 0.917838 0.447832 0.071926
C39   C     C_R   0.500412 0.499912 0.608421 0.773977
C40   C     C_R   0.598931 0.613110 0.881812 0.567792
C41   C     C_R   0.555168 0.375700 0.879855 0.575384
C42   C     C_R   0.555640 0.370561 0.940246 -0.060932
C43   C     C_R   0.587644 0.490834 0.971475 -0.077949
C44   C     C_R   0.619153 0.610563 0.941991 -0.101752
Cu1   Cu    Cu3+1 0.499860 0.642410 0.500030 0.971812
Cu2   Cu    Cu3+1 0.499860 0.357590 0.500030 0.964472
H1    H     H_    0.699882 0.515450 0.670590 0.191293
H2    H     H_    0.730290 0.512442 0.774483 0.178166
H3    H     H_    0.144890 0.716866 0.508390 0.232107
H4    H     H_    0.143053 0.312235 0.555636 0.205996
H5    H     H_    0.142471 0.650978 0.572993 0.157982
H6    H     H_    0.106009 0.445518 0.596394 0.183491
H7    H     H_    0.102202 0.556288 0.415961 0.194769
H8    H     H_    0.093428 0.378740 0.428488 0.225090
H9    H     H_    0.901017 0.570455 0.419158 0.205249
H10   H     H_    0.891753 0.394130 0.427054 0.223791
H11   H     H_    0.497682 0.162250 0.052434 0.215128
H12   H     H_    0.443070 0.126862 0.588209 0.177793
H13   H     H_    0.444065 0.882187 0.589621 0.145396
H14   H     H_    0.491137 0.110381 0.408513 0.158458
H15   H     H_    0.475679 0.885438 0.407619 0.163628
H16   H     H_    0.331737 0.112209 0.537681 0.195366
H17   H     H_    0.333757 0.881633 0.539875 0.189260
H18   H     H_    0.361238 0.456797 0.201350 0.150520
H19   H     H_    0.700641 0.534941 0.338458 0.157947
H20   H     H_    0.731238 0.531279 0.234728 0.158551
N1    N     N_R   0.568043 0.497001 0.852536 -0.474340
N2    N     N_R   0.565707 0.492232 0.150683 -0.470084
N3    N     N_3   0.500250 0.143650 0.501250 -0.202538
N4    N     N_3   0.500250 0.856350 0.501250 -0.184279
O1    O     O_R   0.317570 0.620260 0.500030 -0.580137
O2    O     O_R   0.317570 0.379740 0.500030 -0.562972
O3    O     O_R   0.499840 0.620290 0.417900 -0.542303
O4    O     O_R   0.499840 0.379710 0.417900 -0.550577
O5    O     O_R   0.682190 0.620260 0.500010 -0.558788
O6    O     O_R   0.682190 0.379740 0.500010 -0.569285
O7    O     O_R   0.499920 0.620230 0.582140 -0.589558
O8    O     O_R   0.499920 0.379770 0.582140 -0.600038
O9    O     O_2   0.603606 0.730865 0.852699 -0.476801
O10   O     O_2   0.542067 0.261863 0.848099 -0.491644
O11   O     O_2   0.516987 0.259620 0.149241 -0.504535
O12   O     O_2   0.610614 0.723657 0.155415 -0.476508
I1    I     I_    0.457644 0.065342 0.933644 -0.209316
C45   C     C_3   0.290507 0.465083 0.678717 -0.401265
C46   C     C_3   0.269897 0.312797 0.668541 -0.804654
H21   H     H_    0.310164 0.281645 0.628206 0.249005
H22   H     H_    0.308568 0.251993 0.704389 0.271889
H23   H     H_    0.174084 0.288615 0.665080 0.265147
H24   H     H_    0.219262 0.504795 0.704620 0.229591
H25   H     H_    0.282175 0.520400 0.637426 0.176564
I2    I     I_    0.942322 0.706216 0.619715 -0.450751
I3    I     I_    0.888708 0.348513 0.630184 -0.461928
I4    I     I_    0.959157 0.825209 0.474787 -0.285725
I5    I     I_    0.968124 0.182562 0.505544 -0.309964
C47   C     C_3   0.679527 0.147554 0.565642 -0.318097
C48   C     C_3   0.652237 0.100917 0.627227 -0.829923
H26   H     H_    0.582090 0.024657 0.629884 0.247715
H27   H     H_    0.733468 0.064000 0.649473 0.282205
H28   H     H_    0.623829 0.187322 0.653946 0.265169
H29   H     H_    0.773920 0.146884 0.562329 0.232251
H30   H     H_    0.660360 0.252305 0.570523 0.286545
C49   C     C_3   0.709939 0.865149 0.552433 -0.232759
C50   C     C_3   0.675881 0.798276 0.609483 -0.683446
H31   H     H_    0.589155 0.811122 0.625879 0.233297
H32   H     H_    0.692406 0.688609 0.607288 0.252406
H33   H     H_    0.734120 0.837527 0.645151 0.242897
H34   H     H_    0.768454 0.796410 0.534152 0.237012
H35   H     H_    0.782902 0.936972 0.562289 0.202029
I6    I     I_    0.714096 0.164955 0.429028 -0.269647
I7    I     I_    0.692699 0.837177 0.418773 -0.265086
I8    I     I_    0.280180 0.169570 0.414986 -0.291430
I9    I     I_    0.274873 0.825281 0.415227 -0.301850
I10   I     I_    0.726255 0.907961 0.077850 -0.160713
I11   I     I_    0.770731 0.876943 0.931333 -0.154260
C51   C     C_3   0.289550 0.461759 0.310834 -0.414102
C52   C     C_3   0.209840 0.573632 0.287582 -0.750366
H36   H     H_    0.249663 0.675011 0.297666 0.285431
H37   H     H_    0.195532 0.563979 0.240364 0.248650
H38   H     H_    0.122754 0.565417 0.307510 0.247870
H39   H     H_    0.253373 0.361701 0.295883 0.239769
H40   H     H_    0.286332 0.463104 0.358323 0.207674
C53   C     C_3   0.325827 0.511098 0.807300 -0.401218
C54   C     C_3   0.260188 0.376654 0.817132 -0.743251
H41   H     H_    0.199286 0.350911 0.780351 0.261725
H42   H     H_    0.322419 0.292680 0.824362 0.290420
H43   H     H_    0.206230 0.385718 0.855648 0.248239
H44   H     H_    0.356670 0.550879 0.849949 0.214174
H45   H     H_    0.263723 0.588616 0.790813 0.208831

loop_
_geom_bond_atom_site_label_1
_geom_bond_atom_site_label_2
_ccdc_geom_bond_type
C22   H2    S    
C38   N4    S    
C51   H40   S    
C37   N3    S    
Cu1   O1    S    
C41   C42   A    
C19   C20   A    
C23   O6    A    
C36   H13   S    
C41   O10   S    
Cu2   O6    S    
C7    C8    A    
C41   N1    A    
Cu1   Cu2   S    
C1    O1    A    
C35   H12   S    
C18   C24   A    
C39   O7    A    
Cu1   O3    S    
C29   C32   S    
C12   O4    A    
C26   H4    S    
C5    C6    A    
C54   H42   S    
C29   H8    S    
C15   C16   A    
C15   H19   S    
C48   H28   S    
C52   H36   S    
C28   I5    S    
C18   C19   A    
C53   H44   S    
Cu2   N3    S    
C24   N1    S    
C47   C48   S    
C16   C17   A    
C40   N1    A    
C48   H27   S    
C49   H35   S    
C50   H33   S    
C36   H17   S    
C34   N4    S    
C32   H9    S    
Cu2   O2    S    
C8    I11   S    
C38   H15   S    
C5    C43   A    
C21   C22   A    
C2    I1    S    
C45   H25   S    
C33   C47   S    
C12   O3    A    
C36   N4    S    
C46   H22   S    
C1    O2    A    
C27   C31   S    
C39   O8    A    
C54   H41   S    
C45   C46   S    
C50   H32   S    
C11   H18   S    
Cu2   O8    S    
C20   C39   S    
C47   H29   S    
C54   H43   S    
C46   H21   S    
C10   O12   S    
C35   C36   S    
C23   C31   S    
C43   C44   A    
C25   H5    S    
C37   C38   S    
C26   H6    S    
C31   C32   S    
C48   H26   S    
C33   C34   S    
C40   O9    S    
C49   H34   S    
C28   I3    S    
C34   C49   S    
C27   I2    S    
C13   C51   S    
C18   C53   S    
C3    H11   S    
C12   C14   S    
C26   C30   S    
C10   N2    A    
C34   I7    S    
C22   C24   A    
C27   I4    S    
C16   H20   S    
C45   H24   S    
C38   I9    S    
C19   C45   S    
Cu2   O4    S    
C46   H23   S    
C25   C30   S    
C11   C17   A    
C17   N2    S    
Cu1   N4    S    
C28   C31   S    
C8    C44   A    
C23   O5    A    
C4    C5    A    
C6    C10   A    
C6    C7    A    
C33   N3    S    
C25   C27   S    
C26   C28   S    
C52   H38   S    
Cu1   O5    S    
C7    I10   S    
C2    C3    A    
C53   C54   S    
C9    N2    A    
C11   C13   A    
C51   C52   S    
C29   H7    S    
C2    C42   A    
C1    C30   S    
C52   H37   S    
C35   H16   S    
C53   H45   S    
C49   C50   S    
C25   H3    S    
C37   I8    S    
C37   H14   S    
C29   C30   S    
C47   H30   S    
C40   C44   A    
C33   I6    S    
C20   C21   A    
C35   N3    S    
C51   H39   S    
C42   C43   A    
C50   H31   S    
C14   C15   A    
Cu1   O7    S    
C4    C9    A    
C13   C14   A    
C32   H10   S    
C3    C4    A    
C9    O11   S    
C21   H1    S    
