data_mof_unit_24815.cif
_audit_creation_date              2012-12-10T17:33:53-0500
_audit_creation_method            fapswitch 2.2
_symmetry_space_group_name_H-M    P1
_symmetry_Int_Tables_number       1
_space_group_crystal_system       triclinic
_cell_length_a                    10.683932
_cell_length_b                    12.066696
_cell_length_c                    12.761938
_cell_angle_alpha                 94.169907
_cell_angle_beta                  91.102562
_cell_angle_gamma                 86.988666
_cell_volume                      1638.44834749

loop_
_atom_site_label
_atom_site_type_symbol
_atom_type_description
_atom_site_fract_x
_atom_site_fract_y
_atom_site_fract_z
_atom_type_partial_charge
C1    C     C_R   0.474905 0.521340 0.697511 0.908616
C2    C     C_3   0.121857 0.501080 0.495918 0.014965
C3    C     C_3   0.076022 0.423767 0.401515 0.293627
C4    C     C_3   0.063411 0.621503 0.491153 -0.398735
C5    C     C_R   0.515450 0.460159 0.184136 -0.246170
C6    C     C_R   0.434264 0.532305 0.806952 -0.196009
C7    C     C_R   0.444528 0.644225 0.969580 -0.265297
C8    C     C_R   0.417366 0.637208 0.862331 -0.075467
C9    C     C_R   0.430463 0.434753 0.861664 -0.059101
C10   C     C_R   0.458474 0.441961 0.969236 0.007943
C11   C     C_R   0.474090 0.547513 0.021395 0.054195
C12   C     C_R   0.742032 0.499898 0.496511 0.858242
C13   C     C_R   0.511731 0.555704 0.126286 0.378937
C14   C     C_R   0.508588 0.353090 0.130599 -0.087458
C15   C     C_R   0.476504 0.346254 0.024516 -0.268927
C16   C     C_R   0.379646 0.951747 0.406863 -0.359648
C17   C     C_R   0.395545 0.835307 0.408847 0.631362
C18   C     C_R   0.549024 0.860483 0.546230 -0.034584
C19   C     C_R   0.548931 0.976835 0.533841 -0.066970
C20   C     C_R   0.455521 0.022962 0.469287 -0.106547
C21   C     C_R   0.439119 0.139906 0.468774 0.079184
C22   C     C_R   0.622140 0.164161 0.573582 -0.038223
C23   C     C_R   0.508899 0.476955 0.298674 0.920237
C24   C     C_R   0.636573 0.048408 0.585527 0.441321
C25   C     C_R   0.258067 0.499824 0.498748 0.917787
C26   C     C_3   0.933289 0.455035 0.597535 -0.388667
C27   C     C_3   0.076848 0.456051 0.598880 -0.466037
C28   C     C_3   0.930993 0.427444 0.393707 -0.298870
C29   C     C_3   0.921046 0.619681 0.487377 -0.416096
C30   C     C_3   0.878671 0.498752 0.493465 0.037793
H1    H     H_    0.904448 0.369675 0.608475 0.218591
H2    H     H_    0.097027 0.663528 0.423353 0.195788
H3    H     H_    0.895804 0.469953 0.324006 0.110089
H4    H     H_    0.440141 0.724929 0.012957 0.208092
H5    H     H_    0.468454 0.264471 0.985504 0.218054
H6    H     H_    0.896292 0.508822 0.665795 0.189408
H7    H     H_    0.689614 0.220407 0.607503 0.161033
H8    H     H_    0.309917 0.986736 0.354980 0.177964
H9    H     H_    0.109367 0.508565 0.668494 0.220161
H10   H     H_    0.116364 0.369978 0.607297 0.233411
H11   H     H_    0.104455 0.339802 0.425493 0.176588
H12   H     H_    0.884305 0.655064 0.414174 0.172866
H13   H     H_    0.884356 0.674478 0.554587 0.257240
H14   H     H_    0.092288 0.673323 0.562491 0.221570
N1    N     N_R   0.523380 0.207800 0.519350 -0.160188
N2    N     N_R   0.476620 0.792180 0.480650 -0.182910
O1    O     O_R   0.506240 0.421700 0.658830 -0.620667
O2    O     O_R   0.491240 0.609310 0.646410 -0.584597
O3    O     O_R   0.692710 0.406190 0.506230 -0.603805
O4    O     O_R   0.677700 0.593810 0.493810 -0.599605
O5    O     O_R   0.508760 0.390690 0.353590 -0.560436
O6    O     O_R   0.493760 0.578300 0.341170 -0.553952
O7    O     O_R   0.322300 0.406190 0.506190 -0.623375
O8    O     O_R   0.307290 0.593810 0.493770 -0.585223
Zn1   Zn    Zn3+2 0.510020 0.374730 0.508290 1.020324
Zn2   Zn    Zn3+2 0.489980 0.625270 0.491710 1.024235
O9    O     O_3   0.139896 0.427389 0.305011 -0.651643
C31   C     C_3   0.116798 0.523737 0.249828 0.090458
H15   H     H_    0.199134 0.575665 0.261692 0.181921
H16   H     H_    0.032153 0.575183 0.274135 0.112239
C32   C     C_3   0.103592 0.487014 0.133009 -0.303443
H17   H     H_    0.189069 0.436623 0.107056 0.244465
H18   H     H_    0.021778 0.433941 0.121395 0.246614
C33   C     C_3   0.085006 0.585437 0.064876 -0.983823
H19   H     H_    0.002416 0.639388 0.091045 0.265773
H20   H     H_    0.069085 0.554371 0.981894 0.281878
H21   H     H_    0.169929 0.634586 0.068479 0.268324
O10   O     O_3   0.533830 0.659621 0.174203 -0.655040
C34   C     C_3   0.663259 0.676442 0.172563 0.088945
H22   H     H_    0.695280 0.676782 0.089963 0.145885
H23   H     H_    0.718107 0.610429 0.213116 0.124530
C35   C     C_3   0.686416 0.789116 0.230220 -0.298134
H24   H     H_    0.626664 0.855142 0.194645 0.230958
H25   H     H_    0.660578 0.787267 0.314004 0.228137
C36   C     C_3   0.823250 0.817256 0.224432 -0.986892
H26   H     H_    0.884160 0.752019 0.259359 0.247491
H27   H     H_    0.837805 0.898312 0.268771 0.281447
H28   H     H_    0.849753 0.823168 0.141387 0.270347
C37   C     C_2   0.538210 0.245828 0.178856 1.037153
O11   O     O_2   0.480303 0.163732 0.150528 -0.627479
O12   O     O_R   0.636500 0.236158 0.251767 -0.775902
H29   H     H_    0.645858 0.159234 0.279054 0.332925
C38   C     C_2   0.360017 0.736381 0.813298 0.958794
O13   O     O_2   0.366574 0.829076 0.858133 -0.601846
O14   O     O_R   0.290513 0.723392 0.719598 -0.812387
H30   H     H_    0.255273 0.796836 0.694847 0.340343
C39   C     C_2   0.394430 0.327817 0.806244 0.953011
O15   O     O_2   0.469539 0.247668 0.798520 -0.646707
O16   O     O_R   0.276368 0.321794 0.758032 -0.830557
H31   H     H_    0.263469 0.246269 0.720296 0.349313
C40   C     C_2   0.324869 0.187168 0.420160 0.941481
O17   O     O_2   0.223600 0.172610 0.458542 -0.672024
O18   O     O_R   0.330733 0.235287 0.324667 -0.762178
H32   H     H_    0.245932 0.242410 0.288419 0.368459
O19   O     O_3   0.744361 0.001952 0.631850 -0.646494
C41   C     C_3   0.780506 0.061207 0.726707 0.104919
H33   H     H_    0.796589 0.000009 0.787146 0.177847
H34   H     H_    0.707268 0.122664 0.759564 0.168039
C42   C     C_3   0.904265 0.116270 0.711429 -0.365055
H35   H     H_    0.980183 0.050696 0.696777 0.247212
H36   H     H_    0.897128 0.166422 0.641893 0.254768
C43   C     C_3   0.939145 0.191546 0.807659 -0.920848
H37   H     H_    0.866109 0.259741 0.821670 0.264737
H38   H     H_    0.029701 0.229012 0.794352 0.289897
H39   H     H_    0.949055 0.142849 0.878214 0.275303
O20   O     O_3   0.321121 0.762890 0.348641 -0.622692
C44   C     C_3   0.297182 0.796383 0.245565 0.088420
H40   H     H_    0.308035 0.721514 0.190446 0.189346
H41   H     H_    0.365825 0.854733 0.219140 0.157570
C45   C     C_3   0.161606 0.842592 0.234575 -0.443172
H42   H     H_    0.098166 0.772900 0.234753 0.220268
H43   H     H_    0.135813 0.902076 0.302044 0.248997
C46   C     C_3   0.141580 0.900700 0.132828 -0.861661
H44   H     H_    0.202072 0.972827 0.132794 0.286918
H45   H     H_    0.042321 0.931664 0.126018 0.264290
H46   H     H_    0.164132 0.842075 0.063833 0.270634
C47   C     C_2   0.607443 0.819125 0.642848 1.040340
O21   O     O_2   0.689755 0.745499 0.638599 -0.640825
O22   O     O_R   0.574321 0.872092 0.740080 -0.778633
H47   H     H_    0.622979 0.839785 0.800734 0.333897
C48   C     C_2   0.890345 0.308869 0.373436 0.978557
O23   O     O_2   0.867092 0.252326 0.445577 -0.643879
O24   O     O_R   0.895532 0.260248 0.270689 -0.773534
H48   H     H_    0.879875 0.177885 0.266471 0.349936

loop_
_geom_bond_atom_site_label_1
_geom_bond_atom_site_label_2
_ccdc_geom_bond_type
C39   O15   D    
O18   H32   S    
C29   H12   S    
C32   C33   S    
C8    C38   S    
C19   C20   A    
C6    C9    A    
C12   O3    A    
O9    C31   S    
O24   H48   S    
O14   H30   S    
C7    C11   A    
C26   C27   S    
C3    C28   S    
C25   O7    A    
C10   C15   A    
C47   O22   S    
O20   C44   S    
C31   H16   S    
C41   C42   S    
C43   H39   S    
C34   H23   S    
C18   C19   A    
C32   H18   S    
C45   H42   S    
C45   H43   S    
O10   C34   S    
O19   C41   S    
C27   H9    S    
C16   C17   A    
C41   H34   S    
C44   H40   S    
C2    C27   S    
C9    C10   A    
C5    C13   A    
C4    C29   S    
C46   H46   S    
C12   C30   S    
C31   C32   S    
C26   H1    S    
C29   H13   S    
C44   H41   S    
C43   H37   S    
C35   C36   S    
C18   N2    A    
C15   H5    S    
O12   H29   S    
C21   N1    A    
O7    Zn1   S    
O8    Zn2   S    
C1    C6    S    
C33   H21   S    
C7    C8    A    
C25   O8    A    
C35   H25   S    
C24   O19   S    
C40   O17   D    
C37   O12   S    
C28   C48   S    
C1    O1    A    
C6    C8    A    
C4    H14   S    
C31   H15   S    
O3    Zn1   S    
C22   H7    S    
O4    Zn2   S    
C33   H20   S    
C34   C35   S    
C2    C4    S    
C36   H26   S    
C29   C30   S    
C40   O18   S    
C23   O5    A    
C38   O13   D    
C5    C23   S    
C27   H10   S    
C16   C20   A    
C41   H33   S    
C22   N1    A    
C5    C14   A    
C14   C37   S    
C17   N2    A    
C43   H38   S    
C36   H27   S    
C18   C47   S    
C48   O23   D    
C4    H2    S    
C3    O9    S    
C26   H6    S    
C38   O14   S    
C28   H3    S    
C26   C30   S    
C39   O16   S    
C7    H4    S    
C22   C24   A    
N2    Zn2   S    
O1    Zn1   S    
C46   H44   S    
C21   C40   S    
O2    Zn2   S    
C3    H11   S    
C42   H36   S    
C35   H24   S    
C12   O4    A    
O22   H47   S    
C1    O2    A    
C42   H35   S    
C33   H19   S    
C28   C30   S    
C19   C24   A    
C47   O21   D    
C9    C39   S    
C11   C13   A    
C23   O6    A    
C44   C45   S    
C2    C3    S    
C2    C25   S    
O5    Zn1   S    
C32   H17   S    
C36   H28   S    
C34   H22   S    
C48   O24   S    
C10   C11   A    
C37   O11   D    
C42   C43   S    
C20   C21   A    
N1    Zn1   S    
C45   C46   S    
C14   C15   A    
O16   H31   S    
C17   O20   S    
O6    Zn2   S    
C16   H8    S    
C46   H45   S    
C13   O10   S    
