data_mof_unit_54504.cif
_audit_creation_date              2012-10-26T19:57:54-0400
_audit_creation_method            fapswitch 2.2
_symmetry_space_group_name_H-M    P1
_symmetry_Int_Tables_number       1
_space_group_crystal_system       triclinic
_cell_length_a                    7.568923
_cell_length_b                    8.69259
_cell_length_c                    12.968285
_cell_angle_alpha                 86.113708
_cell_angle_beta                  78.513334
_cell_angle_gamma                 103.330719
_cell_volume                      807.807052263

loop_
_atom_site_label
_atom_site_type_symbol
_atom_type_description
_atom_site_fract_x
_atom_site_fract_y
_atom_site_fract_z
_atom_type_partial_charge
C1    C     C_R   0.452339 0.199761 0.503383 0.545101
C2    C     C_R   0.731357 0.538102 0.116927 -0.122839
C3    C     C_R   0.605415 0.518922 0.857462 -0.121227
C4    C     C_R   0.394585 0.481076 0.142538 -0.121227
C5    C     C_R   0.589215 0.515390 0.966129 0.051324
C6    C     C_R   0.410784 0.484608 0.033871 0.051324
C7    C     C_2   0.426524 0.031191 0.504753 -0.144746
C8    C     C_2   0.573476 0.968809 0.495247 -0.144746
C9    C     C_2   0.916022 0.336168 0.610133 0.403482
C10   C     C_2   0.083979 0.663834 0.389870 0.403480
C11   C     C_R   0.547661 0.800239 0.496617 0.545101
C12   C     C_R   0.465494 0.495710 0.701347 0.540171
C13   C     C_R   0.534506 0.504289 0.298653 0.540170
C14   C     C_R   0.554306 0.507637 0.184487 0.005179
C15   C     C_R   0.445693 0.492362 0.815513 0.005179
C16   C     C_R   0.251309 0.457819 0.991948 -0.131708
C17   C     C_R   0.748690 0.542178 0.008052 -0.131707
C18   C     C_R   0.268643 0.461896 0.883073 -0.122839
Cu1   Cu    Cu3+1 0.686350 0.517570 0.488220 1.012593
Cu2   Cu    Cu3+1 0.313650 0.482430 0.511780 1.012593
H1    H     H_    0.257271 0.457397 0.194179 0.130569
H2    H     H_    0.232064 0.691626 0.373100 0.139062
H3    H     H_    0.742728 0.542600 0.805821 0.130571
H4    H     H_    0.856335 0.559578 0.148031 0.151634
H5    H     H_    0.143665 0.440420 0.851969 0.151638
H6    H     H_    0.113808 0.433439 0.043236 0.108444
H7    H     H_    0.886191 0.566559 0.956764 0.108444
H8    H     H_    0.285656 0.958187 0.513512 0.144696
H9    H     H_    0.714343 0.041813 0.486489 0.144694
H10   H     H_    0.767934 0.308370 0.626899 0.139060
N1    N     N_2   0.033570 0.455950 0.529530 -0.177678
N2    N     N_2   0.966430 0.544050 0.470470 -0.177679
O1    O     O_R   0.621060 0.286250 0.492350 -0.550030
O2    O     O_2   0.014209 0.741836 0.335431 -0.512777
O3    O     O_R   0.378940 0.713750 0.507650 -0.550029
O4    O     O_R   0.306310 0.256580 0.512240 -0.450800
O5    O     O_R   0.693690 0.743420 0.487760 -0.450796
O6    O     O_R   0.631800 0.512400 0.642670 -0.554833
O7    O     O_R   0.368200 0.487600 0.357330 -0.554834
O8    O     O_R   0.317060 0.482730 0.662570 -0.465614
O9    O     O_R   0.682940 0.517270 0.337430 -0.465618
O10   O     O_2   0.985794 0.258177 0.664575 -0.512778

loop_
_geom_bond_atom_site_label_1
_geom_bond_atom_site_label_2
_ccdc_geom_bond_type
C12   O8    A    
C15   C18   A    
Cu1   O6    S    
C3    H3    S    
N1    N2    D    
C12   C15   S    
C13   O9    A    
C1    O1    A    
C7    C8    D    
C10   O2    D    
C4    C14   A    
C13   C14   S    
C10   H2    S    
C2    C17   A    
C12   O6    A    
C4    H1    S    
Cu1   O9    S    
C9    O10   D    
C18   H5    S    
C9    H10   S    
C8    C11   S    
Cu2   O8    S    
C8    H9    S    
C4    C6    A    
C2    H4    S    
C5    C6    A    
C2    C14   A    
C13   O7    A    
C5    C17   A    
Cu1   N2    S    
C6    C16   A    
C17   H7    S    
C10   N2    S    
C3    C15   A    
C16   C18   A    
Cu1   O1    S    
C11   O5    A    
Cu2   O7    S    
C9    N1    S    
Cu1   O5    S    
C1    C7    S    
Cu2   O3    S    
C11   O3    A    
Cu2   N1    S    
C7    H8    S    
Cu1   Cu2   S    
C1    O4    A    
C3    C5    A    
C16   H6    S    
Cu2   O4    S    
