data_mof_unit_61547.cif
_audit_creation_date              2012-12-10T20:49:59-0500
_audit_creation_method            fapswitch 2.2
_symmetry_space_group_name_H-M    P1
_symmetry_Int_Tables_number       1
_space_group_crystal_system       triclinic
_cell_length_a                    19.20067
_cell_length_b                    19.207271
_cell_length_c                    19.204992
_cell_angle_alpha                 94.882249
_cell_angle_beta                  90.136475
_cell_angle_gamma                 85.708816
_cell_volume                      7037.11885363

loop_
_atom_site_label
_atom_site_type_symbol
_atom_type_description
_atom_site_fract_x
_atom_site_fract_y
_atom_site_fract_z
_atom_type_partial_charge
C1    C     C_R   0.492551 0.492629 0.310761 0.792255
C2    C     C_R   0.129508 0.480759 0.569269 -0.205619
C3    C     C_R   0.512676 0.507030 0.765728 0.000310
C4    C     C_R   0.507593 0.507011 0.689361 0.789839
C5    C     C_R   0.462778 0.474886 0.802637 -0.227779
C6    C     C_R   0.468224 0.472444 0.874620 -0.170019
C7    C     C_R   0.524049 0.502155 0.911223 0.321573
C8    C     C_R   0.574321 0.533343 0.874228 -0.198202
C9    C     C_R   0.568436 0.536480 0.802050 -0.213603
C10   C     C_R   0.543130 0.465529 0.120183 -0.169389
C11   C     C_R   0.546329 0.463992 0.192667 -0.225520
C12   C     C_R   0.911466 0.496969 0.469354 0.056758
C13   C     C_R   0.481745 0.492706 0.088586 0.321578
C14   C     C_R   0.488776 0.490316 0.234308 0.007787
C15   C     C_R   0.427413 0.516244 0.202478 -0.210941
C16   C     C_R   0.492759 0.689897 0.508309 0.785817
C17   C     C_R   0.423788 0.516479 0.130126 -0.195916
C18   C     C_R   0.506801 0.233164 0.486356 -0.115251
C19   C     C_R   0.482984 0.200581 0.543502 -0.306395
C20   C     C_R   0.479705 0.128325 0.539555 -0.166879
C21   C     C_R   0.499575 0.086973 0.477697 0.260185
C22   C     C_R   0.522445 0.119299 0.420352 -0.296996
C23   C     C_R   0.875590 0.445770 0.430898 0.474746
C24   C     C_R   0.528184 0.191942 0.424575 0.507230
C25   C     C_R   0.461954 0.876998 0.463417 -0.167013
C26   C     C_R   0.460767 0.804239 0.459582 -0.228595
C27   C     C_R   0.492416 0.913007 0.521470 0.319402
C28   C     C_R   0.506780 0.310051 0.491598 0.838558
C29   C     C_R   0.490519 0.766651 0.513125 0.001422
C30   C     C_R   0.519588 0.802880 0.571419 -0.217143
C31   C     C_R   0.519666 0.875543 0.575782 -0.199486
C32   C     C_R   0.310763 0.507722 0.507964 0.795192
C33   C     C_R   0.689458 0.493178 0.491429 0.879348
C34   C     C_R   0.803577 0.443478 0.440705 -0.415282
C35   C     C_R   0.765861 0.495273 0.484317 -0.254675
C36   C     C_R   0.801292 0.550499 0.518342 0.382264
C37   C     C_R   0.874546 0.549129 0.513986 0.347671
C38   C     C_3   0.620154 0.208639 0.355183 -0.263151
C39   C     C_3   0.899479 0.405634 0.318327 -0.294485
C40   C     C_3   0.912650 0.594598 0.619660 -0.225991
C41   C     C_3   0.750734 0.660600 0.514357 -0.219266
C42   C     C_R   0.121184 0.528422 0.456382 -0.155023
C43   C     C_R   0.193500 0.531876 0.455219 -0.228963
C44   C     C_R   0.088823 0.501965 0.513421 0.331825
C45   C     C_R   0.234323 0.508431 0.510478 0.002354
C46   C     C_R   0.201744 0.483122 0.567613 -0.206827
H1    H     H_    0.217546 0.551653 0.410661 0.162985
H2    H     H_    0.439060 0.904963 0.421317 0.151977
H3    H     H_    0.535978 0.087798 0.372132 0.157809
H4    H     H_    0.090732 0.546855 0.413181 0.150788
H5    H     H_    0.542199 0.775048 0.613769 0.166826
H6    H     H_    0.460551 0.105094 0.584539 0.163821
H7    H     H_    0.542395 0.902754 0.621016 0.143450
H8    H     H_    0.466669 0.231111 0.591503 0.188301
H9    H     H_    0.777235 0.401166 0.413730 0.214062
H10   H     H_    0.232108 0.465285 0.611165 0.162988
H11   H     H_    0.105086 0.461464 0.613887 0.139753
H12   H     H_    0.588204 0.445243 0.088970 0.148307
H13   H     H_    0.594083 0.443559 0.216198 0.158797
H14   H     H_    0.632966 0.152212 0.338828 0.145252
H15   H     H_    0.650591 0.225019 0.402465 0.156017
H16   H     H_    0.636617 0.239029 0.312270 0.191609
H17   H     H_    0.913302 0.458767 0.306680 0.153695
H18   H     H_    0.844151 0.398113 0.304204 0.154176
H19   H     H_    0.932789 0.366768 0.284745 0.193240
H20   H     H_    0.951309 0.629392 0.643670 0.175356
H21   H     H_    0.930046 0.540026 0.630849 0.139061
H22   H     H_    0.861507 0.610749 0.645216 0.198836
H23   H     H_    0.617811 0.555837 0.901570 0.142164
H24   H     H_    0.719541 0.703628 0.544887 0.182766
H25   H     H_    0.719288 0.643939 0.467917 0.127651
H26   H     H_    0.799718 0.681932 0.497580 0.174846
H27   H     H_    0.607995 0.560927 0.774592 0.168585
H28   H     H_    0.382073 0.536132 0.233540 0.162004
H29   H     H_    0.429178 0.446690 0.901429 0.150588
H30   H     H_    0.376028 0.536508 0.106304 0.142419
H31   H     H_    0.419474 0.451426 0.775865 0.165456
H32   H     H_    0.437822 0.777341 0.414298 0.164498
N1    N     N_2   0.984734 0.496547 0.461099 -0.121410
N2    N     N_2   0.015552 0.498964 0.518337 -0.151667
N3    N     N_2   0.531619 0.500548 0.984627 -0.203723
N4    N     N_2   0.475378 0.495138 0.015360 -0.205014
N5    N     N_2   0.496012 0.013189 0.470760 -0.186595
N6    N     N_2   0.495826 0.986651 0.527781 -0.200100
O1    O     O_3   0.500000 0.500000 0.500000 -0.482602
O2    O     O_R   0.340900 0.545940 0.467290 -0.643216
O3    O     O_R   0.655960 0.450920 0.450930 -0.662841
O4    O     O_R   0.347180 0.467040 0.545670 -0.644470
O5    O     O_R   0.655970 0.536100 0.536110 -0.591460
O6    O     O_3   0.547749 0.223336 0.366167 -0.589376
O7    O     O_3   0.912588 0.393893 0.388799 -0.572312
O8    O     O_3   0.909872 0.602725 0.547284 -0.581272
O9    O     O_3   0.764934 0.605275 0.557330 -0.577500
O10   O     O_R   0.536480 0.656330 0.545680 -0.646983
O11   O     O_R   0.545300 0.340270 0.450920 -0.600738
O12   O     O_R   0.451550 0.536740 0.347440 -0.648700
O13   O     O_R   0.466670 0.466660 0.655960 -0.649013
O14   O     O_R   0.536460 0.451300 0.340640 -0.635683
O15   O     O_R   0.545320 0.545300 0.655970 -0.642507
O16   O     O_R   0.451560 0.656600 0.467300 -0.641923
O17   O     O_R   0.466660 0.346810 0.536100 -0.651108
Zn1   Zn    Zn3+2 0.558430 0.558420 0.558430 0.982335
Zn2   Zn    Zn3+2 0.437090 0.558800 0.446440 0.965827
Zn3   Zn    Zn3+2 0.446060 0.446060 0.558420 0.966447
Zn4   Zn    Zn3+2 0.558420 0.436720 0.436720 0.979815

loop_
_geom_bond_atom_site_label_1
_geom_bond_atom_site_label_2
_ccdc_geom_bond_type
C30   H5    S    
O5    Zn1   S    
C32   C45   S    
C35   C36   A    
N3    N4    D    
C2    H11   S    
C7    C8    A    
C45   C46   A    
C2    C46   A    
C39   H18   S    
C12   C23   A    
C8    H23   S    
C26   H32   S    
O14   Zn4   S    
C9    H27   S    
C28   O11   A    
C18   C24   A    
C36   C37   A    
C10   H12   S    
C18   C19   A    
C30   C31   A    
C11   C14   A    
O1    Zn4   S    
C32   O4    A    
C12   N1    S    
C34   C35   A    
C12   C37   A    
O11   Zn4   S    
C28   O17   A    
C41   O9    S    
C21   N5    S    
C2    C44   A    
C8    C9    A    
C40   H21   S    
C17   H30   S    
O1    Zn2   S    
C41   H25   S    
C38   H15   S    
C34   H9    S    
C40   H20   S    
C21   C22   A    
C39   H19   S    
C42   C44   A    
C11   H13   S    
O2    Zn2   S    
C36   O9    S    
C39   O7    S    
O4    Zn3   S    
C27   C31   A    
C44   N2    S    
C18   C28   S    
C16   O16   A    
C25   C26   A    
C13   N4    S    
O16   Zn2   S    
C31   H7    S    
C29   C30   A    
C3    C9    A    
C33   O5    A    
N5    N6    D    
O3    Zn4   S    
C23   C34   A    
C32   O2    A    
O15   Zn1   S    
C40   O8    S    
C43   C45   A    
C25   H2    S    
O1    Zn3   S    
C42   H4    S    
C41   H26   S    
C38   H14   S    
C19   H8    S    
C7    N3    S    
O17   Zn3   S    
C22   H3    S    
C23   O7    S    
O12   Zn2   S    
C42   C43   A    
C5    H31   S    
C3    C4    S    
C15   C17   A    
C27   N6    S    
C37   O8    S    
C3    C5    A    
C10   C13   A    
C24   O6    S    
C1    O14   A    
C6    C7    A    
C25   C27   A    
C39   H17   S    
C38   O6    S    
C16   O10   A    
C13   C17   A    
C19   C20   A    
C16   C29   S    
C20   H6    S    
C5    C6    A    
C1    O12   A    
C33   C35   S    
C22   C24   A    
C33   O3    A    
O13   Zn3   S    
C10   C11   A    
N1    N2    D    
C15   H28   S    
C20   C21   A    
O10   Zn1   S    
C26   C29   A    
C40   H22   S    
C4    O15   A    
C46   H10   S    
C14   C15   A    
C1    C14   S    
C4    O13   A    
C43   H1    S    
O1    Zn1   S    
C41   H24   S    
C38   H16   S    
C6    H29   S    
