data_mof_unit_16693.cif
_audit_creation_date              2012-12-10T20:39:56-0500
_audit_creation_method            fapswitch 2.2
_symmetry_space_group_name_H-M    P1
_symmetry_Int_Tables_number       1
_space_group_crystal_system       triclinic
_cell_length_a                    23.386109
_cell_length_b                    10.714189
_cell_length_c                    9.866209
_cell_angle_alpha                 90.176983
_cell_angle_beta                  90.334398
_cell_angle_gamma                 91.798913
_cell_volume                      2470.83513037

loop_
_atom_site_label
_atom_site_type_symbol
_atom_type_description
_atom_site_fract_x
_atom_site_fract_y
_atom_site_fract_z
_atom_type_partial_charge
C1    C     C_R   0.499921 0.259897 0.500033 0.974561
C2    C     C_R   0.971549 0.329100 0.621632 0.277021
C3    C     C_R   0.031557 0.330271 0.614286 0.279697
C4    C     C_R   0.061484 0.436535 0.561932 -0.171510
C5    C     C_R   0.031064 0.544741 0.528880 -0.057282
C6    C     C_R   0.061064 0.655601 0.492340 -0.084089
C7    C     C_R   0.031495 0.763072 0.461733 -0.172882
C8    C     C_R   0.971931 0.763333 0.461660 0.443838
C9    C     C_R   0.121245 0.441048 0.544187 0.611239
C10   C     C_R   0.120739 0.657613 0.489511 0.618183
C11   C     C_R   0.238199 0.559211 0.389742 -0.108592
C12   C     C_R   0.389469 0.506236 0.500245 1.012966
C13   C     C_R   0.297028 0.546570 0.384730 -0.060458
C14   C     C_R   0.327865 0.524974 0.503752 -0.161857
C15   C     C_R   0.300027 0.528486 0.629270 -0.217421
C16   C     C_R   0.241347 0.544276 0.636024 0.459806
C17   C     C_R   0.210086 0.554876 0.514447 0.136387
C18   C     C_R   0.761600 0.519399 0.630293 -0.091325
C19   C     C_R   0.702358 0.511368 0.627307 -0.210624
C20   C     C_R   0.673147 0.505588 0.502584 -0.034877
C21   C     C_R   0.704034 0.507306 0.380920 -0.214359
C22   C     C_R   0.763469 0.515152 0.384319 -0.079367
C23   C     C_R   0.496766 0.739531 0.499811 0.902804
C24   C     C_R   0.792096 0.521486 0.509052 0.294310
C25   C     C_R   0.505227 0.063300 0.619663 0.205333
C26   C     C_R   0.493002 0.127772 0.501784 -0.171176
C27   C     C_R   0.468529 0.064495 0.390619 -0.265598
C28   C     C_R   0.464372 0.934995 0.389481 0.352994
C29   C     C_R   0.487752 0.870476 0.501213 -0.250080
C30   C     C_R   0.502944 0.935963 0.618978 0.149138
C31   C     C_3   0.555271 0.927826 0.705963 -0.459723
C32   C     C_3   0.558002 0.069335 0.705974 -0.506066
C33   C     C_R   0.456682 0.439337 0.070133 0.140734
C34   C     C_R   0.610745 0.500795 0.500447 0.843081
C35   C     C_R   0.539776 0.567747 0.072673 -0.033104
C36   C     C_R   0.539568 0.568408 0.928891 -0.119808
C37   C     C_R   0.456810 0.438119 0.926959 0.113850
C38   C     C_3   0.443263 0.299670 0.923604 0.140976
C39   C     C_3   0.439480 0.303777 0.079308 0.130486
C40   C     C_R   0.880458 0.638216 0.481399 0.563815
C41   C     C_R   0.881142 0.425776 0.554124 0.565004
C42   C     C_R   0.940903 0.430728 0.569024 -0.133335
C43   C     C_R   0.970787 0.541910 0.529822 -0.088643
C44   C     C_R   0.940578 0.649910 0.490501 -0.131598
H1    H     H_    0.679556 0.510457 0.722558 0.160233
H2    H     H_    0.682389 0.503065 0.283591 0.158567
H3    H     H_    0.787324 0.516252 0.290567 0.150924
H4    H     H_    0.454589 0.115134 0.303004 0.224864
H5    H     H_    0.545439 0.887391 0.807163 0.223373
H6    H     H_    0.591641 0.885531 0.652270 0.200136
H7    H     H_    0.550341 0.110192 0.807560 0.207760
H8    H     H_    0.595800 0.109650 0.651731 0.204279
H9    H     H_    0.572540 0.620865 0.127559 0.145131
H10   H     H_    0.572141 0.622107 0.875264 0.140426
H11   H     H_    0.481006 0.247807 0.889761 0.054476
H12   H     H_    0.472972 0.248219 0.128477 0.049587
H13   H     H_    0.055288 0.848148 0.437043 0.244172
H14   H     H_    0.214173 0.570051 0.296568 0.202879
H15   H     H_    0.318298 0.554402 0.288397 0.246819
H16   H     H_    0.323995 0.519415 0.722530 0.237888
H17   H     H_    0.783984 0.524179 0.726671 0.147711
N1    N     N_R   0.853000 0.528510 0.513711 -0.373074
N2    N     N_R   0.149154 0.551509 0.515830 -0.354731
N3    N     N_R   0.499610 0.499140 0.142800 -0.120034
N4    N     N_R   0.499610 0.499180 0.857150 -0.128948
O1    O     O_R   0.500010 0.316790 0.614690 -0.585528
O2    O     O_2   0.850738 0.318540 0.574116 -0.479142
O3    O     O_2   0.151808 0.336765 0.552048 -0.443309
O4    O     O_2   0.150370 0.764392 0.460872 -0.481367
O5    O     O_R   0.500000 0.316760 0.385350 -0.633697
O6    O     O_R   0.416160 0.499980 0.614700 -0.587102
O7    O     O_R   0.416150 0.499940 0.385360 -0.546916
O8    O     O_R   0.500000 0.683240 0.614650 -0.620131
O9    O     O_R   0.499990 0.683210 0.385310 -0.550526
O10   O     O_R   0.583850 0.500060 0.614640 -0.639826
O11   O     O_R   0.583840 0.500020 0.385300 -0.641990
O12   O     O_2   0.848900 0.733352 0.438386 -0.460349
Zn1   Zn    Zn3+2 0.500000 0.500020 0.653130 1.002625
Zn2   Zn    Zn3+2 0.500000 0.499980 0.346870 1.042439
Br1   Br    Br    0.933853 0.192953 0.719344 -0.241287
S1    S     S_3+6 0.432617 0.861345 0.244876 0.080231
O13   O     O_2   0.395513 0.751623 0.287322 -0.262387
O14   O     O_2   0.396356 0.950569 0.168398 -0.202292
O15   O     O_3   0.484128 0.812365 0.141265 -0.536202
H18   H     H_    0.506092 0.889160 0.115621 0.330458
Br2   Br    Br    0.070730 0.188522 0.689008 -0.192497
S2    S     S_3+6 0.380170 0.248392 0.828780 0.126181
O16   O     O_2   0.368121 0.112723 0.858708 -0.184138
O17   O     O_2   0.329037 0.322647 0.864892 -0.195918
O18   O     O_3   0.390534 0.259849 0.661419 -0.552685
H19   H     H_    0.354534 0.226954 0.619349 0.393538
S3    S     S_3+6 0.369957 0.284163 0.158093 0.115520
O19   O     O_2   0.377135 0.276956 0.309010 -0.324738
O20   O     O_2   0.333923 0.393392 0.124056 -0.251341
O21   O     O_3   0.335108 0.152690 0.107688 -0.389925
H20   H     H_    0.297604 0.154051 0.153679 0.405578
S4    S     S_3+6 0.940584 0.909879 0.429315 0.112033
O22   O     O_2   0.899107 0.938615 0.540113 -0.196900
O23   O     O_2   0.985531 0.013204 0.423992 -0.260483
O24   O     O_3   0.905999 0.903249 0.279392 -0.488494
H21   H     H_    0.886736 0.984023 0.272097 0.396544
S5    S     S_3+6 0.208335 0.547986 0.797005 0.104822
O25   O     O_2   0.186778 0.418486 0.832175 -0.225595
O26   O     O_2   0.250957 0.590942 0.903223 -0.202835
O27   O     O_3   0.153507 0.646144 0.795799 -0.511946
H22   H     H_    0.118631 0.593106 0.810216 0.364689

loop_
_geom_bond_atom_site_label_1
_geom_bond_atom_site_label_2
_ccdc_geom_bond_type
C27   H4    S    
S2    O16   D    
C35   H9    S    
C41   C42   A    
O21   H20   S    
O11   Zn2   S    
C8    S4    S    
S1    O15   S    
S4    O22   D    
C7    C8    A    
C41   O2    S    
C26   C27   A    
C33   C39   S    
C18   C24   A    
C23   C29   S    
C28   C29   A    
C31   H5    S    
O7    Zn2   S    
C30   C31   S    
C15   C16   A    
C40   N1    A    
S5    O27   S    
C18   C19   A    
C15   H16   S    
C32   H8    S    
S1    O14   D    
C38   H11   S    
C10   N2    A    
C16   C17   A    
C37   N4    A    
O8    Zn1   S    
C35   N3    A    
O5    Zn2   S    
C11   H14   S    
C34   O10   A    
C20   C34   S    
C25   C32   S    
C22   H3    S    
C5    C43   A    
C21   C22   A    
C3    Br2   S    
C41   N1    A    
C23   O8    A    
S4    O23   D    
S1    O13   D    
C38   C39   S    
O1    Zn1   S    
C2    Br1   S    
O15   H18   S    
C36   N4    A    
C25   C26   A    
S3    O21   S    
C33   C37   A    
C35   C36   A    
C43   C44   A    
C32   H7    S    
C37   C38   S    
C31   C32   S    
C14   C15   A    
S3    O20   D    
C1    O1    A    
C39   H12   S    
S5    O26   D    
C16   S5    S    
C12   O6    A    
C12   C14   S    
O9    Zn2   S    
S2    O17   D    
C1    C26   S    
N3    Zn2   S    
C22   C24   A    
C42   C43   A    
C23   O9    A    
C3    C4    A    
C39   S3    S    
S4    O24   S    
C21   H2    S    
C25   C30   A    
C11   C17   A    
C24   N1    S    
N4    Zn1   S    
C28   S1    S    
C9    N2    A    
C8    C44   A    
C4    C5    A    
C6    C10   A    
C19   H1    S    
C18   H17   S    
C6    C7    A    
C13   H15   S    
O27   H22   S    
C1    O5    A    
C38   S2    S    
C19   C20   A    
C2    C3    A    
C9    O3    S    
C17   N2    S    
C11   C13   A    
O18   H19   S    
C5    C6    A    
C2    C42   A    
C33   N3    A    
S3    O19   D    
C12   O7    A    
S5    O25   D    
O10   Zn1   S    
C36   H10   S    
C29   C30   A    
C10   O4    S    
C40   C44   A    
C20   C21   A    
S2    O18   S    
C27   C28   A    
C40   O12   S    
O24   H21   S    
C31   H6    S    
C4    C9    A    
C13   C14   A    
C7    H13   S    
O6    Zn1   S    
C34   O11   A    
