data_mof_unit_48154.cif
_audit_creation_date              2012-12-10T19:11:06-0500
_audit_creation_method            fapswitch 2.2
_symmetry_space_group_name_H-M    P1
_symmetry_Int_Tables_number       1
_space_group_crystal_system       triclinic
_cell_length_a                    10.893314
_cell_length_b                    9.081484
_cell_length_c                    7.850708
_cell_angle_alpha                 90.073403
_cell_angle_beta                  91.17452
_cell_angle_gamma                 89.975753
_cell_volume                      776.486702187

loop_
_atom_site_label
_atom_site_type_symbol
_atom_type_description
_atom_site_fract_x
_atom_site_fract_y
_atom_site_fract_z
_atom_type_partial_charge
C1    C     C_R   0.499842 0.220316 0.499935 0.836560
C2    C     C_R   0.259636 0.498855 0.497383 0.968475
C3    C     C_R   0.740290 0.498319 0.500740 0.892903
C4    C     C_R   0.499814 0.779691 0.500059 0.846109
C5    C     C_1   0.499841 0.065464 0.499919 -0.111736
C6    C     C_3   0.074381 0.341761 0.566891 0.354443
C7    C     C_3   0.069087 0.511730 0.296892 0.340150
C8    C     C_3   0.926829 0.338624 0.565105 0.333338
C9    C     C_3   0.922746 0.521676 0.305353 0.381522
C10   C     C_1   0.499832 0.934546 0.500096 -0.113804
C11   C     C_3   0.075147 0.641228 0.597199 0.198899
C12   C     C_3   0.929393 0.628276 0.619904 0.184921
C13   C     C_3   0.121729 0.498073 0.491224 -0.161576
C14   C     C_3   0.878408 0.496928 0.499274 -0.129992
Cu1   Cu    Cu3+1 0.500000 0.500010 0.669080 1.099416
Cu2   Cu    Cu3+1 0.500000 0.500010 0.330920 1.091180
N1    N     N_1   0.500000 0.499970 0.076820 -0.006423
N2    N     N_1   0.500000 0.499970 0.923180 -0.002842
O1    O     O_R   0.500000 0.288400 0.642760 -0.555003
O2    O     O_R   0.500000 0.288400 0.357240 -0.589570
O3    O     O_R   0.317700 0.499990 0.642790 -0.539968
O4    O     O_R   0.317700 0.499990 0.357210 -0.579429
O5    O     O_R   0.682300 0.499990 0.642790 -0.545045
O6    O     O_R   0.682300 0.499990 0.357210 -0.546239
O7    O     O_R   0.500000 0.711620 0.642810 -0.586398
O8    O     O_R   0.500000 0.711620 0.357190 -0.549220
Cl1   Cl    Cl    0.136480 0.306729 0.778066 -0.630398
Cl2   Cl    Cl    0.136153 0.664311 0.179146 -0.600753
Cl3   Cl    Cl    0.863771 0.285540 0.769426 -0.604002
Cl4   Cl    Cl    0.866658 0.698675 0.226114 -0.581972
N3    N     N_3   0.127932 0.217498 0.469455 -0.573538
H1    H     H_    0.077627 0.184822 0.362065 0.264289
H2    H     H_    0.130931 0.121611 0.542916 0.258378
N4    N     N_3   0.103442 0.384416 0.192113 -0.595789
H3    H     H_    0.069267 0.401877 0.069289 0.289079
H4    H     H_    0.197439 0.372244 0.176751 0.298978
N5    N     N_3   0.879003 0.220706 0.453209 -0.609730
H5    H     H_    0.904145 0.117755 0.502685 0.261670
H6    H     H_    0.782997 0.221253 0.450720 0.239758
N6    N     N_3   0.860863 0.412671 0.190784 -0.533339
H7    H     H_    0.901393 0.309496 0.179102 0.279811
H8    H     H_    0.845760 0.454003 0.068835 0.304524
N7    N     N_3   0.140973 0.659177 0.763003 -0.528157
H9    H     H_    0.144672 0.569041 0.842355 0.299800
H10   H     H_    0.105076 0.747843 0.831009 0.266293
N8    N     N_3   0.108644 0.776503 0.502867 -0.506474
H11   H     H_    0.124723 0.865810 0.584480 0.221587
H12   H     H_    0.041712 0.813803 0.417339 0.316474
N9    N     N_3   0.897511 0.599211 0.798298 -0.522908
H13   H     H_    0.958553 0.526922 0.856228 0.269897
H14   H     H_    0.901709 0.695961 0.870347 0.275527
N10   N     N_3   0.867866 0.768701 0.574613 -0.540808
H15   H     H_    0.905171 0.854400 0.648365 0.228210
H16   H     H_    0.774977 0.765120 0.605186 0.242923

loop_
_geom_bond_atom_site_label_1
_geom_bond_atom_site_label_2
_ccdc_geom_bond_type
C2    O4    A    
Cu1   N2    S    
C4    O8    A    
C9    C14   S    
N3    H2    S    
C11   N7    S    
N5    H5    S    
C11   C13   S    
C3    O5    A    
C6    Cl1   S    
C7    C13   S    
Cu2   O2    S    
N10   H16   S    
C2    O3    A    
Cu1   O5    S    
C12   N9    S    
C5    C10   T    
Cu2   O6    S    
C6    C13   S    
Cu1   O1    S    
N7    H10   S    
C3    O6    A    
C3    C14   S    
C9    Cl4   S    
C1    C5    S    
C8    Cl3   S    
N6    H8    S    
N6    H7    S    
C12   N10   S    
C12   C14   S    
N1    N2    T    
N4    H4    S    
N7    H9    S    
Cu2   O8    S    
N4    H3    S    
C7    N4    S    
C8    C14   S    
Cu1   O7    S    
C1    O1    A    
C8    N5    S    
C4    C10   S    
Cu1   Cu2   S    
C6    N3    S    
N8    H12   S    
C4    O7    A    
Cu1   O3    S    
N10   H15   S    
N5    H6    S    
N9    H13   S    
C7    C9    S    
C2    C13   S    
N8    H11   S    
C11   N8    S    
C6    C8    S    
N9    H14   S    
C9    N6    S    
C7    Cl2   S    
N3    H1    S    
C11   C12   S    
Cu2   O4    S    
Cu2   N1    S    
C1    O2    A    
