data_mof_unit_42832.cif
_audit_creation_date              2012-12-11T15:45:42-0500
_audit_creation_method            fapswitch 2.2
_symmetry_space_group_name_H-M    P1
_symmetry_Int_Tables_number       1
_space_group_crystal_system       triclinic
_cell_length_a                    8.277888
_cell_length_b                    19.105991
_cell_length_c                    22.793717
_cell_angle_alpha                 95.024052
_cell_angle_beta                  89.316416
_cell_angle_gamma                 94.312043
_cell_volume                      3580.92426905

loop_
_atom_site_label
_atom_site_type_symbol
_atom_type_description
_atom_site_fract_x
_atom_site_fract_y
_atom_site_fract_z
_atom_type_partial_charge
Ba1   Ba    Ba6+2 0.850680 0.532880 0.472010 1.658057
Ba2   Ba    Ba6+2 0.339140 0.467180 0.527990 1.663331
C1    C     C_3   0.503498 0.742572 0.270049 -0.379470
C2    C     C_R   0.075567 0.565343 0.939973 -0.027169
C3    C     C_R   0.030900 0.561810 0.879845 0.589835
C4    C     C_3   0.086993 0.682303 0.310874 0.317391
C5    C     C_R   0.960831 0.437689 0.879640 0.592374
C6    C     C_R   0.006195 0.439391 0.939531 -0.023410
C7    C     C_R   0.063606 0.503785 0.969950 -0.050121
C8    C     C_R   0.131215 0.629328 0.970717 -0.095885
C9    C     C_R   0.174903 0.633050 0.030219 -0.052439
C10   C     C_R   0.165034 0.571160 0.061258 -0.035069
C11   C     C_R   0.109144 0.506473 0.030429 -0.046428
C12   C     C_3   0.594496 0.714001 0.319457 0.284488
C13   C     C_R   0.995644 0.378010 0.969661 -0.072865
C14   C     C_R   0.041604 0.380290 0.028613 -0.081241
C15   C     C_R   0.098763 0.444122 0.059708 -0.018419
C16   C     C_3   0.051929 0.702714 0.249491 -0.279630
C17   C     C_R   0.146793 0.446490 0.119248 0.586655
C18   C     C_R   0.209042 0.571353 0.121668 0.578842
C19   C     C_2   0.770223 0.478535 0.772002 -0.079191
C20   C     C_3   0.719975 0.485186 0.708815 -0.057888
C21   C     C_1   0.002911 0.513746 0.685726 0.044051
C22   C     C_2   0.047747 0.515989 0.741873 -0.087973
C23   C     C_3   0.486943 0.368406 0.349528 0.260649
C24   C     C_2   0.926304 0.496231 0.788561 0.214251
C25   C     C_R   0.409452 0.537993 0.229568 -0.110417
C26   C     C_R   0.449846 0.544055 0.289909 -0.042572
C27   C     C_R   0.191230 0.485996 0.314058 0.010005
C28   C     C_3   0.198752 0.682309 0.595038 0.307250
C29   C     C_R   0.144746 0.483650 0.254425 -0.086651
C30   C     C_R   0.251746 0.510833 0.211424 0.199405
C31   C     C_2   0.864429 0.480670 0.667940 -0.282121
C32   C     C_R   0.398225 0.701298 0.472128 -0.285548
C33   C     C_R   0.540595 0.723601 0.502267 0.076061
C34   C     C_3   0.454693 0.347452 0.284547 -0.372192
C35   C     C_R   0.594267 0.795394 0.506792 -0.098801
C36   C     C_R   0.502740 0.845582 0.482947 -0.036969
C37   C     C_R   0.349619 0.822646 0.457737 -0.124118
C38   C     C_R   0.299474 0.750084 0.451975 -0.018346
C39   C     C_R   0.580209 0.962371 0.439028 -0.008427
C40   C     C_3   0.211930 0.761734 0.609822 -0.377420
C41   C     C_R   0.635982 0.033533 0.446493 -0.084905
C42   C     C_R   0.674616 0.067157 0.502331 0.018016
C43   C     C_R   0.664347 0.026460 0.551314 -0.021174
C44   C     C_R   0.610448 0.954629 0.543878 -0.093874
C45   C     C_3   0.979473 0.299702 0.679073 0.297390
C46   C     C_R   0.564873 0.921784 0.488210 0.034228
C47   C     C_R   0.867568 0.172141 0.533423 -0.119708
C48   C     C_R   0.913061 0.244571 0.536158 0.024144
C49   C     C_R   0.665522 0.264953 0.487156 0.039632
C50   C     C_R   0.616610 0.192491 0.484701 -0.088253
C51   C     C_R   0.718837 0.145052 0.507758 -0.035146
C52   C     C_3   0.916499 0.313918 0.344246 0.696103
C53   C     C_R   0.812350 0.290080 0.513064 -0.230508
C54   C     C_3   0.907256 0.307715 0.276633 0.296764
C55   C     C_3   0.704564 0.631294 0.649288 0.297898
C56   C     C_3   0.948242 0.269436 0.737927 -0.317705
C57   C     C_3   0.740740 0.661742 0.712167 -0.363599
C58   C     C_1   0.692915 0.771608 0.351452 0.330237
C59   C     C_3   0.031290 0.210439 0.368514 0.270859
C60   C     C_3   0.986203 0.131637 0.366316 -0.354769
C61   C     C_3   0.028941 0.244919 0.198582 0.288375
C62   C     C_3   0.190933 0.225005 0.172502 -0.310677
C63   C     C_1   0.229923 0.701879 0.057289 0.365806
C64   C     C_1   0.531140 0.556745 0.186501 0.353001
C65   C     C_1   0.461429 0.167254 0.459609 0.316401
C66   C     C_1   0.538804 0.933592 0.380036 0.277773
C67   C     C_3   0.504989 0.287020 0.664062 0.337971
C68   C     C_1   0.703927 0.057331 0.609889 0.248707
C69   C     C_1   0.238775 0.873172 0.442483 0.316133
C70   C     C_3   0.487672 0.216245 0.689958 -0.348995
C71   C     C_R   0.339245 0.519957 0.331362 -0.287536
H1    H     H_    0.295322 0.775909 0.647523 0.133030
H2    H     H_    0.821103 0.710947 0.711689 0.143181
H3    H     H_    0.802952 0.624153 0.736615 0.082388
H4    H     H_    0.626185 0.673762 0.735470 0.122682
H5    H     H_    0.503656 0.692523 0.350903 -0.058634
H6    H     H_    0.437980 0.698296 0.243292 0.146267
H7    H     H_    0.373614 0.384996 0.370686 0.057233
H8    H     H_    0.581446 0.412999 0.353712 0.033432
H9    H     H_    0.366151 0.300822 0.279729 0.172385
H10   H     H_    0.405563 0.391077 0.263258 0.087138
H11   H     H_    0.568437 0.334232 0.261543 0.083724
H12   H     H_    0.259464 0.788966 0.571664 0.056943
H13   H     H_    0.588742 0.770955 0.240650 0.141899
H14   H     H_    0.026984 0.654446 0.219333 0.126660
H15   H     H_    0.026206 0.355715 0.687325 0.050055
H16   H     H_    0.862293 0.296440 0.655360 -0.029614
H17   H     H_    0.059132 0.277810 0.765377 0.137344
H18   H     H_    0.847967 0.295757 0.761258 0.156725
H19   H     H_    0.912983 0.212093 0.730929 0.127089
H20   H     H_    0.587643 0.283068 0.625305 -0.013744
H21   H     H_    0.383876 0.299163 0.649802 0.124343
H22   H     H_    0.443119 0.174608 0.655666 0.099680
H23   H     H_    0.090580 0.780073 0.621609 0.125613
H24   H     H_    0.399819 0.218108 0.727176 0.134268
H25   H     H_    0.999406 0.637877 0.320207 0.110792
H26   H     H_    0.606633 0.203185 0.706174 0.130883
H27   H     H_    0.032007 0.331582 0.049866 0.106209
H28   H     H_    0.952220 0.327694 0.947624 0.120270
H29   H     H_    0.140658 0.677268 0.948271 0.123172
H30   H     H_    0.171756 0.532461 0.754409 0.113265
H31   H     H_    0.678500 0.466270 0.804742 0.096945
H32   H     H_    0.026225 0.460676 0.241230 0.115338
H33   H     H_    0.373167 0.523670 0.377292 0.078411
H34   H     H_    0.815128 0.343384 0.361547 -0.008717
H35   H     H_    0.211909 0.664844 0.311968 -0.055638
H36   H     H_    0.856535 0.448856 0.626028 0.068817
H37   H     H_    0.646315 0.063635 0.408255 0.074704
H38   H     H_    0.706255 0.812308 0.529681 0.094010
H39   H     H_    0.600139 0.924411 0.582045 0.069635
H40   H     H_    0.948008 0.137089 0.550986 0.091102
H41   H     H_    0.849541 0.345767 0.514904 0.062528
H42   H     H_    0.943944 0.733866 0.250209 0.149556
H43   H     H_    0.357223 0.645970 0.468636 0.066912
H44   H     H_    0.156417 0.735088 0.232712 0.131202
H45   H     H_    0.880819 0.359277 0.261642 -0.033330
H46   H     H_    0.320245 0.664730 0.584039 0.008916
H47   H     H_    0.116652 0.669435 0.556836 0.060587
H48   H     H_    0.093892 0.227845 0.410746 0.096810
H49   H     H_    0.116912 0.219619 0.331633 0.102469
H50   H     H_    0.097026 0.102267 0.362308 0.115700
H51   H     H_    0.907678 0.114632 0.327725 0.131029
H52   H     H_    0.921133 0.118882 0.407190 0.127811
H53   H     H_    0.965119 0.273247 0.166179 0.081104
H54   H     H_    0.956160 0.195283 0.206900 0.025766
H55   H     H_    0.253278 0.194071 0.203248 0.104444
H56   H     H_    0.802239 0.269629 0.263651 -0.021623
H57   H     H_    0.171172 0.192588 0.129988 0.066523
H58   H     H_    0.269375 0.273050 0.164713 0.166889
H59   H     H_    0.818964 0.615583 0.628301 0.024934
H60   H     H_    0.615359 0.585045 0.649678 0.032177
H61   H     H_    0.413509 0.778805 0.288653 0.108607
N1    N     N_R   0.973952 0.498450 0.850277 -0.426100
N2    N     N_R   0.201186 0.509514 0.149818 -0.422235
N3    N     N_1   0.771909 0.816958 0.376350 -0.246805
N4    N     N_1   0.273871 0.757027 0.078839 -0.264257
N5    N     N_1   0.628758 0.571741 0.152094 -0.283406
N6    N     N_1   0.337332 0.146598 0.439653 -0.316888
N7    N     N_1   0.505102 0.911506 0.332519 -0.298710
N8    N     N_1   0.736339 0.081850 0.656878 -0.305353
N9    N     N_1   0.149865 0.913528 0.430374 -0.261638
O1    O     O_2   0.896730 0.461690 0.361000 -0.503270
O2    O     O_2   0.251931 0.252640 0.548358 -0.492222
O3    O     O_3   0.094690 0.261078 0.647412 -0.609742
O4    O     O_3   0.137170 0.462400 0.432040 -0.455922
O5    O     O_3   0.560670 0.583970 0.528500 -0.484861
O6    O     O_2   0.373560 0.329680 0.473470 -0.446067
O7    O     O_3   0.538719 0.309974 0.374952 -0.634705
O8    O     O_2   0.382599 0.443113 0.706540 -0.488641
O9    O     O_3   0.567723 0.338874 0.706888 -0.615515
O10   O     O_2   0.040956 0.615411 0.854013 -0.592509
O11   O     O_2   0.910610 0.381919 0.853548 -0.610367
O12   O     O_3   0.638476 0.683069 0.619708 -0.637268
O13   O     O_2   0.142178 0.392038 0.143702 -0.616155
O14   O     O_2   0.254720 0.626674 0.149349 -0.623273
O15   O     O_3   0.657500 0.588540 0.395070 -0.471453
O16   O     O_2   0.783957 0.536980 0.292352 -0.502389
O17   O     O_3   0.064005 0.348346 0.365453 -0.656795
O18   O     O_3   0.699951 0.664976 0.294459 -0.607948
O19   O     O_2   0.816140 0.670340 0.526560 -0.466747
O20   O     O_3   0.069580 0.624410 0.423530 -0.500570
O21   O     O_2   0.964433 0.749695 0.460084 -0.463333
O22   O     O_3   0.888350 0.246206 0.365428 -0.689520
O23   O     O_3   0.068837 0.740541 0.351719 -0.585275
O24   O     O_3   0.056027 0.287967 0.251586 -0.653709
O25   O     O_2   0.292960 0.538340 0.639040 -0.468179
O26   O     O_3   0.052540 0.537650 0.567960 -0.491203
O27   O     O_3   0.532200 0.411510 0.604930 -0.483460
O28   O     O_3   0.138205 0.650650 0.644491 -0.629390
O29   O     O_3   0.629030 0.416090 0.471500 -0.478413
O30   O     O_3   0.120120 0.375640 0.576470 -0.477025
P1    P     P_3+3 0.067040 0.441110 0.370020 0.978625
P2    P     P_3+3 0.640420 0.660110 0.543790 0.989618
P3    P     P_3+3 0.099868 0.716010 0.422658 0.967740
P4    P     P_3+3 0.122660 0.558950 0.629980 0.995240
P5    P     P_3+3 0.096548 0.283314 0.574631 0.959862
P6    P     P_3+3 0.647645 0.581674 0.317927 0.952740
P7    P     P_3+3 0.553686 0.328954 0.451221 0.978416
P8    P     P_3+3 0.548831 0.421967 0.681810 0.956333

loop_
_geom_bond_atom_site_label_1
_geom_bond_atom_site_label_2
_ccdc_geom_bond_type
C47   H40   S    
C19   C24   D    
C4    O23   S    
C44   H39   S    
C23   H7    S    
C39   C41   A    
C55   H59   S    
C27   P1    S    
O15   P6    S    
C1    H6    S    
C57   H4    S    
C60   H51   S    
O4    P1    S    
C5    C6    A    
C43   C44   A    
C42   C43   A    
C55   O12   S    
C52   H34   S    
C40   H23   S    
C4    H25   S    
O7    P7    S    
Ba1   O15   S    
C48   P5    S    
C22   C24   S    
C32   C33   A    
C20   P8    S    
C67   H20   S    
Ba2   O30   S    
C36   C37   A    
C3    O10   D    
C55   C57   S    
C27   C71   A    
C28   H46   S    
C26   C71   A    
C34   H10   S    
C32   H43   S    
C13   C14   A    
O3    P5    S    
C59   H48   S    
Ba1   Ba2   S    
C7    C11   A    
C24   N1    S    
C70   H22   S    
C42   C51   S    
C64   N5    T    
C34   H9    S    
C14   C15   A    
C62   H55   S    
O2    P5    D    
C21   C22   D    
Ba2   P4    S    
O18   P6    S    
C56   H18   S    
C36   C46   S    
C54   H56   S    
C58   N3    T    
O29   P7    S    
Ba2   O6    S    
C61   O24   S    
C25   C30   A    
C45   O3    S    
C19   C20   S    
C1    H13   S    
C23   H8    S    
C17   O13   D    
C45   H16   S    
C55   H60   S    
C54   H45   S    
C28   C40   S    
O20   P3    S    
O26   P4    S    
C60   H50   S    
O8    P8    D    
C39   C66   S    
C44   C46   A    
C70   H24   S    
C4    C16   S    
C52   C54   S    
Ba1   P1    S    
C40   H1    S    
O5    P2    S    
C68   N8    T    
C49   C50   A    
C8    H29   S    
C67   H21   S    
C37   C38   A    
C38   P3    S    
C6    C7    A    
O19   P2    D    
Ba2   O26   S    
C49   C53   A    
C21   C31   D    
C17   N2    Am   
O6    P7    D    
C13   H28   S    
C59   H49   S    
C67   C70   S    
C41   C42   A    
C5    N1    Am   
C35   C36   A    
Ba2   O25   S    
C29   C30   A    
C62   H58   S    
C2    C7    A    
C10   C18   A    
C66   N7    T    
C40   H12   S    
C18   N2    Am   
O28   P4    S    
C65   N6    T    
C56   H17   S    
C16   H44   S    
C50   C65   S    
Ba2   O27   S    
C63   N4    T    
C41   H37   S    
C62   H57   S    
Ba1   O19   S    
C6    C13   A    
C30   N2    S    
C18   O14   D    
C19   H31   S    
O27   P8    S    
C32   C38   A    
Ba1   O4    S    
C31   H36   S    
C52   O22   S    
C2    C8    A    
C49   P7    S    
C57   H2    S    
C50   C51   A    
C69   N9    T    
O12   P2    S    
C3    N1    Am   
C20   C31   S    
Ba1   P2    S    
C37   C69   S    
C33   C35   A    
C43   C68   S    
C67   O9    S    
O17   P1    S    
C14   H27   S    
C48   C53   A    
O16   P6    D    
C2    C3    A    
C16   H42   S    
C60   H52   S    
C9    C10   A    
C53   H41   S    
C1    C12   S    
C12   C58   S    
Ba1   O29   S    
O23   P3    S    
C16   H14   S    
C11   C15   A    
C1    H61   S    
C33   P2    S    
C45   H15   S    
C22   H30   S    
C12   O18   S    
Ba2   O4    S    
C27   C29   A    
Ba1   O1    S    
C45   C56   S    
C71   H33   S    
C5    O11   D    
C28   H47   S    
O30   P5    S    
C34   H11   S    
O25   P4    D    
C47   C51   A    
C54   O24   S    
Ba1   O26   S    
C15   C17   A    
C39   C46   A    
O21   P3    D    
C59   O22   S    
C12   H5    S    
C59   C60   S    
C26   P6    S    
C28   O28   S    
C21   P4    S    
C61   H53   S    
C8    C9    A    
C23   C34   S    
C52   O17   S    
C61   C62   S    
C35   H38   S    
C10   C11   A    
Ba1   O20   S    
C47   C48   A    
C29   H32   S    
O1    P1    D    
C25   C26   A    
C25   C64   S    
C4    H35   S    
C56   H19   S    
C23   O7    S    
Ba1   O5    S    
O9    P8    S    
Ba2   O5    S    
C57   H3    S    
C61   H54   S    
C9    C63   S    
Ba2   O29   S    
C70   H26   S    
