data_mof_unit_10954.cif
_audit_creation_date              2012-12-10T16:59:17-0500
_audit_creation_method            fapswitch 2.2
_symmetry_space_group_name_H-M    P1
_symmetry_Int_Tables_number       1
_space_group_crystal_system       triclinic
_cell_length_a                    7.771044
_cell_length_b                    8.553965
_cell_length_c                    27.701384
_cell_angle_alpha                 91.586107
_cell_angle_beta                  85.628729
_cell_angle_gamma                 93.48979
_cell_volume                      1832.1484572

loop_
_atom_site_label
_atom_site_type_symbol
_atom_type_description
_atom_site_fract_x
_atom_site_fract_y
_atom_site_fract_z
_atom_type_partial_charge
C1    C     C_R   0.545624 0.794679 0.498768 0.946455
C2    C     C_R   0.454376 0.205321 0.501232 0.946454
C3    C     C_R   0.501170 0.501075 0.898222 -0.051618
C4    C     C_R   0.498829 0.498926 0.101778 -0.051618
C5    C     C_R   0.539638 0.641708 0.873267 -0.023709
C6    C     C_R   0.460362 0.358294 0.126733 -0.023709
C7    C     C_R   0.559561 0.782574 0.899335 -0.106943
C8    C     C_R   0.440439 0.217428 0.100665 -0.106944
C9    C     C_R   0.461051 0.362270 0.872022 -0.065676
C10   C     C_R   0.538949 0.637732 0.127977 -0.065676
C11   C     C_R   0.506164 0.500972 0.646524 -0.040211
C12   C     C_R   0.493836 0.499028 0.353476 -0.040211
C13   C     C_R   0.552376 0.640327 0.025812 -0.007230
C14   C     C_R   0.447624 0.359675 0.974188 -0.007230
C15   C     C_R   0.460098 0.358133 0.024916 0.074893
C16   C     C_R   0.539902 0.641869 0.975084 0.074893
C17   C     C_R   0.501490 0.499805 0.050648 0.048463
C18   C     C_R   0.498510 0.500197 0.949352 0.048464
C19   C     C_R   0.621413 0.770462 0.053057 0.211332
C20   C     C_R   0.378587 0.229539 0.946943 0.211332
C21   C     C_R   0.601780 0.771624 0.103330 -0.155323
C22   C     C_R   0.398220 0.228378 0.896670 -0.155323
C23   C     C_R   0.501993 0.500307 0.593914 0.852745
C24   C     C_R   0.498007 0.499693 0.406086 0.852746
C25   C     C_R   0.552704 0.782751 0.949455 -0.104782
C26   C     C_R   0.447296 0.217251 0.050545 -0.104781
C27   C     C_2   0.569826 0.958044 0.498032 -0.349492
C28   C     C_2   0.430174 0.041956 0.501968 -0.349492
C29   C     C_R   0.546742 0.638903 0.822681 0.520582
C30   C     C_R   0.453258 0.361099 0.177319 0.520582
C31   C     C_R   0.470933 0.364313 0.821446 0.534107
C32   C     C_R   0.529068 0.635688 0.178554 0.534107
C33   C     C_R   0.667589 0.501231 0.717875 -0.099446
C34   C     C_R   0.332410 0.498764 0.282125 -0.099446
C35   C     C_R   0.664686 0.500348 0.667757 -0.182294
C36   C     C_R   0.335314 0.499647 0.332243 -0.182295
C37   C     C_R   0.351034 0.502653 0.676005 -0.192057
C38   C     C_R   0.648967 0.497355 0.323995 -0.192057
C39   C     C_R   0.354434 0.503048 0.725993 -0.094965
C40   C     C_R   0.645567 0.496960 0.274007 -0.094964
C41   C     C_R   0.512427 0.502177 0.746832 0.313953
C42   C     C_R   0.487573 0.497825 0.253168 0.313952
H1    H     H_    0.227175 0.503061 0.660544 0.175165
H2    H     H_    0.772826 0.496952 0.339456 0.175163
H3    H     H_    0.234559 0.503883 0.748650 0.141321
H4    H     H_    0.765442 0.496130 0.251350 0.141321
H5    H     H_    0.575686 0.893747 0.881225 0.196570
H6    H     H_    0.424314 0.106255 0.118775 0.196570
H7    H     H_    0.213999 0.500485 0.354241 0.188186
H8    H     H_    0.786000 0.499504 0.645759 0.188184
H9    H     H_    0.210271 0.499464 0.265757 0.140735
H10   H     H_    0.789728 0.500525 0.734243 0.140735
H11   H     H_    0.649906 0.874097 0.123160 0.217173
H12   H     H_    0.350094 0.125904 0.876840 0.217173
H13   H     H_    0.549456 0.895386 0.967618 0.190654
H14   H     H_    0.450544 0.104616 0.032382 0.190654
H15   H     H_    0.701874 0.008711 0.494254 0.206638
H16   H     H_    0.298126 0.991289 0.505746 0.206638
N1    N     N_R   0.514168 0.501154 0.798096 -0.362321
N2    N     N_R   0.485832 0.498847 0.201904 -0.362321
N3    N     N_2   0.950320 0.457960 0.486880 0.250423
N4    N     N_2   0.049680 0.542040 0.513120 0.250423
O1    O     O_R   0.389250 0.738570 0.503220 -0.609317
O2    O     O_R   0.610750 0.261430 0.496780 -0.609317
O3    O     O_R   0.678390 0.711630 0.494810 -0.581804
O4    O     O_R   0.321610 0.288370 0.505190 -0.581804
O5    O     O_R   0.355440 0.513440 0.575450 -0.616880
O6    O     O_R   0.644560 0.486560 0.424550 -0.616880
O7    O     O_R   0.644590 0.486500 0.567040 -0.588882
O8    O     O_R   0.355410 0.513500 0.432960 -0.588882
O9    O     O_2   0.583810 0.772523 0.798193 -0.520931
O10   O     O_2   0.416190 0.227478 0.201807 -0.520931
O11   O     O_2   0.563900 0.768684 0.204300 -0.523008
O12   O     O_2   0.436100 0.231318 0.795699 -0.523008
Zn1   Zn    Zn3+2 0.306940 0.517990 0.505620 1.111458
Zn2   Zn    Zn3+2 0.693060 0.482010 0.494380 1.111458
F1    F     F_    0.030461 0.358392 0.456119 -0.574376
F2    F     F_    0.969539 0.641607 0.543881 -0.574375
Br1   Br    Br    0.787616 0.929748 0.027654 -0.469584
Br2   Br    Br    0.212384 0.070253 0.972346 -0.469584

loop_
_geom_bond_atom_site_label_1
_geom_bond_atom_site_label_2
_ccdc_geom_bond_type
C21   H11   S    
C8    C26   A    
C14   C18   A    
C34   C42   A    
C24   O8    A    
C39   C41   A    
C33   H10   S    
C40   H4    S    
C34   H9    S    
O3    Zn2   S    
C3    C18   A    
C19   C21   A    
C9    C22   A    
C31   N1    A    
O7    Zn2   S    
C23   O5    A    
C11   C37   A    
C23   O7    A    
C29   N1    A    
N3    F1    S    
C30   N2    A    
C1    O3    A    
C12   C36   A    
C39   H3    S    
C40   C42   A    
N3    Zn2   S    
C22   H12   S    
C1    O1    A    
C2    O2    A    
C5    C29   A    
C10   C21   A    
C20   Br2   S    
C14   C20   A    
C41   N1    S    
C4    C6    A    
C27   H15   S    
C42   N2    S    
C32   O11   S    
C5    C7    A    
C13   C19   A    
C15   C26   A    
C6    C8    A    
C3    C5    A    
C24   O6    A    
C7    H5    S    
C37   H1    S    
C8    H6    S    
C38   H2    S    
C3    C9    A    
C35   H8    S    
O2    Zn2   S    
C19   Br1   S    
C4    C17   A    
C6    C30   A    
C20   C22   A    
N4    Zn1   S    
O5    Zn1   S    
C32   N2    A    
C4    C10   A    
O8    Zn1   S    
C16   C25   A    
C15   C17   A    
N4    F2    S    
C25   H13   S    
C2    O4    A    
C26   H14   S    
C30   O10   S    
C28   H16   S    
O6    Zn2   S    
C12   C24   S    
C7    C25   A    
C13   C17   A    
C33   C41   A    
C11   C35   A    
C37   C39   A    
C38   C40   A    
O1    Zn1   S    
O4    Zn1   S    
C11   C23   S    
C33   C35   A    
C34   C36   A    
C12   C38   A    
N3    N4    D    
C31   O12   S    
C9    C31   A    
C10   C32   A    
C16   C18   A    
C13   C16   A    
C27   C28   D    
C1    C27   S    
C14   C15   A    
C2    C28   S    
C36   H7    S    
C29   O9    S    
