data_mof_unit_40026.cif
_audit_creation_date              2012-12-10T17:58:21-0500
_audit_creation_method            fapswitch 2.2
_symmetry_space_group_name_H-M    P1
_symmetry_Int_Tables_number       1
_space_group_crystal_system       triclinic
_cell_length_a                    9.527245
_cell_length_b                    10.792753
_cell_length_c                    15.447565
_cell_angle_alpha                 89.831896
_cell_angle_beta                  74.607264
_cell_angle_gamma                 89.859846
_cell_volume                      1531.4127521

loop_
_atom_site_label
_atom_site_type_symbol
_atom_type_description
_atom_site_fract_x
_atom_site_fract_y
_atom_site_fract_z
_atom_type_partial_charge
C1    C     C_R   0.998913 0.262377 0.502903 0.845137
C2    C     C_R   0.001082 0.737625 0.497111 0.845735
C3    C     C_R   0.567201 0.417440 0.087139 -0.235049
C4    C     C_R   0.433205 0.583307 0.913090 -0.291287
C5    C     C_R   0.713441 0.396155 0.043821 -0.137759
C6    C     C_R   0.285977 0.601972 0.955428 -0.134271
C7    C     C_R   0.881372 0.060917 0.559833 0.004091
C8    C     C_R   0.118635 0.939085 0.440202 0.002515
C9    C     C_R   0.883348 0.932505 0.552636 -0.207423
C10   C     C_R   0.116654 0.067497 0.447396 -0.206417
C11   C     C_R   0.001124 0.871590 0.494785 -0.119079
C12   C     C_R   0.998875 0.128412 0.505241 -0.119882
C13   C     C_R   0.548269 0.430426 0.560749 -0.006944
C14   C     C_R   0.451714 0.569625 0.439284 0.003516
C15   C     C_R   0.399519 0.430556 0.560782 -0.009962
C16   C     C_R   0.600460 0.569510 0.439260 0.008082
C17   C     C_R   0.918428 0.498529 0.672220 0.834377
C18   C     C_R   0.081587 0.501398 0.327757 0.838972
C19   C     C_R   0.873458 0.488686 0.770457 -0.013021
C20   C     C_R   0.126614 0.510946 0.229463 -0.029548
C21   C     C_R   0.918710 0.422774 0.910013 -0.219920
C22   C     C_R   0.080540 0.574223 0.089540 -0.157522
C23   C     C_R   0.969629 0.447593 0.818602 -0.110264
C24   C     C_R   0.029836 0.549664 0.181037 -0.109986
C25   C     C_R   0.728441 0.512296 0.815453 -0.211421
C26   C     C_R   0.272033 0.488883 0.184604 -0.210851
C27   C     C_R   0.674539 0.491582 0.908293 0.115423
C28   C     C_R   0.325622 0.508677 0.091650 0.100084
C29   C     C_R   0.769796 0.437118 0.954742 0.063776
C30   C     C_R   0.229746 0.561306 0.044791 0.097182
C31   C     C_R   0.527096 0.518431 0.954603 0.077033
C32   C     C_R   0.473176 0.482088 0.045512 0.058616
Cu1   Cu    Cu3+1 0.140660 0.500020 0.500000 0.991750
Cu2   Cu    Cu3+1 0.859340 0.499980 0.500000 0.993932
H1    H     H_    0.343179 0.462021 0.225023 0.150736
H2    H     H_    0.657820 0.540955 0.775147 0.143516
H3    H     H_    0.916179 0.566014 0.214480 0.169833
H4    H     H_    0.082624 0.429052 0.784908 0.144303
H5    H     H_    0.996427 0.389728 0.944669 0.156663
H6    H     H_    0.001855 0.604916 0.054920 0.169049
H7    H     H_    0.528463 0.376653 0.152863 0.164617
H8    H     H_    0.473180 0.626272 0.848249 0.154062
H9    H     H_    0.795654 0.878819 0.595403 0.184438
H10   H     H_    0.204350 0.121181 0.404630 0.185212
H11   H     H_    0.583225 0.374427 0.609362 0.151263
H12   H     H_    0.416745 0.625657 0.390693 0.151667
H13   H     H_    0.322648 0.374811 0.609425 0.122623
H14   H     H_    0.677314 0.625320 0.390658 0.126348
N1    N     N_R   0.352080 0.500030 0.499980 -0.165794
N2    N     N_R   0.647920 0.499970 0.500020 -0.166605
O1    O     O_R   0.118740 0.319660 0.500000 -0.587496
O2    O     O_R   0.881260 0.680340 0.500000 -0.588422
O3    O     O_R   0.881170 0.319630 0.500010 -0.558575
O4    O     O_R   0.118830 0.680370 0.499990 -0.559976
O5    O     O_R   0.055570 0.500030 0.629830 -0.585502
O6    O     O_R   0.944430 0.499970 0.370170 -0.582658
O7    O     O_R   0.818000 0.500000 0.629840 -0.580599
O8    O     O_R   0.182000 0.500000 0.370160 -0.578855
C33   C     C_2   0.800628 0.322430 0.092668 0.868730
O9    O     O_2   0.796749 0.349157 0.169997 -0.558051
O10   O     O_R   0.881302 0.218832 0.053792 -0.707288
H15   H     H_    0.864572 0.195550 0.993832 0.308958
C34   C     C_2   0.198611 0.675077 0.906026 0.880172
O11   O     O_2   0.119098 0.758369 0.944053 -0.526694
O12   O     O_R   0.211203 0.654704 0.814874 -0.724880
H16   H     H_    0.274968 0.581139 0.789528 0.278638
C35   C     C_2   0.759573 0.119569 0.628122 0.834821
O13   O     O_2   0.780402 0.212577 0.667967 -0.620148
O14   O     O_R   0.621425 0.065337 0.649282 -0.751227
H17   H     H_    0.547740 0.113014 0.697084 0.335384
C36   C     C_2   0.240457 0.880438 0.371927 0.838823
O15   O     O_2   0.219654 0.787422 0.332081 -0.613672
O16   O     O_R   0.378597 0.934682 0.350781 -0.750941
H18   H     H_    0.452304 0.887003 0.302992 0.337911

loop_
_geom_bond_atom_site_label_1
_geom_bond_atom_site_label_2
_ccdc_geom_bond_type
Cu1   O5    S    
C34   O12   S    
Cu2   O6    S    
Cu1   O8    S    
C27   C29   A    
O16   H18   S    
C10   H10   S    
C15   H13   S    
C16   H14   S    
C14   H12   S    
C20   C26   A    
C22   C24   A    
C16   N2    A    
C14   N1    A    
Cu1   N1    S    
C1    O3    A    
C18   O8    A    
C20   C24   A    
Cu2   O7    S    
C17   O5    A    
O10   H15   S    
C18   O6    A    
C9    H9    S    
C33   O9    D    
O14   H17   S    
C1    C12   S    
C2    C11   S    
C10   C12   A    
C24   H3    S    
C5    C29   A    
C21   C23   A    
C7    C12   A    
Cu2   N2    S    
C33   O10   S    
C5    C33   S    
C27   C31   A    
C35   O13   D    
C28   C32   A    
C4    C6    A    
C2    O4    A    
C36   O16   S    
C21   C29   A    
C34   O11   D    
C35   O14   S    
C6    C34   S    
C19   C23   A    
C9    C11   A    
C31   C32   A    
C21   H5    S    
C22   H6    S    
Cu1   Cu2   S    
C1    O1    A    
C2    O2    A    
C6    C30   A    
C13   C15   A    
C14   C16   A    
C25   C27   A    
Cu1   O4    S    
C7    C9    A    
C3    H7    S    
C8    C36   S    
C22   C30   A    
Cu2   O2    S    
C3    C5    A    
Cu1   O1    S    
C23   H4    S    
C26   C28   A    
C28   C30   A    
C36   O15   D    
C13   H11   S    
C4    H8    S    
C8    C11   A    
C17   C19   S    
C18   C20   S    
C15   N1    A    
C3    C32   A    
C19   C25   A    
C4    C31   A    
C25   H2    S    
C7    C35   S    
C13   N2    A    
C26   H1    S    
Cu2   O3    S    
C8    C10   A    
O12   H16   S    
C17   O7    A    
