data_mof_unit_21853.cif
_audit_creation_date              2012-10-26T19:55:47-0400
_audit_creation_method            fapswitch 2.2
_symmetry_space_group_name_H-M    P1
_symmetry_Int_Tables_number       1
_space_group_crystal_system       triclinic
_cell_length_a                    10.909833
_cell_length_b                    10.89254
_cell_length_c                    9.588861
_cell_angle_alpha                 90.093153
_cell_angle_beta                  90.921547
_cell_angle_gamma                 93.178911
_cell_volume                      1137.59570142

loop_
_atom_site_label
_atom_site_type_symbol
_atom_type_description
_atom_site_fract_x
_atom_site_fract_y
_atom_site_fract_z
_atom_type_partial_charge
C1    C     C_R   0.492741 0.262120 0.500212 0.535061
C2    C     C_R   0.820285 0.396997 0.980977 -0.144281
C3    C     C_R   0.747055 0.287979 0.971210 -0.072121
C4    C     C_R   0.261666 0.494268 0.498569 0.542942
C5    C     C_R   0.734983 0.223232 0.843583 0.177250
C6    C     C_R   0.795690 0.272305 0.725986 -0.035707
C7    C     C_R   0.868657 0.382384 0.735853 0.063989
C8    C     C_R   0.363486 0.119426 0.721819 -0.082546
C9    C     C_R   0.319798 0.055643 0.837370 -0.133551
C10   C     C_R   0.323212 0.929349 0.840672 -0.148163
C11   C     C_R   0.366663 0.866421 0.727131 -0.113188
C12   C     C_R   0.146607 0.672222 0.981252 -0.114649
C13   C     C_R   0.424078 0.930454 0.614398 0.023428
C14   C     C_R   0.423255 0.060495 0.612846 0.034802
C15   C     C_R   0.479627 0.127342 0.501360 -0.012503
C16   C     C_R   0.492995 0.736913 0.500516 0.532837
C17   C     C_R   0.528466 0.064469 0.389917 -0.172553
C18   C     C_R   0.528413 0.937681 0.390250 -0.168605
C19   C     C_R   0.480146 0.869788 0.502439 -0.005435
C20   C     C_R   0.663702 0.664895 0.146900 -0.103250
C21   C     C_R   0.746044 0.742824 0.075975 -0.191665
C22   C     C_R   0.746508 0.742012 0.932232 -0.183770
C23   C     C_R   0.933471 0.546660 0.393708 -0.176885
C24   C     C_R   0.664299 0.663625 0.858509 -0.086320
C25   C     C_R   0.580094 0.581297 0.926503 0.160489
C26   C     C_R   0.579889 0.581584 0.076202 0.158936
C27   C     C_R   0.426075 0.420849 0.072788 -0.000921
C28   C     C_R   0.737013 0.498760 0.501567 0.536219
C29   C     C_R   0.425610 0.421651 0.925274 0.004919
C30   C     C_R   0.120216 0.756198 0.085551 -0.124959
C31   C     C_R   0.104707 0.716493 0.222784 -0.093751
C32   C     C_R   0.113207 0.591759 0.256122 0.070659
C33   C     C_R   0.139898 0.508071 0.150845 -0.062448
C34   C     C_R   0.869733 0.494966 0.505042 -0.037436
C35   C     C_R   0.158028 0.548714 0.014361 -0.115600
C36   C     C_3   0.633303 0.038766 0.952351 -0.304289
C37   C     C_3   0.098805 0.209768 0.621156 -0.317452
C38   C     C_R   0.932647 0.435487 0.612330 -0.000514
C39   C     C_R   0.059400 0.424071 0.602076 0.114181
C40   C     C_R   0.126237 0.487145 0.495302 0.002347
C41   C     C_R   0.060111 0.544225 0.387067 -0.058036
C42   C     C_R   0.880348 0.444240 0.863860 -0.090702
Cu1   Cu    Cu3+1 0.499990 0.499990 0.640660 0.911633
Cu2   Cu    Cu3+1 0.500010 0.500010 0.359340 0.919030
H1    H     H_    0.155441 0.701998 0.874131 0.106136
H2    H     H_    0.365119 0.356017 0.126823 0.104647
H3    H     H_    0.108037 0.851445 0.059592 0.096350
H4    H     H_    0.670902 0.673268 0.256993 0.177922
H5    H     H_    0.809908 0.804487 0.133282 0.111150
H6    H     H_    0.810672 0.803084 0.877146 0.118081
H7    H     H_    0.671873 0.670468 0.748599 0.184922
H8    H     H_    0.363137 0.358662 0.870761 0.080920
H9    H     H_    0.078509 0.781255 0.301290 0.095376
H10   H     H_    0.140379 0.410631 0.173133 0.096405
H11   H     H_    0.175188 0.483521 0.932953 0.112583
H12   H     H_    0.700343 0.255464 0.063752 0.111451
H13   H     H_    0.883767 0.589415 0.309540 0.130163
H14   H     H_    0.933851 0.530597 0.871853 0.123773
H15   H     H_    0.829179 0.445968 0.079272 0.130108
H16   H     H_    0.676150 0.060287 0.741219 0.243940
H17   H     H_    0.585101 0.950271 0.921335 0.169026
H18   H     H_    0.571145 0.087496 0.021272 0.148534
H19   H     H_    0.719370 0.018863 0.009360 0.131882
H20   H     H_    0.195461 0.351778 0.729623 0.255342
H21   H     H_    0.110655 0.139186 0.702594 0.149404
H22   H     H_    0.168434 0.201077 0.538943 0.135448
H23   H     H_    0.785507 0.225303 0.626453 0.078985
H24   H     H_    0.005993 0.191829 0.573661 0.145267
H25   H     H_    0.570959 0.113844 0.303639 0.125942
H26   H     H_    0.344133 0.214021 0.717218 0.131860
H27   H     H_    0.278743 0.104015 0.921958 0.098939
H28   H     H_    0.289069 0.879929 0.930157 0.120963
H29   H     H_    0.351165 0.768176 0.730890 0.160278
H30   H     H_    0.570680 0.892745 0.303864 0.128682
N1    N     N_R   0.501190 0.501210 0.147910 -0.242930
N2    N     N_R   0.501230 0.501290 0.852040 -0.243215
N3    N     N_2   0.660691 0.111404 0.829256 -0.506803
N4    N     N_2   0.111617 0.330944 0.683836 -0.531781
O1    O     O_R   0.499990 0.319640 0.618810 -0.495975
O2    O     O_R   0.500000 0.319660 0.381240 -0.510071
O3    O     O_R   0.319640 0.500000 0.618780 -0.525506
O4    O     O_R   0.319650 0.500020 0.381210 -0.492623
O5    O     O_R   0.500000 0.680340 0.618760 -0.540148
O6    O     O_R   0.500010 0.680360 0.381190 -0.515003
O7    O     O_R   0.680350 0.499980 0.618790 -0.511102
O8    O     O_R   0.680360 0.500000 0.381220 -0.526744

loop_
_geom_bond_atom_site_label_1
_geom_bond_atom_site_label_2
_ccdc_geom_bond_type
C17   H25   S    
C27   C29   A    
Cu1   O5    S    
C42   H14   S    
C21   H5    S    
C29   N2    A    
Cu2   O4    S    
C36   N3    S    
C30   C31   A    
Cu2   O8    S    
Cu1   O1    S    
C37   H24   S    
C16   O6    A    
C23   H13   S    
C18   C19   A    
C7    C42   A    
C4    O3    A    
C4    C40   S    
C8    C9    A    
C37   H21   S    
C32   C41   S    
C1    C15   S    
C36   H19   S    
C9    C10   A    
C22   H6    S    
C24   H7    S    
C28   C34   S    
C18   H30   S    
C13   C14   A    
C27   N1    A    
C17   C18   A    
C38   C39   A    
H16   N3    S    
C13   C19   A    
C35   H11   S    
Cu1   O7    S    
C39   N4    S    
C30   H3    S    
Cu2   O2    S    
C24   C25   A    
C11   H29   S    
C39   C40   A    
C2    H15   S    
C3    C5    A    
C25   C26   A    
C16   O5    A    
C36   H18   S    
Cu2   N1    S    
Cu1   Cu2   S    
C3    H12   S    
C31   C32   A    
C23   C34   A    
C37   H22   S    
C26   N1    A    
C31   H9    S    
C12   C35   A    
C20   H4    S    
C27   H2    S    
C6    H23   S    
C28   O8    A    
C1    O1    A    
C22   C24   A    
C5    N3    S    
C36   H17   S    
C33   H10   S    
C15   C17   A    
C40   C41   A    
C8    C14   A    
C12   C30   A    
C34   C38   A    
H20   N4    S    
C9    H27   S    
C12   H1    S    
Cu2   O6    S    
C6    C7    A    
C37   N4    S    
C8    H26   S    
C23   C41   A    
C25   N2    A    
C32   C33   A    
C2    C3    A    
C11   C13   A    
C5    C6    A    
C20   C26   A    
C2    C42   A    
C16   C19   S    
Cu1   O3    S    
C33   C35   A    
C7    C38   S    
C10   C11   A    
C4    O4    A    
C20   C21   A    
C28   O7    A    
C1    O2    A    
C14   C15   A    
Cu1   N2    S    
C21   C22   A    
C29   H8    S    
C10   H28   S    
