data_mof_unit_59532.cif
_audit_creation_date              2012-12-10T18:00:15-0500
_audit_creation_method            fapswitch 2.2
_symmetry_space_group_name_H-M    P1
_symmetry_Int_Tables_number       1
_space_group_crystal_system       triclinic
_cell_length_a                    10.820877
_cell_length_b                    9.525658
_cell_length_c                    10.641268
_cell_angle_alpha                 89.870504
_cell_angle_beta                  90.212696
_cell_angle_gamma                 90.068783
_cell_volume                      1096.84792042

loop_
_atom_site_label
_atom_site_type_symbol
_atom_type_description
_atom_site_fract_x
_atom_site_fract_y
_atom_site_fract_z
_atom_type_partial_charge
C1    C     C_R   0.871736 0.500092 0.501954 -0.013987
C2    C     C_R   0.128226 0.499921 0.501100 -0.008772
C3    C     C_R   0.262084 0.499943 0.500226 0.804716
C4    C     C_R   0.737903 0.500045 0.500647 0.793319
C5    C     C_R   0.501103 0.500182 0.259359 0.820821
C6    C     C_R   0.501127 0.499769 0.740577 0.859463
C7    C     C_3   0.461793 0.625975 0.040382 -0.291395
C8    C     C_3   0.544185 0.373264 0.958096 -0.301830
C9    C     C_3   0.577768 0.602650 0.957755 -0.224799
C10   C     C_3   0.427838 0.395535 0.041379 -0.305104
C11   C     C_3   0.389416 0.520901 0.958709 0.524310
C12   C     C_3   0.616332 0.477684 0.041156 0.517849
C13   C     C_3   0.503166 0.498896 0.877013 -0.086286
C14   C     C_3   0.502385 0.500539 0.122808 -0.127657
C15   C     C_R   0.423318 0.074490 0.421632 -0.028515
C16   C     C_R   0.576748 0.925518 0.578299 -0.019813
C17   C     C_R   0.576745 0.074309 0.578302 -0.025738
C18   C     C_R   0.423315 0.925698 0.421634 -0.022111
C19   C     C_R   0.063765 0.372758 0.510625 -0.185930
C20   C     C_R   0.936208 0.627275 0.493018 -0.186246
C21   C     C_R   0.935973 0.372862 0.511368 -0.204009
C22   C     C_R   0.063978 0.627196 0.492634 -0.187938
Cu1   Cu    Cu3+1 0.500000 0.640660 0.500000 0.953210
Cu2   Cu    Cu3+1 0.500000 0.359340 0.500000 0.937863
H1    H     H_    0.427643 0.728441 0.075515 0.148715
H2    H     H_    0.577220 0.271374 0.920647 0.146755
H3    H     H_    0.640537 0.685200 0.920887 0.149233
H4    H     H_    0.365879 0.312128 0.078078 0.147790
H5    H     H_    0.111784 0.273313 0.517573 0.151943
H6    H     H_    0.888209 0.726700 0.485660 0.149980
H7    H     H_    0.887762 0.273457 0.518587 0.150772
H8    H     H_    0.112149 0.726600 0.485125 0.147968
N1    N     N_R   0.500000 0.852070 0.500000 -0.156112
N2    N     N_R   0.500000 0.147930 0.500000 -0.158019
O1    O     O_R   0.319640 0.618740 0.499990 -0.587127
O2    O     O_R   0.680360 0.381260 0.500010 -0.597996
O3    O     O_R   0.680360 0.618740 0.500010 -0.590793
O4    O     O_R   0.319640 0.381260 0.499990 -0.589186
O5    O     O_R   0.499970 0.618770 0.316850 -0.580068
O6    O     O_R   0.500030 0.381230 0.683150 -0.583481
O7    O     O_R   0.500030 0.618770 0.683150 -0.579169
O8    O     O_R   0.499970 0.381230 0.316850 -0.602809
H9    H     H_    0.361864 0.130605 0.358839 0.113864
H10   H     H_    0.638247 0.869411 0.641048 0.113572
H11   H     H_    0.638232 0.130278 0.641059 0.113711
H12   H     H_    0.361862 0.869733 0.358837 0.109176
O9    O     O_3   0.271899 0.542446 0.904168 -0.580320
C23   C     C_3   0.183511 0.560498 0.999778 0.048981
H13   H     H_    0.205458 0.654426 0.057822 0.136172
H14   H     H_    0.178541 0.466029 0.061360 0.135456
C24   C     C_3   0.057065 0.582364 0.939887 -0.750594
H15   H     H_    0.031078 0.488973 0.883262 0.252623
H16   H     H_    0.986672 0.598284 0.014175 0.228860
H17   H     H_    0.058725 0.676277 0.877850 0.245534
O10   O     O_3   0.739618 0.467596 0.084322 -0.594865
C25   C     C_3   0.762866 0.332463 0.133092 0.059709
H18   H     H_    0.747664 0.250202 0.060648 0.137540
H19   H     H_    0.703596 0.310790 0.215834 0.172199
C26   C     C_3   0.897238 0.324198 0.174935 -0.808323
H20   H     H_    0.919013 0.411680 0.240100 0.263717
H21   H     H_    0.914447 0.222833 0.223646 0.201466
H22   H     H_    0.958921 0.331575 0.092042 0.241703

loop_
_geom_bond_atom_site_label_1
_geom_bond_atom_site_label_2
_ccdc_geom_bond_type
C2    C22   A    
C15   C18   A    
Cu2   O4    S    
C5    O8    A    
C4    O2    A    
C1    C21   A    
C8    C13   S    
Cu1   O3    S    
C16   N1    A    
C8    H2    S    
C16   H10   S    
C15   N2    A    
C11   O9    S    
O9    C23   S    
C7    H1    S    
C25   C26   S    
C3    O1    A    
C8    C12   S    
C1    C4    S    
C24   H17   S    
O10   C25   S    
C23   H14   S    
C2    C3    S    
C15   H9    S    
C26   H20   S    
C20   H6    S    
C4    O3    A    
C6    C13   S    
C7    C11   S    
C11   C13   S    
C5    C14   S    
Cu2   O2    S    
C22   H8    S    
Cu1   O5    S    
C18   H12   S    
C23   H13   S    
C19   C21   A    
C12   C14   S    
Cu1   O1    S    
C5    O5    A    
C10   C14   S    
C23   C24   S    
C18   N1    A    
C6    O6    A    
C26   H21   S    
C12   O10   S    
C17   N2    A    
C20   C22   A    
Cu1   Cu2   S    
C24   H15   S    
C19   H5    S    
Cu2   O8    S    
C25   H18   S    
C9    H3    S    
C8    C10   S    
C24   H16   S    
C10   C11   S    
C10   H4    S    
C7    C9    S    
C9    C13   S    
C1    C20   A    
C26   H22   S    
Cu2   O6    S    
C2    C19   A    
C9    C12   S    
C7    C14   S    
Cu2   N2    S    
Cu1   N1    S    
C17   H11   S    
C3    O4    A    
C25   H19   S    
C16   C17   A    
C21   H7    S    
C6    O7    A    
Cu1   O7    S    
