data_mof_unit_44148.cif
_audit_creation_date              2012-12-11T16:05:02-0500
_audit_creation_method            fapswitch 2.2
_symmetry_space_group_name_H-M    P1
_symmetry_Int_Tables_number       1
_space_group_crystal_system       triclinic
_cell_length_a                    10.681917
_cell_length_b                    10.63213
_cell_length_c                    16.933259
_cell_angle_alpha                 98.511242
_cell_angle_beta                  98.635874
_cell_angle_gamma                 61.566888
_cell_volume                      1665.49476571

loop_
_atom_site_label
_atom_site_type_symbol
_atom_type_description
_atom_site_fract_x
_atom_site_fract_y
_atom_site_fract_z
_atom_type_partial_charge
C1    C     C_R   0.355023 0.774481 0.398142 0.539644
C2    C     C_3   0.755387 0.307269 0.248509 -0.128726
C3    C     C_3   0.833697 0.343936 0.325004 0.065661
C4    C     C_3   0.978123 0.225457 0.300972 -0.159895
C5    C     C_3   0.993867 0.335611 0.257879 -0.130643
C6    C     C_3   0.848619 0.453405 0.282550 0.021693
C7    C     C_3   0.770548 0.417659 0.205994 -0.099257
C8    C     C_3   0.915760 0.299070 0.181883 0.045284
C9    C     C_3   0.474032 0.777334 0.220119 -0.133141
C10   C     C_3   0.419512 0.685435 0.253084 -0.113606
C11   C     C_3   0.348036 0.809169 0.317553 0.054583
C12   C     C_R   0.372315 0.348029 0.358266 0.538498
C13   C     C_3   0.404458 0.898961 0.286622 -0.133281
C14   C     C_3   0.264579 0.963265 0.231512 -0.108514
C15   C     C_3   0.208840 0.872446 0.263367 -0.117067
C16   C     C_3   0.278922 0.749897 0.198191 -0.114907
C17   C     C_3   0.333662 0.840465 0.166642 0.059458
C18   C     C_3   0.459476 0.263152 0.775887 -0.113095
C19   C     C_3   0.396296 0.403721 0.735115 -0.107991
C20   C     C_3   0.337388 0.333825 0.663352 0.053971
C21   C     C_3   0.400591 0.194101 0.703510 -0.113275
C22   C     C_3   0.258121 0.252853 0.741075 -0.111279
C23   C     C_R   0.776705 0.377518 0.401881 0.546050
C24   C     C_3   0.195123 0.393589 0.699735 -0.123431
C25   C     C_3   0.253870 0.462353 0.773067 -0.121606
C26   C     C_3   0.317883 0.321974 0.812758 0.053799
C27   C     C_1   0.817368 0.341590 0.709581 -0.045066
C28   C     C_1   0.843744 0.315034 0.778139 -0.047989
C29   C     C_1   0.338265 0.811986 0.709775 -0.047674
C30   C     C_1   0.313219 0.839332 0.778507 -0.045935
C31   C     C_R   0.958638 0.284143 0.102422 0.555365
C32   C     C_R   0.319962 0.300518 0.119758 0.533709
C33   C     C_R   0.298022 0.884961 0.086181 0.532864
C34   C     C_R   0.356738 0.771160 0.627239 0.543663
C35   C     C_R   0.884730 0.299614 0.860927 0.552964
C36   C     C_R   0.308039 0.294430 0.891904 0.543981
C37   C     C_R   0.279919 0.884921 0.858993 0.542874
C38   C     C_R   0.367138 0.345387 0.585174 0.540084
C39   C     C_R   0.774209 0.379335 0.629583 0.542841
C40   C     C_1   0.347442 0.338939 0.274402 -0.065637
C41   C     C_1   0.334867 0.328925 0.203187 -0.064161
C42   C     C_3   0.901239 0.187704 0.222910 -0.123189
Cr1   Cr    Cr6+3 0.608340 0.611040 0.520430 1.014514
Cr2   Cr    Cr6+3 0.287650 0.601120 0.489350 1.018064
Cr3   Cr    Cr6+3 0.604040 0.287870 0.490280 1.020059
Cr4   Cr    Cr6+3 0.054020 0.052700 0.970850 1.021188
Cr5   Cr    Cr6+3 0.059230 0.375120 0.993390 1.018742
Cr6   Cr    Cr6+3 0.374950 0.061200 0.992340 1.023875
H1    H     H_    0.657050 0.295480 0.246333 0.123775
H2    H     H_    0.207671 0.076781 0.218012 0.108667
H3    H     H_    0.101540 0.909555 0.283330 0.119377
H4    H     H_    0.229576 0.687437 0.160514 0.124148
H5    H     H_    0.453705 0.465929 0.730593 0.115996
H6    H     H_    0.567365 0.211916 0.808694 0.130706
H7    H     H_    0.458753 0.084573 0.673377 0.129632
H8    H     H_    0.200721 0.190730 0.745787 0.114453
H9    H     H_    0.087767 0.444804 0.666389 0.131441
H10   H     H_    0.195811 0.571462 0.803664 0.132148
H11   H     H_    0.921796 0.079148 0.195109 0.132483
H12   H     H_    0.060419 0.151201 0.343430 0.110577
H13   H     H_    0.090884 0.348703 0.260177 0.109245
H14   H     H_    0.687091 0.492772 0.164397 0.120291
H15   H     H_    0.482706 0.570744 0.264923 0.110072
H16   H     H_    0.579994 0.741421 0.198793 0.114251
H17   H     H_    0.453583 0.961234 0.324693 0.126484
O1    O     O_R   0.751220 0.499230 0.435170 -0.526688
O2    O     O_R   0.297880 0.469080 0.560050 -0.501206
O3    O     O_R   0.489720 0.254590 0.564810 -0.516934
O4    O     O_R   0.725220 0.304230 0.585080 -0.495471
O5    O     O_3   0.500010 0.500010 0.500020 -0.257093
O6    O     O_R   0.171830 0.913880 0.057510 -0.528051
O7    O     O_R   0.940690 0.186050 0.054730 -0.498931
O8    O     O_R   0.920470 0.405720 0.075010 -0.515567
O9    O     O_R   0.196690 0.370460 0.084120 -0.518850
O10   O     O_R   0.412990 0.180750 0.091610 -0.505575
O11   O     O_R   0.366620 0.943130 0.065760 -0.501470
O12   O     O_R   0.477220 0.727600 0.436870 -0.507609
O13   O     O_R   0.160510 0.906330 0.879210 -0.511633
O14   O     O_R   0.930190 0.179050 0.889450 -0.492171
O15   O     O_R   0.909140 0.398170 0.896710 -0.503024
O16   O     O_R   0.186190 0.363460 0.918830 -0.501544
O17   O     O_R   0.401670 0.173200 0.913310 -0.513180
O18   O     O_R   0.356120 0.936130 0.900470 -0.493995
O19   O     O_3   0.162740 0.163010 0.985530 -0.277886
O20   O     O_R   0.258650 0.745120 0.411470 -0.518144
O21   O     O_R   0.297070 0.467240 0.395960 -0.500426
O22   O     O_R   0.488830 0.252610 0.387790 -0.518399
O23   O     O_R   0.724400 0.302390 0.420980 -0.504361
O24   O     O_R   0.752100 0.501210 0.612190 -0.510988
O25   O     O_R   0.478040 0.729440 0.600970 -0.497693
O26   O     O_R   0.259530 0.747110 0.588490 -0.507955
C43   C     C_3   0.826606 0.603804 0.313923 -0.373185
H18   H     H_    0.844494 0.653622 0.266455 0.123155
H19   H     H_    0.716388 0.671392 0.331518 0.158555
H20   H     H_    0.903933 0.597495 0.366820 0.148510

loop_
_geom_bond_atom_site_label_1
_geom_bond_atom_site_label_2
_ccdc_geom_bond_type
C18   C21   S    
C1    O12   A    
Cr6   O11   S    
C3    C23   S    
C19   C20   S    
C1    C11   S    
C3    C6    S    
C32   O10   A    
C7    C8    S    
C13   H17   S    
Cr1   O24   S    
C23   O1    A    
Cr3   O22   S    
C8    C42   S    
C32   O9    A    
C5    C6    S    
C31   O8    A    
C15   C16   S    
C9    H16   S    
C35   O15   A    
C18   C19   S    
C9    C13   S    
C34   O26   A    
C11   C15   S    
C10   H15   S    
C2    C7    S    
C28   C35   S    
C36   O17   A    
C24   H9    S    
C18   C26   S    
C32   C41   S    
Cr2   O5    S    
C15   H3    S    
C9    C10   S    
Cr4   O7    S    
C19   H5    S    
C21   C22   S    
Cr6   O10   S    
C17   C33   S    
Cr5   O15   S    
Cr2   O21   S    
C1    O20   A    
Cr1   O25   S    
C14   H2    S    
Cr3   O4    S    
C20   C24   S    
Cr3   O23   S    
C24   C25   S    
Cr5   O8    S    
C27   C39   S    
Cr4   O13   S    
C18   H6    S    
C16   C17   S    
C22   H8    S    
C25   C26   S    
C29   C34   S    
C43   H20   S    
Cr6   O19   S    
C30   C37   S    
C12   C40   S    
C34   O25   A    
C7    H14   S    
C29   C30   T    
C2    H1    S    
C20   C38   S    
C33   O11   A    
C36   O16   A    
C4    H12   S    
Cr3   O3    S    
C43   H19   S    
C39   O4    A    
C5    H13   S    
Cr5   O19   S    
C20   C21   S    
Cr4   O6    S    
Cr2   O26   S    
Cr4   O19   S    
C26   C36   S    
C31   O7    A    
C38   O3    A    
Cr1   O5    S    
C23   O23   A    
C22   C24   S    
C25   H10   S    
C3    C4    S    
C21   H7    S    
C9    C17   S    
C40   C41   T    
C12   O22   A    
Cr3   O5    S    
C8    C31   S    
C16   H4    S    
Cr5   O9    S    
C4    C5    S    
C42   H11   S    
C5    C8    S    
C6    C7    S    
Cr1   O12   S    
C37   O13   A    
Cr6   O18   S    
C12   O21   A    
C2    C3    S    
C10   C16   S    
C11   C13   S    
Cr4   O14   S    
C4    C42   S    
C2    C42   S    
Cr1   O1    S    
C6    C43   S    
C35   O14   A    
C43   H18   S    
Cr6   O17   S    
Cr5   O16   S    
C19   C25   S    
C10   C11   S    
C33   O6    A    
C38   O2    A    
C22   C26   S    
C27   C28   T    
C14   C15   S    
C37   O18   A    
Cr2   O2    S    
C13   C14   S    
C39   O24   A    
Cr2   O20   S    
C14   C17   S    
