data_mof_unit_18565.cif
_audit_creation_date              2012-12-10T20:51:47-0500
_audit_creation_method            fapswitch 2.2
_symmetry_space_group_name_H-M    P1
_symmetry_Int_Tables_number       1
_space_group_crystal_system       triclinic
_cell_length_a                    8.102326
_cell_length_b                    8.937181
_cell_length_c                    16.933324
_cell_angle_alpha                 89.522373
_cell_angle_beta                  94.237672
_cell_angle_gamma                 90.004209
_cell_volume                      1222.78017875

loop_
_atom_site_label
_atom_site_type_symbol
_atom_type_description
_atom_site_fract_x
_atom_site_fract_y
_atom_site_fract_z
_atom_type_partial_charge
C1    C     C_R   0.499972 0.217971 0.500011 0.941474
C2    C     C_R   0.602177 0.489284 0.139290 -0.214341
C3    C     C_R   0.550932 0.428316 0.901983 0.322964
C4    C     C_R   0.446825 0.488050 0.096026 0.324010
C5    C     C_R   0.697915 0.438469 0.862793 0.208109
C6    C     C_R   0.300608 0.499798 0.135664 0.206109
C7    C     C_R   0.687429 0.462318 0.781125 -0.225587
C8    C     C_R   0.311948 0.505306 0.218086 -0.225759
C9    C     C_1   0.499980 0.065180 0.500008 -0.190797
C10   C     C_1   0.500021 0.934823 0.500002 -0.191919
C11   C     C_3   0.866740 0.429868 0.906176 -0.948416
C12   C     C_R   0.500029 0.782028 0.499994 0.943005
C13   C     C_3   0.131375 0.504430 0.092435 -0.945501
C14   C     C_R   0.520941 0.494530 0.653565 0.881856
C15   C     C_R   0.479021 0.502468 0.346392 0.882168
C16   C     C_R   0.532561 0.472984 0.738778 -0.076207
C17   C     C_R   0.466990 0.501668 0.260560 -0.075931
C18   C     C_R   0.387447 0.453707 0.777464 -0.228912
C19   C     C_R   0.611783 0.495546 0.220749 -0.230801
C20   C     C_R   0.396280 0.430209 0.858159 -0.214454
H1    H     H_    0.732946 0.494488 0.252443 0.176045
H2    H     H_    0.136462 0.502310 0.027259 0.258319
H3    H     H_    0.057929 0.406627 0.110423 0.241857
H4    H     H_    0.066534 0.608530 0.107763 0.246664
H5    H     H_    0.266547 0.457342 0.745569 0.175975
H6    H     H_    0.716736 0.485562 0.110193 0.163203
H7    H     H_    0.281702 0.417387 0.886692 0.161863
H8    H     H_    0.800275 0.473120 0.750906 0.172279
H9    H     H_    0.199521 0.511827 0.248867 0.172516
H10   H     H_    0.860913 0.405125 0.970165 0.257549
H11   H     H_    0.939778 0.339566 0.880573 0.243219
H12   H     H_    0.932329 0.537880 0.899699 0.245764
N1    N     N_1   0.073640 0.500030 0.499990 -0.037899
N2    N     N_1   0.926360 0.499970 0.500010 -0.037857
N3    N     N_2   0.560768 0.427070 0.985334 -0.199406
N4    N     N_2   0.435301 0.480221 0.012826 -0.197751
O1    O     O_R   0.636850 0.285340 0.500000 -0.614488
O2    O     O_R   0.363150 0.714660 0.500000 -0.613610
O3    O     O_R   0.363100 0.285350 0.500000 -0.614538
O4    O     O_R   0.636900 0.714650 0.500000 -0.613590
O5    O     O_R   0.652140 0.498630 0.616140 -0.626160
O6    O     O_R   0.347860 0.501370 0.383860 -0.626328
O7    O     O_R   0.378390 0.498650 0.616130 -0.623990
O8    O     O_R   0.621610 0.501350 0.383870 -0.623897
Zn1   Zn    Zn3+2 0.682780 0.499990 0.500010 0.986661
Zn2   Zn    Zn3+2 0.317220 0.500010 0.499990 0.986531

loop_
_geom_bond_atom_site_label_1
_geom_bond_atom_site_label_2
_ccdc_geom_bond_type
C12   O4    A    
C2    C4    A    
C4    N4    S    
C15   C17   S    
C20   H7    S    
C1    O1    A    
C9    C10   T    
N3    N4    D    
C3    N3    S    
N1    N2    T    
C11   H11   S    
C3    C20   A    
C2    H6    S    
N2    Zn1   S    
C6    C13   S    
N1    Zn2   S    
C13   H3    S    
O4    Zn1   S    
C18   H5    S    
C10   C12   S    
C14   O5    A    
C8    H9    S    
C4    C6    A    
C7    C16   A    
C17   C19   A    
C13   H2    S    
C5    C11   S    
C18   C20   A    
O3    Zn2   S    
C12   O2    A    
C15   O8    A    
C13   H4    S    
O7    Zn2   S    
C14   C16   S    
O2    Zn2   S    
C1    O3    A    
O1    Zn1   S    
C3    C5    A    
C1    C9    S    
O8    Zn1   S    
C15   O6    A    
C16   C18   A    
O6    Zn2   S    
C5    C7    A    
O5    Zn1   S    
C6    C8    A    
C19   H1    S    
C2    C19   A    
C7    H8    S    
C8    C17   A    
C11   H10   S    
C14   O7    A    
C11   H12   S    
