data_mof_unit_51415.cif
_audit_creation_date              2012-12-10T20:27:10-0500
_audit_creation_method            fapswitch 2.2
_symmetry_space_group_name_H-M    P1
_symmetry_Int_Tables_number       1
_space_group_crystal_system       triclinic
_cell_length_a                    10.776358
_cell_length_b                    10.680192
_cell_length_c                    9.869911
_cell_angle_alpha                 89.867392
_cell_angle_beta                  103.799489
_cell_angle_gamma                 89.927899
_cell_volume                      1103.170463

loop_
_atom_site_label
_atom_site_type_symbol
_atom_type_description
_atom_site_fract_x
_atom_site_fract_y
_atom_site_fract_z
_atom_type_partial_charge
C1    C     C_R   0.504186 0.260008 0.501258 0.865253
C2    C     C_R   0.523723 0.128523 0.506976 -0.119919
C3    C     C_R   0.548677 0.064962 0.392046 -0.219594
C4    C     C_R   0.548017 0.935526 0.391568 -0.238603
C5    C     C_R   0.522595 0.871423 0.506109 -0.099557
C6    C     C_R   0.521037 0.935672 0.628166 0.138939
C7    C     C_3   0.428242 0.928391 0.718879 -0.483571
C8    C     C_3   0.429021 0.070250 0.719654 -0.499995
C9    C     C_R   0.388395 0.487272 0.042162 0.137499
C10   C     C_R   0.608584 0.523827 0.099934 -0.116865
C11   C     C_R   0.608631 0.523682 0.956199 -0.126880
C12   C     C_R   0.258981 0.503851 0.441939 0.933177
C13   C     C_R   0.388338 0.487764 0.899762 0.138380
C14   C     C_3   0.297623 0.380477 0.870226 -0.582279
C15   C     C_3   0.297135 0.380116 0.024556 0.309168
C16   C     C_R   0.503374 0.740030 0.500712 0.871765
C17   C     C_R   0.741074 0.504094 0.558038 0.939515
C18   C     C_2   0.122424 0.519465 0.409071 -0.385097
C19   C     C_2   0.068012 0.550982 0.511810 -0.153684
C20   C     C_2   0.877637 0.520508 0.590734 -0.379431
C21   C     C_2   0.931923 0.550040 0.487190 -0.149217
C22   C     C_R   0.521682 0.063363 0.628700 0.146924
H1    H     H_    0.876572 0.562897 0.380540 0.175758
H2    H     H_    0.473217 0.110048 0.823952 0.214155
H3    H     H_    0.696759 0.541422 0.176235 0.133937
H4    H     H_    0.696780 0.540923 0.925201 0.142748
H5    H     H_    0.203852 0.407810 0.802010 0.160952
H6    H     H_    0.341285 0.295888 0.835600 0.225422
H7    H     H_    0.204576 0.407881 0.047500 0.056665
H8    H     H_    0.123453 0.567082 0.617795 0.180166
H9    H     H_    0.933599 0.507166 0.697099 0.140107
H10   H     H_    0.066541 0.503460 0.303282 0.139280
H11   H     H_    0.559805 0.114200 0.299595 0.198067
H12   H     H_    0.558893 0.886825 0.298920 0.171683
H13   H     H_    0.334677 0.887894 0.664197 0.203189
H14   H     H_    0.471720 0.886516 0.822601 0.205256
H15   H     H_    0.335820 0.112338 0.665594 0.199442
N1    N     N_R   0.499160 0.499140 0.142600 -0.081066
N2    N     N_R   0.499160 0.499180 0.856960 -0.088153
O1    O     O_R   0.500020 0.316790 0.614700 -0.611970
O2    O     O_R   0.500000 0.316760 0.385350 -0.574407
O3    O     O_R   0.317820 0.500020 0.571850 -0.609653
O4    O     O_R   0.317800 0.499980 0.342510 -0.620125
O5    O     O_R   0.500000 0.683240 0.614650 -0.617285
O6    O     O_R   0.499980 0.683210 0.385300 -0.629581
O7    O     O_R   0.682200 0.500020 0.657490 -0.625845
O8    O     O_R   0.682180 0.499980 0.428150 -0.624129
Zn1   Zn    Zn3+2 0.500010 0.500020 0.653140 0.941266
Zn2   Zn    Zn3+2 0.499990 0.499980 0.346860 0.965279
O9    O     O_3   0.355838 0.272363 0.095647 -0.597510
C23   C     C_3   0.265783 0.174516 0.085825 0.088512
H16   H     H_    0.318495 0.084609 0.089479 0.161254
H17   H     H_    0.191796 0.175152 0.985084 0.121847
C24   C     C_3   0.202622 0.178350 0.209512 -0.331761
H18   H     H_    0.277282 0.178523 0.308660 0.232656
H19   H     H_    0.144986 0.265198 0.205073 0.201703
C25   C     C_3   0.116065 0.065402 0.209188 -0.972604
H20   H     H_    0.039257 0.063517 0.111542 0.263934
H21   H     H_    0.071358 0.071322 0.299370 0.267694
H22   H     H_    0.172454 0.977318 0.218208 0.267190

loop_
_geom_bond_atom_site_label_1
_geom_bond_atom_site_label_2
_ccdc_geom_bond_type
C16   O6    A    
C2    C22   A    
C8    C22   S    
C6    C7    S    
C14   H5    S    
C7    H14   S    
C16   O5    A    
C11   H4    S    
O6    Zn2   S    
C10   N1    A    
C23   C24   S    
O9    C23   S    
C9    C15   S    
C7    C8    S    
O8    Zn2   S    
N1    Zn2   S    
O3    Zn1   S    
C13   C14   S    
C17   O7    A    
C11   N2    A    
C25   H20   S    
N2    Zn1   S    
C10   H3    S    
C1    O2    A    
C9    N1    A    
C8    H2    S    
C15   H7    S    
C12   O4    A    
C2    C3    A    
C21   H1    S    
C4    H12   S    
C5    C6    A    
C24   H19   S    
C13   N2    A    
C25   H21   S    
C10   C11   A    
C3    H11   S    
C23   H17   S    
C12   C18   S    
C23   H16   S    
C6    C22   A    
O7    Zn1   S    
O5    Zn1   S    
C17   C20   S    
C18   H10   S    
C20   C21   D    
C1    C2    S    
C8    H15   S    
C15   O9    S    
O2    Zn2   S    
O1    Zn1   S    
C9    C13   A    
C14   C15   S    
C18   C19   D    
C25   H22   S    
C12   O3    A    
C1    O1    A    
C14   H6    S    
C24   H18   S    
C19   H8    S    
C7    H13   S    
C19   C21   S    
C20   H9    S    
O4    Zn2   S    
C3    C4    A    
C17   O8    A    
C4    C5    A    
C5    C16   S    
C24   C25   S    
