data_mof_unit_6912.cif
_audit_creation_date              2012-12-11T14:08:17-0500
_audit_creation_method            fapswitch 2.2
_symmetry_space_group_name_H-M    P1
_symmetry_Int_Tables_number       1
_space_group_crystal_system       triclinic
_cell_length_a                    10.962913
_cell_length_b                    10.956595
_cell_length_c                    18.634633
_cell_angle_alpha                 89.920403
_cell_angle_beta                  89.532057
_cell_angle_gamma                 59.658572
_cell_volume                      1931.6654359

loop_
_atom_site_label
_atom_site_type_symbol
_atom_type_description
_atom_site_fract_x
_atom_site_fract_y
_atom_site_fract_z
_atom_type_partial_charge
C1    C     C_R   0.237850 0.644684 0.609198 0.543924
C2    C     C_3   0.633302 0.629362 0.802130 -0.202379
C3    C     C_3   0.730865 0.693234 0.806213 0.035641
C4    C     C_3   0.683764 0.660491 0.671493 0.061364
C5    C     C_3   0.845002 0.566336 0.688588 -0.042504
C6    C     C_3   0.600804 0.616389 0.723831 -0.240173
C7    C     C_2   0.675479 0.160413 0.671979 -0.137281
C8    C     C_2   0.685596 0.174495 0.829548 -0.113501
C9    C     C_2   0.796893 0.134499 0.785497 -0.137971
C10   C     C_2   0.775972 0.169023 0.708812 -0.162231
C11   C     C_2   0.189201 0.656521 0.683022 -0.098132
C12   C     C_R   0.657243 0.626354 0.598807 0.579016
C13   C     C_2   0.205707 0.665209 0.842044 0.075380
C14   C     C_2   0.225327 0.553393 0.804115 -0.130929
C15   C     C_2   0.253048 0.542620 0.726434 -0.153274
C16   C     C_2   0.589111 0.590253 0.311275 -0.019543
C17   C     C_2   0.639498 0.661059 0.161502 -0.060545
C18   C     C_2   0.702058 0.530081 0.189811 -0.104924
C19   C     C_2   0.697214 0.505613 0.267315 -0.137213
C20   C     C_2   0.675373 0.139953 0.332779 -0.058467
C21   C     C_2   0.650830 0.144778 0.179086 -0.101783
C22   C     C_2   0.624891 0.061745 0.222377 -0.154105
C23   C     C_R   0.627876 0.228784 0.602384 0.540569
C24   C     C_2   0.607049 0.084297 0.299551 0.060709
C25   C     C_2   0.116051 0.686450 0.346640 -0.127038
C26   C     C_2   0.109332 0.691704 0.191597 -0.065744
C27   C     C_2   0.030588 0.805006 0.234138 -0.099849
C28   C     C_2   0.061190 0.807612 0.309931 -0.009950
C29   C     C_R   0.702317 0.103994 0.898118 0.531202
C30   C     C_R   0.757120 0.711352 0.882612 0.535795
C31   C     C_R   0.121621 0.705888 0.908315 0.539305
C32   C     C_R   0.674667 0.106345 0.104703 0.547769
C33   C     C_R   0.692954 0.687805 0.095193 0.542974
C34   C     C_R   0.213030 0.653481 0.405599 0.537746
C35   C     C_R   0.086462 0.712729 0.115497 0.560889
C36   C     C_R   0.609392 0.581530 0.389489 0.550443
C37   C     C_R   0.621698 0.222646 0.397503 0.566490
C38   C     C_3   0.658385 0.840841 0.764852 -0.096267
C39   C     C_3   0.638547 0.818954 0.683500 -0.092946
C40   C     C_3   0.875546 0.590490 0.766300 -0.106499
Cr1   Cr    Cr6+3 0.393010 0.398050 0.501480 1.035912
Cr2   Cr    Cr6+3 0.398820 0.707980 0.501630 1.050080
Cr3   Cr    Cr6+3 0.708140 0.393940 0.496850 1.030688
Cr4   Cr    Cr6+3 0.937950 0.938450 0.008940 1.055354
Cr5   Cr    Cr6+3 0.626180 0.937030 0.994750 1.058779
Cr6   Cr    Cr6+3 0.937790 0.625760 0.001410 1.047498
H1    H     H_    0.734812 0.879444 0.767159 0.028343
H2    H     H_    0.629623 0.504749 0.713481 0.112899
H3    H     H_    0.871040 0.454000 0.683515 0.187218
H4    H     H_    0.904286 0.070087 0.804732 0.167202
H5    H     H_    0.841458 0.205262 0.683373 0.171507
H6    H     H_    0.578874 0.240695 0.809600 0.098206
H7    H     H_    0.614070 0.119742 0.697559 0.076813
H8    H     H_    0.214066 0.471476 0.830210 0.111773
H9    H     H_    0.326309 0.438445 0.704777 0.145841
H10   H     H_    0.112993 0.760439 0.703617 0.119983
H11   H     H_    0.781074 0.440776 0.158705 0.151450
H12   H     H_    0.795166 0.422086 0.289843 0.156571
H13   H     H_    0.566749 0.753700 0.192359 0.115888
H14   H     H_    0.610329 0.978128 0.200297 0.142252
H15   H     H_    0.665727 0.229648 0.198544 0.104394
H16   H     H_    0.759906 0.146072 0.305511 0.112403
H17   H     H_    0.951616 0.904898 0.210816 0.170741
H18   H     H_    0.189365 0.589397 0.211713 0.127268
H19   H     H_    0.109965 0.597639 0.324846 0.106226
H20   H     H_    0.712624 0.840292 0.652542 0.066331
H21   H     H_    0.937951 0.644965 0.766082 0.073657
H22   H     H_    0.680489 0.524591 0.828255 0.189019
H23   H     H_    0.534464 0.694039 0.832487 0.183407
H24   H     H_    0.485092 0.681470 0.715192 0.218931
O1    O     O_R   0.507110 0.256280 0.580300 -0.525287
O2    O     O_R   0.524640 0.695370 0.425100 -0.516559
O3    O     O_R   0.735890 0.504390 0.415980 -0.502618
O4    O     O_R   0.690560 0.277820 0.422350 -0.531318
O5    O     O_3   0.499990 0.499990 0.499980 -0.285301
O6    O     O_R   0.089190 0.825870 0.932320 -0.508603
O7    O     O_R   0.819070 0.053960 0.931440 -0.483742
O8    O     O_R   0.607070 0.076440 0.916460 -0.527166
O9    O     O_R   0.647110 0.806550 0.917690 -0.473357
O10   O     O_R   0.837080 0.593860 0.915300 -0.466518
O11   O     O_R   0.064770 0.636080 0.932550 -0.523810
O12   O     O_R   0.280830 0.527190 0.577940 -0.504564
O13   O     O_R   0.068250 0.829200 0.092940 -0.486245
O14   O     O_R   0.799650 0.057040 0.080330 -0.497697
O15   O     O_R   0.586130 0.079760 0.077080 -0.502252
O16   O     O_R   0.627700 0.809630 0.066580 -0.492205
O17   O     O_R   0.816140 0.597180 0.075920 -0.508672
O18   O     O_R   0.045360 0.639170 0.081440 -0.501510
O19   O     O_3   0.833980 0.833750 0.001700 -0.288798
O20   O     O_R   0.261360 0.738990 0.584270 -0.477804
O21   O     O_R   0.532590 0.694780 0.574370 -0.476022
O22   O     O_R   0.744470 0.503750 0.577000 -0.505904
O23   O     O_R   0.698520 0.277230 0.571620 -0.500539
O24   O     O_R   0.498530 0.256920 0.419280 -0.462210
O25   O     O_R   0.272880 0.527780 0.428680 -0.488826
O26   O     O_R   0.252780 0.739630 0.423250 -0.545056
C41   C     C_2   0.972390 0.444331 0.798234 0.238798
H25   H     H_    0.084708 0.393216 0.788183 0.104635
O27   O     O_2   0.926882 0.374700 0.826580 -0.496366
N1    N     N_3   0.251477 0.757952 0.813773 -0.599744
H26   H     H_    0.307956 0.773298 0.854076 0.266209
H27   H     H_    0.162091 0.856574 0.804054 0.251587
C42   C     C_2   0.522712 0.960108 0.798006 0.315132
H28   H     H_    0.503904 0.066955 0.796363 0.093029
O28   O     O_2   0.428555 0.941795 0.820810 -0.472475
C43   C     C_2   0.443328 0.684799 0.284397 0.206993
H29   H     H_    0.371615 0.781016 0.313186 0.160412
O29   O     O_2   0.400923 0.653925 0.230937 -0.516574
N2    N     N_3   0.512148 0.052200 0.337462 -0.575157
H30   H     H_    0.412781 0.109420 0.313681 0.251190
H31   H     H_    0.547795 0.944718 0.330000 0.223722
C44   C     C_2   0.495142 0.925179 0.652583 0.232554
H32   H     H_    0.488194 0.002590 0.613920 0.108459
O30   O     O_2   0.387114 0.926619 0.670678 -0.456274
C45   C     C_2   0.040217 0.941728 0.341144 0.239821
H33   H     H_    0.028440 0.959383 0.398697 0.129605
O31   O     O_2   0.034960 0.034408 0.302541 -0.524162
N3    N     N_3   0.934688 0.585664 0.636085 -0.629338
H34   H     H_    0.935212 0.679040 0.646246 0.218857
H35   H     H_    0.038650 0.502552 0.642066 0.239066

loop_
_geom_bond_atom_site_label_1
_geom_bond_atom_site_label_2
_ccdc_geom_bond_type
Cr3   O3    S    
C7    C10   D    
C37   O4    A    
C1    O20   A    
C12   O21   A    
C1    C11   S    
Cr4   O13   S    
C44   O30   D    
C41   H25   S    
Cr6   O19   S    
C25   C28   D    
Cr2   O5    S    
C6    H2    S    
Cr2   O26   S    
C8    C29   S    
Cr4   O7    S    
C34   O26   A    
C18   C19   S    
C2    H22   S    
N2    H31   S    
C22   H14   S    
C38   C39   S    
C43   H29   S    
Cr1   O12   S    
C45   H33   S    
Cr2   O21   S    
Cr4   O6    S    
C26   H18   S    
N3    H34   S    
C11   C15   D    
C29   O8    A    
C20   C24   D    
C3    C38   S    
C8    C9    D    
C45   O31   D    
C40   H21   S    
Cr5   O8    S    
C4    C12   S    
C2    H23   S    
Cr5   O19   S    
C9    C10   S    
C8    H6    S    
C21   H15   S    
C16   C43   S    
C25   C34   S    
Cr1   O1    S    
C30   O10   A    
Cr3   O4    S    
C21   C22   D    
C5    H3    S    
C2    C6    S    
C17   C33   S    
C10   H5    S    
N1    H27   S    
C44   H32   S    
C41   O27   D    
C13   C31   S    
Cr6   O18   S    
C19   H12   S    
Cr3   O5    S    
C32   O14   A    
C21   C32   S    
C9    H4    S    
C23   O1    A    
C25   H19   S    
C34   O25   A    
C4    C6    S    
C40   C41   S    
C35   O13   A    
C1    O12   A    
C23   O23   A    
Cr2   O20   S    
C15   H9    S    
C3    C30   S    
Cr5   O15   S    
C33   O16   A    
Cr5   O9    S    
C38   C42   S    
C28   C45   S    
Cr1   O5    S    
Cr6   O11   S    
C35   O18   A    
C18   H11   S    
Cr1   O24   S    
C4    C39   S    
Cr2   O2    S    
C17   C18   D    
C26   C27   D    
C42   O28   D    
C38   H1    S    
C27   H17   S    
C17   H13   S    
C30   O9    A    
C39   C44   S    
C14   H8    S    
C3    C40   S    
C39   H20   S    
C22   C24   S    
C7    H7    S    
C27   C28   S    
Cr6   O17   S    
C6    H24   S    
C12   O22   A    
C24   N2    S    
C4    C5    S    
Cr4   O14   S    
Cr3   O22   S    
C31   O11   A    
C5    N3    S    
C13   N1    S    
C2    C3    S    
C33   O17   A    
N2    H30   S    
C16   C36   S    
Cr6   O10   S    
C20   C37   S    
C31   O6    A    
Cr1   O25   S    
C43   O29   D    
C16   C19   D    
C7    C23   S    
C32   O15   A    
N1    H26   S    
Cr3   O23   S    
C37   O24   A    
Cr5   O16   S    
C20   H16   S    
N3    H35   S    
C36   O3    A    
C11   H10   S    
C26   C35   S    
C29   O7    A    
C5    C40   S    
C42   H28   S    
C14   C15   S    
C13   C14   D    
Cr4   O19   S    
C36   O2    A    
