data_mof_unit_60473.cif
_audit_creation_date              2012-12-10T18:16:20-0500
_audit_creation_method            fapswitch 2.2
_symmetry_space_group_name_H-M    P1
_symmetry_Int_Tables_number       1
_space_group_crystal_system       triclinic
_cell_length_a                    42.349263
_cell_length_b                    29.208006
_cell_length_c                    29.202842
_cell_angle_alpha                 90.000503
_cell_angle_beta                  133.815257
_cell_angle_gamma                 90.005502
_cell_volume                      26064.8300253

loop_
_atom_site_label
_atom_site_type_symbol
_atom_type_description
_atom_site_fract_x
_atom_site_fract_y
_atom_site_fract_z
_atom_type_partial_charge
C1    C     C_R   0.499981 0.586678 0.500002 0.908720
C2    C     C_1   0.834509 0.000966 0.337200 -0.057655
C3    C     C_3   0.760460 0.964011 0.242971 -0.192858
C4    C     C_1   0.372521 0.500077 0.373573 -0.200586
C5    C     C_1   0.872523 0.000489 0.373575 -0.200649
C6    C     C_1   0.121125 0.500023 0.124950 -0.196189
C7    C     C_1   0.621127 0.000066 0.124937 -0.196067
C8    C     C_3   0.262508 0.503161 0.311130 0.156240
C9    C     C_3   0.762517 0.998770 0.311177 0.156304
C10   C     C_3   0.289010 0.500180 0.293868 0.166962
C11   C     C_3   0.789013 0.001148 0.293868 0.167174
C12   C     C_1   0.159041 0.500071 0.166485 -0.055181
C13   C     C_1   0.659044 0.000273 0.166463 -0.055111
C14   C     C_1   0.499966 0.637260 0.499961 -0.220874
C15   C     C_1   0.499970 0.362739 0.499964 -0.222066
C16   C     C_1   0.999965 0.137260 0.499960 -0.221060
C17   C     C_1   0.999970 0.862739 0.499964 -0.222001
C18   C     C_1   0.499955 0.679398 0.499945 0.005071
C19   C     C_1   0.499963 0.320601 0.499951 0.004132
C20   C     C_1   0.999955 0.179398 0.499944 0.004975
C21   C     C_R   0.499981 0.413322 0.500001 0.907132
C22   C     C_1   0.999964 0.820602 0.499952 0.004095
C23   C     C_1   0.499947 0.729134 0.499939 0.007297
C24   C     C_1   0.499960 0.270866 0.499950 0.006692
C25   C     C_1   0.999946 0.229134 0.499938 0.007212
C26   C     C_1   0.999960 0.770866 0.499951 0.006658
C27   C     C_1   0.499943 0.771271 0.499941 0.006866
C28   C     C_1   0.499959 0.228729 0.499956 0.006467
C29   C     C_1   0.999943 0.271270 0.499941 0.006797
C30   C     C_1   0.999959 0.728729 0.499956 0.006437
C31   C     C_1   0.499942 0.821006 0.499950 0.004914
C32   C     C_R   0.999980 0.086678 0.500000 0.908885
C33   C     C_1   0.499959 0.178994 0.499967 0.004650
C34   C     C_1   0.999942 0.321006 0.499949 0.004863
C35   C     C_1   0.999959 0.678994 0.499967 0.004613
C36   C     C_1   0.499944 0.863144 0.499961 -0.213541
C37   C     C_1   0.499960 0.136856 0.499976 -0.213719
C38   C     C_1   0.999944 0.363144 0.499961 -0.213595
C39   C     C_1   0.999960 0.636856 0.499976 -0.213767
C40   C     C_R   0.417100 0.499975 0.417347 0.951627
C41   C     C_R   0.917099 0.999865 0.417346 0.951341
C42   C     C_1   0.635839 0.499998 0.635424 -0.221116
C43   C     C_R   0.999982 0.913322 0.500002 0.906779
C44   C     C_1   0.135839 0.999998 0.635424 -0.221096
C45   C     C_1   0.677113 0.499997 0.676670 0.016830
C46   C     C_1   0.177113 0.999996 0.676670 0.016840
C47   C     C_1   0.726259 0.499995 0.725888 0.003417
C48   C     C_1   0.226259 0.999995 0.725888 0.003421
C49   C     C_1   0.767533 0.499993 0.767258 0.003413
C50   C     C_1   0.267533 0.999993 0.767258 0.003413
C51   C     C_1   0.816679 0.499992 0.816533 0.016817
C52   C     C_1   0.316679 0.999992 0.816533 0.016811
C53   C     C_1   0.857953 0.499993 0.857915 -0.221339
C54   C     C_3   0.204588 0.500146 0.213539 0.164500
C55   C     C_1   0.357953 0.999992 0.857915 -0.221358
C56   C     C_R   0.994872 0.500000 0.081690 0.910800
C57   C     C_R   0.494872 0.000000 0.081690 0.910793
C58   C     C_R   0.076732 0.500004 0.075885 0.949299
C59   C     C_R   0.576732 0.000007 0.075885 0.949577
C60   C     C_R   0.992977 0.500000 0.906347 0.905966
C61   C     C_R   0.492977 1.000000 0.906347 0.906180
C62   C     C_R   0.907988 0.499997 0.908066 0.890764
C63   C     C_R   0.407988 0.999997 0.908066 0.890781
C64   C     C_R   0.585807 0.500000 0.585670 0.890637
C65   C     C_3   0.704591 0.000595 0.213519 0.164340
C66   C     C_R   0.085807 1.000000 0.585670 0.890620
C67   C     C_R   0.499094 1.000000 0.412901 0.897464
C68   C     C_R   0.999094 0.500000 0.412901 0.897482
C69   C     C_R   0.499954 0.913727 0.499981 0.897341
C70   C     C_R   0.499960 0.086273 0.499986 0.897262
C71   C     C_R   0.999954 0.413727 0.499981 0.897359
C72   C     C_R   0.999960 0.586273 0.499986 0.897278
C73   C     C_R   0.500752 0.000000 0.587043 0.897189
C74   C     C_R   0.000752 0.500000 0.587043 0.897205
C75   C     C_1   0.995641 0.500000 0.133029 -0.222556
C76   C     C_3   0.231254 0.497167 0.196501 0.158869
C77   C     C_1   0.495641 0.000001 0.133029 -0.222589
C78   C     C_1   0.996295 0.500001 0.175814 0.004211
C79   C     C_1   0.496295 0.000001 0.175815 0.004217
C80   C     C_1   0.997058 0.500001 0.226302 0.006723
C81   C     C_1   0.497058 0.000001 0.226302 0.006750
C82   C     C_1   0.497676 0.000000 0.269050 0.006436
C83   C     C_1   0.997676 0.500000 0.269050 0.006402
C84   C     C_1   0.498337 0.000000 0.319436 0.004517
C85   C     C_1   0.998337 0.500000 0.319436 0.004479
C86   C     C_1   0.498787 0.000000 0.362020 -0.213829
C87   C     C_3   0.731249 0.002978 0.196432 0.158763
C88   C     C_1   0.998787 0.500000 0.362020 -0.213877
C89   C     C_1   0.994021 0.500000 0.856795 -0.220495
C90   C     C_1   0.494021 1.000000 0.856794 -0.220313
C91   C     C_3   0.233095 0.539772 0.259712 -0.193360
C92   C     C_3   0.233290 0.463615 0.265327 -0.244103
C93   C     C_3   0.733099 0.037790 0.264390 -0.193355
C94   C     C_3   0.733299 0.961541 0.260679 -0.244257
C95   C     C_1   0.995238 0.500000 0.815877 0.005041
C96   C     C_1   0.495238 1.000000 0.815877 0.005230
C97   C     C_1   0.996852 0.500000 0.767762 0.007126
C98   C     C_1   0.334505 0.500154 0.337196 -0.057587
C99   C     C_1   0.496852 0.000000 0.767762 0.007267
C100  C     C_1   0.498213 0.000000 0.726995 0.006854
C101  C     C_1   0.998213 0.500000 0.726995 0.006756
C102  C     C_1   0.499651 0.000000 0.678698 0.005097
C103  C     C_1   0.999651 0.500000 0.678698 0.005025
C104  C     C_1   0.500515 1.000000 0.637417 -0.213782
C105  C     C_1   0.000515 0.500000 0.637417 -0.213848
C106  C     C_3   0.260281 0.536665 0.242068 -0.242799
C107  C     C_3   0.260485 0.460592 0.247684 -0.192826
C108  C     C_3   0.760304 0.040177 0.246710 -0.242643
H1    H     H_    0.272366 0.565518 0.232923 0.146601
H2    H     H_    0.195054 0.523791 0.108260 0.182555
H3    H     H_    0.738213 0.006966 0.134456 0.182139
H4    H     H_    0.695030 0.035724 0.111820 0.182908
H5    H     H_    0.256021 0.507201 0.373603 0.181220
H6    H     H_    0.299378 0.476681 0.399549 0.184904
H7    H     H_    0.756033 0.994434 0.373636 0.181217
H8    H     H_    0.799330 0.966177 0.395943 0.184678
H9    H     H_    0.272790 0.429132 0.243025 0.145963
H10   H     H_    0.772410 0.071398 0.241261 0.146510
H11   H     H_    0.772736 0.934849 0.234568 0.146069
H12   H     H_    0.220751 0.571217 0.264322 0.146713
H13   H     H_    0.221157 0.434780 0.274410 0.147196
H14   H     H_    0.720754 0.066924 0.272708 0.146611
H15   H     H_    0.721174 0.930326 0.266099 0.147276
H16   H     H_    0.238235 0.492710 0.134572 0.182134
N1    N     N_3   0.212306 0.493542 0.131854 -0.453330
N2    N     N_3   0.712291 0.004941 0.131677 -0.453635
N3    N     N_3   0.281775 0.506773 0.375926 -0.450337
N4    N     N_3   0.781787 0.996806 0.376075 -0.450152
O1    O     O_R   0.500400 0.563130 0.536080 -0.596067
O2    O     O_R   0.963990 0.500000 0.400890 -0.593551
O3    O     O_R   0.534410 0.000000 0.471310 -0.593967
O4    O     O_R   0.034410 0.500000 0.471310 -0.593985
O5    O     O_R   0.464750 0.936830 0.464780 -0.593768
O6    O     O_R   0.464750 0.063170 0.464780 -0.593852
O7    O     O_R   0.964750 0.436830 0.464780 -0.593790
O8    O     O_R   0.964750 0.563170 0.464780 -0.593863
O9    O     O_R   0.535170 0.936820 0.535200 -0.593679
O10   O     O_R   0.535170 0.063180 0.535200 -0.593674
O11   O     O_R   0.035170 0.436820 0.535200 -0.593685
O12   O     O_R   0.500400 0.436870 0.536080 -0.597399
O13   O     O_R   0.035170 0.563180 0.535200 -0.593689
O14   O     O_R   0.465520 0.000000 0.528690 -0.593658
O15   O     O_R   0.965520 0.500000 0.528690 -0.593657
O16   O     O_R   0.535930 0.000000 0.599110 -0.593525
O17   O     O_R   0.035930 0.500000 0.599110 -0.593559
O18   O     O_R   0.499540 0.563080 0.463930 -0.597397
O19   O     O_R   0.499540 0.436920 0.463930 -0.597098
O20   O     O_R   0.999540 0.063080 0.463930 -0.597303
O21   O     O_R   0.999540 0.936920 0.463930 -0.597198
O22   O     O_R   0.438030 0.500000 0.473700 -0.611216
O23   O     O_R   0.000400 0.063130 0.536080 -0.595995
O24   O     O_R   0.938030 0.000000 0.473700 -0.610849
O25   O     O_R   0.437170 0.500000 0.401550 -0.615566
O26   O     O_R   0.937170 1.000000 0.401550 -0.615627
O27   O     O_R   0.562760 0.500000 0.598450 -0.591757
O28   O     O_R   0.062760 0.000000 0.598450 -0.591746
O29   O     O_R   0.561900 0.500000 0.526300 -0.591765
O30   O     O_R   0.061900 0.000000 0.526300 -0.591760
O31   O     O_R   0.994600 0.535610 0.057840 -0.596436
O32   O     O_R   0.994600 0.464390 0.057840 -0.596552
O33   O     O_R   0.494600 0.035610 0.057840 -0.596446
O34   O     O_R   0.000400 0.936870 0.536080 -0.597429
O35   O     O_R   0.494600 0.964390 0.057840 -0.596585
O36   O     O_R   0.056200 0.535620 0.056290 -0.615377
O37   O     O_R   0.056200 0.464380 0.056290 -0.611084
O38   O     O_R   0.556200 0.035620 0.056290 -0.615204
O39   O     O_R   0.556200 0.964380 0.056290 -0.611588
O40   O     O_R   0.993060 0.535640 0.930020 -0.598191
O41   O     O_R   0.993060 0.464360 0.930020 -0.596707
O42   O     O_R   0.493060 0.035640 0.930020 -0.598139
O43   O     O_R   0.493060 0.964360 0.930020 -0.596781
O44   O     O_R   0.931470 0.535630 0.931560 -0.591720
O45   O     O_R   0.931470 0.464370 0.931560 -0.591758
O46   O     O_R   0.431470 0.035630 0.931560 -0.591729
O47   O     O_R   0.431470 0.964370 0.931560 -0.591758
O48   O     O_R   0.463990 0.000000 0.400890 -0.593543
Zn1   Zn    Zn3+2 0.500540 0.500000 0.548170 0.971074
Zn2   Zn    Zn3+2 0.952950 0.500000 0.452980 0.969011
Zn3   Zn    Zn3+2 0.546980 1.000000 0.547020 0.969005
Zn4   Zn    Zn3+2 0.046980 0.500000 0.547020 0.968866
Zn5   Zn    Zn3+2 0.000540 0.000000 0.548170 0.971441
Zn6   Zn    Zn3+2 0.499390 0.500000 0.451830 0.967454
Zn7   Zn    Zn3+2 0.999390 0.000000 0.451830 0.967456
Zn8   Zn    Zn3+2 0.993830 0.547580 0.993940 0.967572
Zn9   Zn    Zn3+2 0.993830 0.452420 0.993940 0.970913
Zn10  Zn    Zn3+2 0.493830 0.047580 0.993940 0.967618
Zn11  Zn    Zn3+2 0.493830 0.952420 0.993940 0.970483
Zn12  Zn    Zn3+2 0.452950 0.000000 0.452980 0.969121

loop_
_geom_bond_atom_site_label_1
_geom_bond_atom_site_label_2
_ccdc_geom_bond_type
C74   O15   A    
C71   O7    A    
C4    C98   T    
O13   Zn4   S    
C6    C58   S    
C74   O17   A    
C44   C66   S    
C58   O36   A    
C81   C82   T    
C1    O18   A    
C47   C49   T    
C41   O24   A    
C13   C65   S    
C60   C89   S    
C36   C69   S    
C15   C19   T    
C64   O27   A    
O45   Zn9   S    
C60   O40   A    
C30   C35   S    
C60   O41   A    
C21   O19   A    
C84   C86   T    
C56   O31   A    
C1    O1    A    
C93   C108  S    
C6    C12   T    
C78   C80   S    
C72   O8    A    
C20   C25   S    
C2    C11   S    
C96   C99   S    
O8    Zn2   S    
O35   Zn11  S    
O15   Zn2   S    
C10   C98   S    
C58   O37   A    
C14   C18   T    
C106  H1    S    
O11   Zn4   S    
O2    Zn2   S    
O5    Zn12  S    
C73   C104  S    
C87   C108  S    
C4    C40   S    
C49   C51   S    
C55   C63   S    
C64   O29   A    
C50   C52   S    
C39   C72   S    
C65   C87   S    
C8    C92   S    
C23   C27   T    
O31   Zn8   S    
O30   Zn7   S    
H4    N2    S    
C43   O21   A    
C52   C55   T    
C94   H15   S    
C48   C50   T    
C101  C103  S    
C56   C75   S    
O38   Zn10  S    
C37   C70   S    
C25   C29   T    
C76   N1    S    
C91   C106  S    
C10   C107  S    
O32   Zn9   S    
C91   H12   S    
C80   C83   T    
O10   Zn3   S    
C7    C59   S    
C44   C46   T    
O23   Zn5   S    
C73   O14   A    
C77   C79   T    
C69   O9    A    
C72   O13   A    
C46   C48   S    
C9    N4    S    
O14   Zn12  S    
O18   Zn6   S    
C3    C87   S    
C18   C23   S    
O6    Zn12  S    
C1    C14   S    
C93   H14   S    
O34   Zn5   S    
C79   C81   S    
O3    Zn3   S    
C71   O11   A    
O40   Zn8   S    
C62   O45   A    
C27   C31   S    
C29   C34   S    
C33   C37   T    
H7    N4    S    
C51   C53   T    
C42   C45   T    
C68   O4    A    
C89   C95   T    
C35   C39   T    
C90   C96   T    
C17   C43   S    
C54   C92   S    
O33   Zn10  S    
O36   Zn8   S    
C57   C77   S    
C53   C62   S    
O44   Zn8   S    
C8    N3    S    
C99   C100  T    
C57   O35   A    
O16   Zn3   S    
C7    C13   T    
C67   O48   A    
C16   C20   T    
C92   C107  S    
O39   Zn11  S    
O26   Zn7   S    
O42   Zn10  S    
H3    N2    S    
C100  C102  S    
O12   Zn1   S    
C40   O22   A    
C103  C105  T    
C8    C91   S    
C61   O43   A    
C102  C104  T    
C9    C11   S    
C108  H10   S    
C59   O38   A    
C3    H11   S    
O4    Zn4   S    
O22   Zn1   S    
H5    N3    S    
O48   Zn12  S    
O19   Zn6   S    
C65   C94   S    
C83   C85   S    
C28   C33   S    
C26   C30   T    
C76   C107  S    
C82   C84   S    
H8    N4    S    
C68   C88   S    
C54   C76   S    
C40   O25   A    
C10   C106  S    
C2    C5    T    
O29   Zn6   S    
C12   C54   S    
C9    C93   S    
C66   O30   A    
C59   O39   A    
C61   C90   S    
C63   O46   A    
O21   Zn7   S    
C41   O26   A    
C85   C88   T    
C5    C41   S    
C38   C71   S    
C67   C86   S    
C76   C106  S    
C34   C38   T    
C67   O3    A    
C24   C28   T    
O7    Zn2   S    
C42   C64   S    
O9    Zn3   S    
C95   C97   S    
C63   O47   A    
C32   O20   A    
C69   O5    A    
C16   C32   S    
C62   O44   A    
C17   C22   T    
O43   Zn11  S    
C19   C24   S    
O41   Zn9   S    
C54   C91   S    
C56   O32   A    
C92   H13   S    
O46   Zn10  S    
C74   C105  S    
C66   O28   A    
H6    N3    S    
C70   O10   A    
C32   O23   A    
O1    Zn1   S    
O20   Zn7   S    
O17   Zn4   S    
C65   C93   S    
C57   O33   A    
C3    C94   S    
C75   C78   T    
O37   Zn9   S    
C3    C11   S    
H2    N1    S    
O47   Zn11  S    
C43   O34   A    
C15   C21   S    
C45   C47   S    
O25   Zn6   S    
C8    C10   S    
C22   C26   S    
C11   C108  S    
C70   O6    A    
C31   C36   T    
C68   O2    A    
C61   O42   A    
C21   O12   A    
O24   Zn5   S    
C9    C94   S    
C107  H9    S    
C87   N2    S    
C97   C101  T    
O27   Zn1   S    
O28   Zn5   S    
H16   N1    S    
C73   O16   A    
