data_mof_unit_16399.cif
_audit_creation_date              2012-12-10T17:16:36-0500
_audit_creation_method            fapswitch 2.2
_symmetry_space_group_name_H-M    P1
_symmetry_Int_Tables_number       1
_space_group_crystal_system       triclinic
_cell_length_a                    10.154978
_cell_length_b                    10.670302
_cell_length_c                    10.792883
_cell_angle_alpha                 90.104106
_cell_angle_beta                  95.163519
_cell_angle_gamma                 81.754841
_cell_volume                      1152.6228887

loop_
_atom_site_label
_atom_site_type_symbol
_atom_type_description
_atom_site_fract_x
_atom_site_fract_y
_atom_site_fract_z
_atom_type_partial_charge
C1    C     C_R   0.444059 0.504351 0.267346 0.906139
C2    C     C_R   0.555820 0.487704 0.732636 0.908990
C3    C     C_2   0.412320 0.493499 0.135271 -0.350245
C4    C     C_2   0.587082 0.467435 0.864617 -0.360111
C5    C     C_2   0.511197 0.450840 0.066149 -0.177194
C6    C     C_2   0.487372 0.454434 0.933557 -0.178912
C7    C     C_2   0.072724 0.489744 0.489550 0.501393
C8    C     C_2   0.927285 0.510236 0.510462 0.503050
C9    C     C_R   0.499214 0.260999 0.499985 0.858081
C10   C     C_R   0.500787 0.738999 0.500019 0.863888
C11   C     C_R   0.542878 0.124144 0.277384 -0.129666
C12   C     C_R   0.457437 0.875862 0.722720 -0.129730
C13   C     C_R   0.569006 0.055566 0.170288 -0.143441
C14   C     C_R   0.431168 0.944531 0.829769 -0.143147
C15   C     C_R   0.571649 0.925146 0.170758 -0.140142
C16   C     C_R   0.428232 0.074985 0.829199 -0.140255
C17   C     C_R   0.548058 0.863210 0.278290 -0.142641
C18   C     C_R   0.451645 0.136870 0.721608 -0.141835
C19   C     C_R   0.525067 0.931052 0.389484 0.071489
C20   C     C_R   0.474847 0.068976 0.610487 0.072266
C21   C     C_R   0.522504 0.062292 0.389032 0.080460
C22   C     C_R   0.477587 0.937714 0.610997 0.079352
C23   C     C_R   0.502336 0.871206 0.500419 -0.175787
C24   C     C_R   0.497663 0.128803 0.499581 -0.172856
H1    H     H_    0.408326 0.128511 0.912405 0.143779
H2    H     H_    0.591482 0.871696 0.087507 0.142248
H3    H     H_    0.538695 0.225694 0.271142 0.141257
H4    H     H_    0.461960 0.774235 0.729071 0.143604
H5    H     H_    0.586721 0.103980 0.086678 0.142164
H6    H     H_    0.413548 0.896176 0.913430 0.140548
H7    H     H_    0.548076 0.762094 0.272673 0.141390
H8    H     H_    0.451247 0.237998 0.727105 0.139155
H9    H     H_    0.384891 0.457003 0.893110 0.195153
H10   H     H_    0.613301 0.422816 0.106512 0.193659
H11   H     H_    0.689247 0.465124 0.905567 0.170862
H12   H     H_    0.310538 0.521675 0.094405 0.168554
H13   H     H_    0.879020 0.384456 0.384354 0.164911
H14   H     H_    0.120974 0.615534 0.615649 0.166420
N1    N     N_2   0.157300 0.551390 0.551120 -0.222466
N2    N     N_2   0.842700 0.448610 0.448880 -0.221833
O1    O     O_R   0.568940 0.489660 0.307530 -0.639080
O2    O     O_R   0.431060 0.510340 0.692470 -0.638627
O3    O     O_R   0.348880 0.522640 0.340350 -0.553386
O4    O     O_R   0.651120 0.477360 0.659650 -0.552986
O5    O     O_R   0.610030 0.300280 0.483580 -0.625267
O6    O     O_R   0.389970 0.699720 0.516420 -0.622089
O7    O     O_R   0.389970 0.333270 0.516400 -0.561553
O8    O     O_R   0.610030 0.666730 0.483600 -0.558242
Zn1   Zn    Zn3+2 0.646940 0.477980 0.478080 1.003582
Zn2   Zn    Zn3+2 0.353060 0.522020 0.521920 1.003497
F1    F     F_    0.882487 0.595601 0.596218 -0.662314
F2    F     F_    0.117529 0.404374 0.403800 -0.662082

loop_
_geom_bond_atom_site_label_1
_geom_bond_atom_site_label_2
_ccdc_geom_bond_type
O4    Zn1   S    
C10   O6    A    
C19   C23   A    
O3    Zn2   S    
C9    O5    A    
C11   H3    S    
C10   C23   S    
O7    Zn2   S    
C1    O3    A    
O6    Zn2   S    
C2    C4    S    
C6    H9    S    
O5    Zn1   S    
C13   H5    S    
C5    H10   S    
C12   C14   A    
C4    H11   S    
C7    C8    S    
C9    C24   S    
C16   C18   A    
C11   C13   A    
C8    F1    S    
C5    C6    S    
C3    H12   S    
O2    Zn2   S    
C1    O1    A    
O8    Zn1   S    
C19   C21   A    
C2    O2    A    
C7    F2    S    
C9    O7    A    
H13   N2    S    
C18   C20   A    
C13   C15   A    
C10   O8    A    
H14   N1    S    
C17   H7    S    
C14   C16   A    
C18   H8    S    
C20   C22   A    
N2    Zn1   S    
C12   C22   A    
N1    Zn2   S    
C12   H4    S    
C4    C6    D    
C1    C3    S    
C21   C24   A    
O1    Zn1   S    
C16   H1    S    
C15   C17   A    
C7    N1    D    
C22   C23   A    
C15   H2    S    
C8    N2    D    
C17   C19   A    
C14   H6    S    
C11   C21   A    
C20   C24   A    
C2    O4    A    
C3    C5    D    
