data_mof_unit_37929.cif
_audit_creation_date              2012-12-10T20:31:03-0500
_audit_creation_method            fapswitch 2.2
_symmetry_space_group_name_H-M    P1
_symmetry_Int_Tables_number       1
_space_group_crystal_system       triclinic
_cell_length_a                    14.876607
_cell_length_b                    10.70457
_cell_length_c                    9.918972
_cell_angle_alpha                 90.13815
_cell_angle_beta                  90.938084
_cell_angle_gamma                 90.551279
_cell_volume                      1579.28326346

loop_
_atom_site_label
_atom_site_type_symbol
_atom_type_description
_atom_site_fract_x
_atom_site_fract_y
_atom_site_fract_z
_atom_type_partial_charge
C1    C     C_R   0.502447 0.260006 0.499396 0.882624
C2    C     C_R   0.906386 0.594535 0.433292 0.114885
C3    C     C_R   0.953313 0.300040 0.622317 -0.229688
C4    C     C_R   0.046815 0.300895 0.623661 -0.224259
C5    C     C_R   0.093621 0.398372 0.561266 0.125245
C6    C     C_R   0.046683 0.495986 0.496379 0.060929
C7    C     C_R   0.093384 0.594491 0.432795 0.121391
C8    C     C_R   0.046537 0.691564 0.369803 -0.230958
C9    C     C_R   0.953116 0.691639 0.370153 -0.220820
C10   C     C_R   0.186744 0.400462 0.562406 -0.276270
C11   C     C_R   0.231773 0.497448 0.497914 -0.047442
C12   C     C_R   0.327151 0.499066 0.499233 0.875615
C13   C     C_R   0.186367 0.594270 0.434363 -0.286251
C14   C     C_R   0.523687 0.064242 0.618741 0.049715
C15   C     C_R   0.515686 0.128214 0.496945 -0.206184
C16   C     C_R   0.524887 0.063136 0.373562 0.473467
C17   C     C_R   0.521309 0.933662 0.376348 -0.382768
C18   C     C_R   0.514393 0.871173 0.499491 -0.164181
C19   C     C_R   0.523777 0.936727 0.620075 0.142177
C20   C     C_3   0.468992 0.930095 0.744965 -0.448402
C21   C     C_3   0.468673 0.071697 0.743330 -0.451389
C22   C     C_R   0.423933 0.468571 0.069199 0.070652
C23   C     C_R   0.501693 0.739750 0.500094 0.888135
C24   C     C_R   0.574630 0.533441 0.073801 0.388377
C25   C     C_R   0.576719 0.524693 0.930387 0.384192
C26   C     C_R   0.424283 0.467321 0.926615 0.031294
C27   C     C_3   0.337779 0.535030 0.916179 -0.534111
C28   C     C_3   0.338306 0.541366 0.069374 0.309224
C29   C     C_R   0.672847 0.499226 0.500600 0.867243
C30   C     C_R   0.813474 0.594755 0.435954 -0.238704
C31   C     C_R   0.768197 0.498033 0.500356 -0.036110
C32   C     C_R   0.813293 0.398412 0.559665 -0.284888
C33   C     C_R   0.906385 0.397130 0.559442 0.125765
C34   C     C_R   0.953179 0.495744 0.496153 0.052694
H1    H     H_    0.776238 0.670518 0.389893 0.141246
H2    H     H_    0.516941 0.883651 0.281612 0.178826
H3    H     H_    0.401348 0.887463 0.727017 0.195223
H4    H     H_    0.507567 0.890874 0.831756 0.205678
H5    H     H_    0.400861 0.111493 0.724249 0.200723
H6    H     H_    0.345596 0.626768 0.865060 0.218395
H7    H     H_    0.282864 0.474695 0.874187 0.175340
H8    H     H_    0.282620 0.489256 0.118610 0.083892
H9    H     H_    0.917740 0.224323 0.671244 0.145161
H10   H     H_    0.082483 0.225679 0.673374 0.145382
H11   H     H_    0.224358 0.326688 0.611813 0.136374
H12   H     H_    0.223789 0.670355 0.389659 0.149923
H13   H     H_    0.917465 0.767571 0.321714 0.143797
N1    N     N_R   0.499390 0.499140 0.142800 -0.144484
N2    N     N_R   0.499390 0.499180 0.857150 -0.152960
O1    O     O_R   0.500010 0.316790 0.614690 -0.633242
O2    O     O_R   0.500000 0.316760 0.385350 -0.556807
O3    O     O_R   0.367850 0.499990 0.614680 -0.621391
O4    O     O_R   0.367840 0.499950 0.385340 -0.600757
O5    O     O_R   0.500000 0.683240 0.614650 -0.603653
O6    O     O_R   0.499990 0.683210 0.385310 -0.613162
O7    O     O_R   0.632160 0.500050 0.614660 -0.578364
O8    O     O_R   0.632150 0.500010 0.385320 -0.581164
Zn1   Zn    Zn3+2 0.500010 0.500020 0.653130 0.967588
Zn2   Zn    Zn3+2 0.499990 0.499980 0.346870 1.014730
H14   H     H_    0.506945 0.114114 0.829182 0.206824
O9    O     O_3   0.648845 0.580906 0.142528 -0.590504
C35   C     C_3   0.642932 0.712723 0.151733 0.200017
H15   H     H_    0.643003 0.738699 0.259936 0.155945
H16   H     H_    0.581414 0.753721 0.103760 0.105850
C36   C     C_3   0.725311 0.773582 0.089765 -0.917829
H17   H     H_    0.724017 0.760004 0.978879 0.292435
H18   H     H_    0.725707 0.875395 0.111090 0.194291
H19   H     H_    0.787573 0.732655 0.133399 0.258744
O10   O     O_3   0.654604 0.557604 0.864943 -0.571906
C37   C     C_3   0.720857 0.465266 0.887536 0.157990
H20   H     H_    0.709532 0.386637 0.815867 0.136735
H21   H     H_    0.721176 0.425561 0.991086 0.144434
C38   C     C_3   0.813724 0.521953 0.865649 -0.810347
H22   H     H_    0.832243 0.585281 0.950464 0.250283
H23   H     H_    0.864424 0.446685 0.861033 0.208287
H24   H     H_    0.814768 0.576182 0.770513 0.269669
O11   O     O_3   0.354485 0.663284 0.120183 -0.573052
C39   C     C_3   0.275427 0.734715 0.110074 0.093008
H25   H     H_    0.217294 0.686010 0.156506 0.129084
H26   H     H_    0.258371 0.754782 0.002786 0.139373
C40   C     C_3   0.291215 0.858744 0.182378 -0.820149
H27   H     H_    0.346130 0.911818 0.133107 0.264165
H28   H     H_    0.228896 0.914961 0.178342 0.200339
H29   H     H_    0.310485 0.842457 0.289502 0.253200
H30   H     H_    0.775841 0.322869 0.605967 0.129673
H31   H     H_    0.082119 0.767326 0.320931 0.145127
O12   O     O_3   0.522753 0.125492 0.250985 -0.582877
C41   C     C_3   0.595876 0.090585 0.170210 0.114335
H32   H     H_    0.575116 0.011540 0.103405 0.138783
H33   H     H_    0.656565 0.063406 0.230665 0.120568
C42   C     C_3   0.622324 0.200968 0.082811 -0.856957
H34   H     H_    0.647253 0.278803 0.147988 0.264302
H35   H     H_    0.676340 0.173379 0.013083 0.192922
H36   H     H_    0.563426 0.233535 0.022885 0.239745

loop_
_geom_bond_atom_site_label_1
_geom_bond_atom_site_label_2
_ccdc_geom_bond_type
C22   N1    A    
O12   C41   S    
C24   O9    S    
O6    Zn2   S    
C38   H22   S    
C19   C20   S    
C40   H27   S    
O4    Zn2   S    
C7    C8    A    
O11   C39   S    
C3    H9    S    
C26   C27   S    
C30   H1    S    
N1    Zn2   S    
C14   C21   S    
C30   C31   A    
C39   H26   S    
O8    Zn2   S    
C3    C33   A    
C15   C16   A    
C18   C19   A    
C35   H16   S    
C12   O3    A    
C8    C9    A    
C36   H18   S    
C16   O12   S    
C37   H20   S    
C1    C15   S    
C17   H2    S    
C1    O1    A    
C12   O4    A    
C2    C34   A    
C22   C28   S    
C38   H23   S    
O9    C35   S    
C37   C38   S    
C40   H28   S    
C17   C18   A    
C18   C23   S    
O1    Zn1   S    
C24   C25   A    
C21   H14   S    
C26   N2    A    
C42   H34   S    
C39   H25   S    
C16   C17   A    
C4    H10   S    
N2    Zn1   S    
C6    C34   A    
C24   N1    A    
C35   H15   S    
C42   H35   S    
C20   H4    S    
C27   H7    S    
C31   C32   A    
C21   H5    S    
C41   C42   S    
C27   H6    S    
C36   H19   S    
C10   H11   S    
C33   C34   A    
C41   H32   S    
C28   O11   S    
C1    O2    A    
O3    Zn1   S    
C41   H33   S    
C9    H13   S    
C38   H24   S    
C25   O10   S    
C3    C4    A    
C40   H29   S    
C23   O5    A    
O5    Zn1   S    
C35   C36   S    
C14   C15   A    
C14   C19   A    
C29   O8    A    
C4    C5    A    
C11   C12   S    
C23   O6    A    
C6    C7    A    
C29   O7    A    
C2    C30   A    
C32   C33   A    
C5    C10   A    
C29   C31   S    
C42   H36   S    
C20   H3    S    
C11   C13   A    
C39   C40   S    
C5    C6    A    
C32   H30   S    
C28   H8    S    
O7    Zn1   S    
C8    H31   S    
O10   C37   S    
C25   N2    A    
C10   C11   A    
C7    C13   A    
O2    Zn2   S    
C20   C21   S    
C36   H17   S    
C22   C26   A    
C27   C28   S    
C13   H12   S    
C37   H21   S    
C2    C9    A    
