data_mof_unit_26730.cif
_audit_creation_date              2012-12-11T16:26:13-0500
_audit_creation_method            fapswitch 2.2
_symmetry_space_group_name_H-M    P1
_symmetry_Int_Tables_number       1
_space_group_crystal_system       monoclinic
_cell_length_a                    13.979809
_cell_length_b                    13.979809
_cell_length_c                    32.046813
_cell_angle_alpha                 90.0
_cell_angle_beta                  90.0
_cell_angle_gamma                 119.994087
_cell_volume                      5424.30157781

loop_
_atom_site_label
_atom_site_type_symbol
_atom_type_description
_atom_site_fract_x
_atom_site_fract_y
_atom_site_fract_z
_atom_type_partial_charge
C1    C     C_R   0.567798 0.443861 0.810697 0.574955
C2    C     C_R   0.876189 0.432227 0.689324 0.576654
C3    C     C_R   0.556203 0.124053 0.810717 0.575883
C4    C     C_R   0.567798 0.443861 0.689303 0.574956
C5    C     C_R   0.876189 0.432227 0.810676 0.576653
C6    C     C_R   0.556203 0.124053 0.689283 0.575884
C7    C     C_R   0.443861 0.567798 0.310697 0.574956
C8    C     C_R   0.432227 0.876189 0.189324 0.576654
C9    C     C_R   0.124053 0.556203 0.310717 0.575883
C10   C     C_R   0.443861 0.567798 0.189303 0.574956
C11   C     C_R   0.432227 0.876189 0.310676 0.576654
C12   C     C_R   0.124053 0.556203 0.189283 0.575883
C13   C     C_1   0.005745 0.520548 0.018399 0.089203
C14   C     C_1   0.516833 0.998180 0.481115 0.076923
C15   C     C_1   0.479361 0.483170 0.018641 0.090958
C16   C     C_1   0.005745 0.520548 0.481601 0.089204
C17   C     C_1   0.516834 0.998180 0.018885 0.076922
C18   C     C_1   0.479361 0.483171 0.481359 0.090958
C19   C     C_1   0.520548 0.005744 0.518399 0.089204
C20   C     C_1   0.998181 0.516834 0.981115 0.076923
C21   C     C_1   0.483171 0.479361 0.518641 0.090958
C22   C     C_1   0.520548 0.005744 0.981601 0.089203
C23   C     C_1   0.998181 0.516834 0.518885 0.076923
C24   C     C_1   0.483170 0.479361 0.981359 0.090958
C25   C     C_R   0.930937 0.470255 0.851797 -0.006460
C26   C     C_R   0.540432 0.070606 0.647973 -0.006211
C27   C     C_R   0.529822 0.460000 0.851904 -0.006751
C28   C     C_R   0.930937 0.470255 0.648203 -0.006460
C29   C     C_R   0.540432 0.070606 0.852027 -0.006212
C30   C     C_R   0.529822 0.460000 0.648096 -0.006751
C31   C     C_R   0.470255 0.930937 0.351797 -0.006459
C32   C     C_R   0.070606 0.540432 0.147973 -0.006212
C33   C     C_R   0.460000 0.529822 0.351904 -0.006751
C34   C     C_R   0.470255 0.930937 0.148203 -0.006460
C35   C     C_R   0.070606 0.540432 0.352027 -0.006212
C36   C     C_R   0.460000 0.529822 0.148096 -0.006751
C37   C     C_R   0.928313 0.557721 0.872803 0.332419
C38   C     C_R   0.632031 0.078253 0.626376 0.323203
C39   C     C_R   0.442149 0.369640 0.872794 0.334084
C40   C     C_R   0.928313 0.557721 0.627197 0.332419
C41   C     C_R   0.632031 0.078252 0.873624 0.323203
C42   C     C_R   0.442150 0.369639 0.627206 0.334084
C43   C     C_R   0.557720 0.928312 0.372803 0.332419
C44   C     C_R   0.078253 0.632031 0.126376 0.323203
C45   C     C_R   0.369639 0.442150 0.372794 0.334084
C46   C     C_R   0.557721 0.928312 0.127197 0.332420
C47   C     C_R   0.078253 0.632031 0.373624 0.323204
C48   C     C_R   0.369639 0.442149 0.127206 0.334084
C49   C     C_R   0.955877 0.577177 0.915290 0.085849
C50   C     C_R   0.624195 0.052442 0.583901 0.073435
C51   C     C_R   0.422837 0.377074 0.915383 0.082096
C52   C     C_R   0.955876 0.577176 0.584710 0.085849
C53   C     C_R   0.624194 0.052441 0.916098 0.073435
C54   C     C_R   0.422837 0.377074 0.584616 0.082096
C55   C     C_R   0.577176 0.955875 0.415290 0.085849
C56   C     C_R   0.052442 0.624195 0.083902 0.073435
C57   C     C_R   0.377073 0.422838 0.415384 0.082096
C58   C     C_R   0.577177 0.955876 0.084710 0.085849
C59   C     C_R   0.052442 0.624195 0.416098 0.073435
C60   C     C_R   0.377074 0.422837 0.084616 0.082096
C61   C     C_R   0.986993 0.509240 0.936590 -0.028650
C62   C     C_R   0.524127 0.016867 0.562909 -0.014624
C63   C     C_R   0.490880 0.475801 0.936854 -0.016586
C64   C     C_R   0.986993 0.509240 0.563410 -0.028650
C65   C     C_R   0.524127 0.016867 0.937090 -0.014624
C66   C     C_R   0.490880 0.475801 0.563146 -0.016586
C67   C     C_R   0.509239 0.986993 0.436590 -0.028650
C68   C     C_R   0.016868 0.524127 0.062909 -0.014624
C69   C     C_R   0.475801 0.490880 0.436854 -0.016585
C70   C     C_R   0.509240 0.986993 0.063410 -0.028650
C71   C     C_R   0.016868 0.524127 0.437090 -0.014623
C72   C     C_R   0.475801 0.490880 0.063146 -0.016586
C73   C     C_R   0.999701 0.428478 0.915295 0.079208
C74   C     C_R   0.429386 0.999404 0.584641 0.087410
C75   C     C_R   0.571812 0.568934 0.915630 0.078412
C76   C     C_R   0.999702 0.428478 0.584705 0.079207
C77   C     C_R   0.429387 0.999405 0.915360 0.087410
C78   C     C_R   0.571812 0.568934 0.584370 0.078412
C79   C     C_R   0.428478 0.999701 0.415295 0.079207
C80   C     C_R   0.999405 0.429387 0.084640 0.087410
C81   C     C_R   0.568935 0.571812 0.415630 0.078412
C82   C     C_R   0.428478 0.999701 0.084705 0.079208
C83   C     C_R   0.999405 0.429387 0.415360 0.087409
C84   C     C_R   0.568934 0.571812 0.084370 0.078412
C85   C     C_R   0.972231 0.409724 0.872791 0.357639
C86   C     C_R   0.437852 0.026071 0.627286 0.358210
C87   C     C_R   0.590670 0.561180 0.873211 0.348571
C88   C     C_R   0.972231 0.409724 0.627209 0.357640
C89   C     C_R   0.437853 0.026072 0.872714 0.358210
C90   C     C_R   0.590669 0.561180 0.626789 0.348572
C91   C     C_R   0.409724 0.972231 0.372791 0.357639
C92   C     C_R   0.026072 0.437853 0.127286 0.358210
C93   C     C_R   0.561180 0.590669 0.373211 0.348572
C94   C     C_R   0.409723 0.972230 0.127209 0.357639
C95   C     C_R   0.026072 0.437853 0.372714 0.358210
C96   C     C_R   0.561180 0.590669 0.126788 0.348571
Cr1   Cr    Cr6+3 0.504240 0.249200 0.750000 1.222731
Cr2   Cr    Cr6+3 0.744960 0.495760 0.750000 1.222256
Cr3   Cr    Cr6+3 0.750800 0.255040 0.750000 1.221316
Cr4   Cr    Cr6+3 0.249200 0.504240 0.250000 1.222731
Cr5   Cr    Cr6+3 0.495760 0.744960 0.250000 1.222256
Cr6   Cr    Cr6+3 0.255040 0.750800 0.250000 1.221316
O1    O     O_R   0.480350 0.140770 0.796330 -0.403823
O2    O     O_R   0.660420 0.519650 0.703670 -0.404672
O3    O     O_R   0.859230 0.339580 0.796330 -0.401904
O4    O     O_R   0.480350 0.140770 0.703670 -0.403823
O5    O     O_R   0.660420 0.519650 0.796330 -0.404672
O6    O     O_R   0.859230 0.339580 0.703670 -0.401904
O7    O     O_R   0.140770 0.480350 0.296330 -0.403823
O8    O     O_R   0.519650 0.660420 0.203670 -0.404672
O9    O     O_R   0.339580 0.859230 0.296330 -0.401904
O10   O     O_R   0.140770 0.480350 0.203670 -0.403823
O11   O     O_R   0.519650 0.660420 0.296330 -0.404672
O12   O     O_R   0.339580 0.859230 0.203670 -0.401904
O13   O     O_R   0.514930 0.348530 0.793250 -0.448820
O14   O     O_R   0.833600 0.485070 0.706750 -0.448499
O15   O     O_R   0.651470 0.166400 0.793250 -0.449813
O16   O     O_R   0.514930 0.348530 0.706750 -0.448820
O17   O     O_R   0.833600 0.485070 0.793250 -0.448499
O18   O     O_R   0.651470 0.166400 0.706750 -0.449813
O19   O     O_R   0.348530 0.514930 0.293250 -0.448819
O20   O     O_R   0.485070 0.833600 0.206750 -0.448499
O21   O     O_R   0.166400 0.651470 0.293250 -0.449813
O22   O     O_R   0.348530 0.514930 0.206750 -0.448820
O23   O     O_R   0.485070 0.833600 0.293250 -0.448499
O24   O     O_R   0.166400 0.651470 0.206750 -0.449813
O25   O     O_3   0.666667 0.333333 0.750000 -0.361392
O26   O     O_3   0.333333 0.666667 0.250000 -0.361392
F1    F     F_    0.893958 0.620824 0.852713 -0.563654
F2    F     F_    0.731412 0.116983 0.645497 -0.559679
F3    F     F_    0.378707 0.272604 0.852497 -0.564434
F4    F     F_    0.893957 0.620824 0.647287 -0.563654
F5    F     F_    0.731411 0.116981 0.854503 -0.559678
F6    F     F_    0.378707 0.272603 0.647503 -0.564435
F7    F     F_    0.620824 0.893956 0.352713 -0.563654
F8    F     F_    0.116982 0.731412 0.145497 -0.559678
F9    F     F_    0.272603 0.378708 0.352497 -0.564434
F10   F     F_    0.620824 0.893958 0.147287 -0.563654
F11   F     F_    0.116982 0.731411 0.354503 -0.559679
F12   F     F_    0.272603 0.378707 0.147503 -0.564434
N1    N     N_3   0.066960 0.719417 0.061526 -0.586514
H1    H     H_    0.017911 0.747149 0.075721 0.286177
H2    H     H_    0.149541 0.781653 0.064384 0.282463
N2    N     N_3   0.662047 0.947703 0.437733 -0.580890
H3    H     H_    0.700761 0.916211 0.418859 0.306916
H4    H     H_    0.722613 0.027806 0.446018 0.241024
N3    N     N_3   0.283734 0.338053 0.062287 -0.583030
H5    H     H_    0.213558 0.299896 0.081197 0.316550
H6    H     H_    0.302839 0.277130 0.054077 0.239011
N4    N     N_3   0.066960 0.719417 0.438474 -0.586514
H7    H     H_    0.017910 0.747148 0.424279 0.286177
H8    H     H_    0.149541 0.781653 0.435615 0.282464
N5    N     N_3   0.662048 0.947704 0.062267 -0.580890
H9    H     H_    0.700763 0.916213 0.081141 0.306916
H10   H     H_    0.722614 0.027807 0.053982 0.241023
N6    N     N_3   0.283734 0.338055 0.437713 -0.583031
H11   H     H_    0.213558 0.299898 0.418803 0.316550
H12   H     H_    0.302838 0.277131 0.445923 0.239011
N7    N     N_3   0.719417 0.066961 0.561526 -0.586514
H13   H     H_    0.747149 0.017911 0.575721 0.286177
H14   H     H_    0.781652 0.149542 0.564384 0.282463
N8    N     N_3   0.947705 0.662048 0.937733 -0.580890
H15   H     H_    0.916213 0.700763 0.918859 0.306916
H16   H     H_    0.027808 0.722614 0.946017 0.241023
N9    N     N_3   0.338054 0.283734 0.562287 -0.583031
H17   H     H_    0.299897 0.213558 0.581197 0.316550
H18   H     H_    0.277131 0.302839 0.554077 0.239011
N10   N     N_3   0.719416 0.066959 0.938474 -0.586514
H19   H     H_    0.747148 0.017908 0.924279 0.286177
H20   H     H_    0.781653 0.149539 0.935615 0.282464
N11   N     N_3   0.947704 0.662048 0.562267 -0.580890
H21   H     H_    0.916213 0.700762 0.581141 0.306916
H22   H     H_    0.027807 0.722614 0.553982 0.241024
N12   N     N_3   0.338053 0.283734 0.937713 -0.583031
H23   H     H_    0.299895 0.213559 0.918803 0.316550
H24   H     H_    0.277130 0.302840 0.945922 0.239011
F13   F     F_    0.012391 0.347096 0.148062 -0.558438
F14   F     F_    0.329586 0.981839 0.352483 -0.553746
F15   F     F_    0.651508 0.672156 0.146342 -0.553542
F16   F     F_    0.012391 0.347096 0.351938 -0.558438
F17   F     F_    0.329585 0.981838 0.147517 -0.553746
F18   F     F_    0.651508 0.672155 0.353657 -0.553543
F19   F     F_    0.347096 0.012390 0.648063 -0.558438
F20   F     F_    0.981839 0.329585 0.852483 -0.553746
F21   F     F_    0.672155 0.651508 0.646343 -0.553543
F22   F     F_    0.347096 0.012391 0.851938 -0.558438
F23   F     F_    0.981839 0.329586 0.647517 -0.553746
F24   F     F_    0.672156 0.651508 0.853657 -0.553542
N13   N     N_3   0.959360 0.326661 0.062547 -0.576392
H25   H     H_    0.877461 0.299358 0.054077 0.229017
H26   H     H_    0.958052 0.265634 0.081741 0.304303
N14   N     N_3   0.362931 0.035773 0.437751 -0.584952
H27   H     H_    0.414791 0.118597 0.445786 0.234923
H28   H     H_    0.300524 0.033026 0.418981 0.305219
N15   N     N_3   0.670390 0.638041 0.062284 -0.575941
H29   H     H_    0.732236 0.628776 0.076822 0.273044
H30   H     H_    0.691310 0.720807 0.064959 0.281810
N16   N     N_3   0.959361 0.326662 0.437453 -0.576393
H31   H     H_    0.877462 0.299358 0.445923 0.229017
H32   H     H_    0.958053 0.265634 0.418259 0.304303
N17   N     N_3   0.362931 0.035772 0.062249 -0.584952
H33   H     H_    0.414791 0.118596 0.054214 0.234923
H34   H     H_    0.300523 0.033025 0.081018 0.305219
N18   N     N_3   0.670390 0.638040 0.437716 -0.575941
H35   H     H_    0.732236 0.628774 0.423177 0.273044
H36   H     H_    0.691311 0.720806 0.435041 0.281810
N19   N     N_3   0.326661 0.959359 0.562547 -0.576393
H37   H     H_    0.299357 0.877460 0.554078 0.229017
H38   H     H_    0.265633 0.958050 0.581741 0.304303
N20   N     N_3   0.035773 0.362931 0.937751 -0.584952
H39   H     H_    0.118597 0.414791 0.945786 0.234923
H40   H     H_    0.033025 0.300523 0.918982 0.305219
N21   N     N_3   0.638041 0.670390 0.562284 -0.575941
H41   H     H_    0.628775 0.732236 0.576823 0.273044
H42   H     H_    0.720807 0.691311 0.564959 0.281811
N22   N     N_3   0.326662 0.959361 0.937453 -0.576393
H43   H     H_    0.299358 0.877462 0.945923 0.229017
H44   H     H_    0.265634 0.958053 0.918259 0.304304
N23   N     N_3   0.035774 0.362932 0.562249 -0.584952
H45   H     H_    0.118597 0.414792 0.554214 0.234923
H46   H     H_    0.033026 0.300524 0.581018 0.305219
N24   N     N_3   0.638042 0.670390 0.937716 -0.575940
H47   H     H_    0.628776 0.732236 0.923177 0.273044
H48   H     H_    0.720807 0.691309 0.935041 0.281810

loop_
_geom_bond_atom_site_label_1
_geom_bond_atom_site_label_2
_ccdc_geom_bond_type
C68   C80   A    
C39   C51   A    
N11   H21   S    
C44   F8    S    
N9    H17   S    
C82   C94   A    
C70   C82   A    
C21   C66   S    
C18   C21   T    
C7    C33   S    
C89   F22   S    
N3    H5    S    
C30   C90   A    
C35   C47   A    
C41   F5    S    
C10   O22   A    
Cr2   O17   S    
C5    O3    A    
N21   H41   S    
C78   C90   A    
Cr3   O6    S    
N11   H22   S    
C45   C57   A    
C31   C43   A    
C5    O17   A    
Cr6   O12   S    
C38   F2    S    
N6    H11   S    
C11   O23   A    
N22   H44   S    
Cr6   O26   S    
N1    H2    S    
C9    C35   S    
C12   O24   A    
C60   C72   A    
C19   C62   S    
C3    O1    A    
C91   F14   S    
Cr1   O16   S    
Cr5   O26   S    
C33   C45   A    
C55   C67   A    
C52   N11   S    
C3    C29   S    
Cr4   O19   S    
C84   C96   A    
C2    O6    A    
C20   C61   S    
N13   H26   S    
C36   C96   A    
N12   H23   S    
C3    O15   A    
C25   C37   A    
Cr3   O18   S    
C2    O14   A    
C15   C24   T    
C88   F23   S    
C75   N24   S    
C27   C39   A    
C28   C88   A    
Cr5   O23   S    
C14   C67   S    
N7    H14   S    
C10   O8    A    
N16   H31   S    
C34   C46   A    
C60   N3    S    
C85   F20   S    
Cr1   O13   S    
C53   C65   A    
C76   C88   A    
N8    H16   S    
C8    O12   A    
C46   F10   S    
C29   C41   A    
C64   C76   A    
C18   C69   S    
N10   H20   S    
C40   F4    S    
C11   C31   S    
C17   C70   S    
N9    H18   S    
C12   C32   S    
Cr5   O20   S    
N17   H34   S    
C4    O16   A    
Cr6   O9    S    
N24   H47   S    
C16   C71   S    
C7    O19   A    
Cr3   O3    S    
C78   N21   S    
C6    O18   A    
C25   C85   A    
C48   C60   A    
C81   N18   S    
C71   C83   A    
C74   N19   S    
N21   H42   S    
C9    O7    A    
C76   N23   S    
C66   C78   A    
C57   N6    S    
C72   C84   A    
C49   C61   A    
C38   C50   A    
C48   F12   S    
C11   O9    A    
N19   H37   S    
C23   C64   S    
C73   N20   S    
C67   C79   A    
N22   H43   S    
N2    H4    S    
C52   C64   A    
N23   H45   S    
C29   C89   A    
C58   C70   A    
Cr3   O25   S    
C61   C73   A    
Cr5   O8    S    
C40   C52   A    
C4    C30   S    
Cr2   O5    S    
Cr4   O22   S    
N14   H28   S    
C80   C92   A    
C51   N12   S    
C43   F7    S    
C22   C65   S    
C15   C72   S    
C58   N5    S    
Cr3   O15   S    
C65   C77   A    
C81   C93   A    
C93   F18   S    
C44   C56   A    
C53   N10   S    
Cr2   O14   S    
N7    H13   S    
C26   C86   A    
C62   C74   A    
C83   C95   A    
C45   F9    S    
C6    O4    A    
C51   C63   A    
C8    C34   S    
C74   C86   A    
C83   N16   S    
C27   C87   A    
C41   C53   A    
C37   C49   A    
Cr1   O1    S    
C1    O5    A    
C5    C25   S    
C56   N1    S    
C43   C55   A    
N10   H19   S    
C94   F17   S    
N18   H36   S    
Cr4   O10   S    
C16   C23   T    
N20   H40   S    
C79   N14   S    
C80   N13   S    
C86   F19   S    
C50   C62   A    
N4    H8    S    
N5    H10   S    
Cr1   O4    S    
C54   N9    S    
Cr6   O21   S    
C12   O10   A    
C63   C75   A    
N19   H38   S    
N8    H15   S    
C73   C85   A    
C59   N4    S    
C75   C87   A    
Cr1   O25   S    
Cr2   O25   S    
C55   N2    S    
C13   C20   T    
N3    H6    S    
N24   H48   S    
Cr4   O26   S    
C77   C89   A    
C79   C91   A    
C14   C19   T    
C26   C38   A    
C34   C94   A    
N2    H3    S    
Cr6   O24   S    
C33   C93   A    
C82   N17   S    
C2    C28   S    
C87   F24   S    
C54   C66   A    
C90   F21   S    
C35   C95   A    
C50   N7    S    
C24   C63   S    
C1    O13   A    
C31   C91   A    
C17   C22   T    
N17   H33   S    
C42   F6    S    
N14   H27   S    
C7    O11   A    
C49   N8    S    
C56   C68   A    
N1    H1    S    
C42   C54   A    
C8    O20   A    
C6    C26   S    
C39   F3    S    
Cr2   O2    S    
C4    O2    A    
N6    H12   S    
C9    O21   A    
C37   F1    S    
C36   C48   A    
N23   H46   S    
C96   F15   S    
N13   H25   S    
Cr5   O11   S    
N12   H24   S    
C69   C81   A    
C92   F13   S    
C32   C92   A    
C47   C59   A    
N15   H29   S    
C95   F16   S    
Cr4   O7    S    
N18   H35   S    
C32   C44   A    
N20   H39   S    
C47   F11   S    
C1    C27   S    
C28   C40   A    
N4    H7    S    
C30   C42   A    
N16   H32   S    
C84   N15   S    
C10   C36   S    
C57   C69   A    
N5    H9    S    
C46   C58   A    
C77   N22   S    
C59   C71   A    
N15   H30   S    
C13   C68   S    
