data_mof_unit_42856.cif
_audit_creation_date              2012-10-26T20:21:15-0400
_audit_creation_method            fapswitch 2.2
_symmetry_space_group_name_H-M    P1
_symmetry_Int_Tables_number       1
_space_group_crystal_system       triclinic
_cell_length_a                    9.534619
_cell_length_b                    10.84093
_cell_length_c                    15.547863
_cell_angle_alpha                 89.76989
_cell_angle_beta                  74.34112
_cell_angle_gamma                 89.975503
_cell_volume                      1547.43253472

loop_
_atom_site_label
_atom_site_type_symbol
_atom_type_description
_atom_site_fract_x
_atom_site_fract_y
_atom_site_fract_z
_atom_type_partial_charge
C1    C     C_R   0.001415 0.262314 0.497524 0.545982
C2    C     C_R   0.133496 0.061159 0.463577 -0.033959
C3    C     C_R   0.997018 0.871630 0.504067 -0.004101
C4    C     C_R   0.002982 0.128370 0.495932 -0.004101
C5    C     C_R   0.547874 0.427316 0.558752 0.210549
C6    C     C_R   0.452126 0.572683 0.441248 0.210548
C7    C     C_R   0.399055 0.428023 0.558584 -0.003706
C8    C     C_R   0.600945 0.571977 0.441416 -0.003707
C9    C     C_R   0.918187 0.498087 0.671907 0.542988
C10   C     C_R   0.081813 0.501914 0.328092 0.542987
C11   C     C_R   0.872656 0.489019 0.769575 -0.001529
C12   C     C_R   0.998585 0.737686 0.502476 0.545983
C13   C     C_R   0.127344 0.510983 0.230425 -0.001529
C14   C     C_R   0.921515 0.439818 0.910233 -0.143755
C15   C     C_R   0.078485 0.560187 0.089767 -0.143755
C16   C     C_R   0.970775 0.455631 0.818130 -0.142602
C17   C     C_R   0.029225 0.544372 0.181871 -0.142602
C18   C     C_R   0.725869 0.507234 0.813814 -0.137919
C19   C     C_R   0.274132 0.492769 0.186186 -0.137918
C20   C     C_R   0.672741 0.491127 0.906611 0.031729
C21   C     C_R   0.327259 0.508878 0.093389 0.031729
C22   C     C_R   0.774175 0.458435 0.954807 0.051721
C23   C     C_R   0.583984 0.465203 0.092799 -0.146400
C24   C     C_R   0.225825 0.541570 0.045193 0.051721
C25   C     C_R   0.522575 0.506684 0.952632 0.034009
C26   C     C_R   0.477425 0.493321 0.047368 0.034009
C27   C     C_R   0.725106 0.880194 0.580340 0.057247
C28   C     C_R   0.611792 0.880645 0.538416 -0.103859
C29   C     C_R   0.477203 0.827466 0.581033 -0.118208
C30   C     C_R   0.454703 0.774650 0.665819 -0.097513
C31   C     C_R   0.566600 0.775404 0.708250 -0.108442
C32   C     C_R   0.701867 0.827058 0.665501 -0.064168
C33   C     C_R   0.274895 0.119806 0.419661 0.057247
C34   C     C_R   0.416017 0.534803 0.907202 -0.146400
C35   C     C_R   0.298135 0.172946 0.334502 -0.064165
C36   C     C_R   0.433402 0.224599 0.291753 -0.108441
C37   C     C_R   0.545299 0.225349 0.334185 -0.097512
C38   C     C_R   0.522799 0.172530 0.418970 -0.118208
C39   C     C_R   0.388209 0.119351 0.461585 -0.103861
C40   C     C_R   0.728325 0.445654 0.047077 -0.141665
C41   C     C_R   0.271676 0.554352 0.952924 -0.141665
C42   C     C_R   0.871129 0.066576 0.531281 -0.154523
C43   C     C_R   0.128871 0.933424 0.468719 -0.154523
C44   C     C_R   0.866504 0.938841 0.536422 -0.033960
Cu1   Cu    Cu3+1 0.140660 0.500020 0.500000 0.969881
Cu2   Cu    Cu3+1 0.859340 0.499980 0.500000 0.969882
H1    H     H_    0.805133 0.421743 0.084684 0.106320
H2    H     H_    0.438967 0.541877 0.835789 0.090322
H3    H     H_    0.771476 0.118000 0.557913 0.133834
H4    H     H_    0.228524 0.882000 0.442087 0.133833
H5    H     H_    0.321637 0.370098 0.605124 0.105934
H6    H     H_    0.678363 0.629902 0.394876 0.105934
H7    H     H_    0.628094 0.921402 0.472749 0.099391
H8    H     H_    0.390152 0.827553 0.548542 0.114791
H9    H     H_    0.350323 0.733952 0.698883 0.109693
H10   H     H_    0.548198 0.737168 0.774656 0.100103
H11   H     H_    0.787793 0.827003 0.699023 0.096227
H12   H     H_    0.194868 0.578264 0.915316 0.106320
H13   H     H_    0.212208 0.173004 0.300979 0.096226
H14   H     H_    0.451805 0.262838 0.225348 0.100101
H15   H     H_    0.649679 0.266048 0.301122 0.109694
H16   H     H_    0.609849 0.172440 0.451460 0.114791
H17   H     H_    0.371906 0.078591 0.527251 0.099392
H18   H     H_    0.535669 0.375085 0.684951 0.198294
H19   H     H_    0.563295 0.258841 0.610559 0.188086
H20   H     H_    0.436702 0.741159 0.389442 0.188086
H21   H     H_    0.464333 0.624917 0.315049 0.198293
H22   H     H_    0.344355 0.465720 0.226381 0.121074
H23   H     H_    0.655645 0.534281 0.773619 0.121074
H24   H     H_    0.915365 0.560365 0.215120 0.119643
H25   H     H_    0.084635 0.439639 0.784880 0.119643
H26   H     H_    0.998528 0.412136 0.946666 0.111078
H27   H     H_    0.001473 0.587870 0.053335 0.111078
H28   H     H_    0.561033 0.458130 0.164211 0.090322
N1    N     N_R   0.352080 0.500030 0.499980 -0.205215
N2    N     N_R   0.647920 0.499970 0.500020 -0.205215
N3    N     N_3   0.593463 0.349278 0.620382 -0.561329
N4    N     N_3   0.406537 0.650722 0.379618 -0.561329
O1    O     O_R   0.118740 0.319660 0.500000 -0.496339
O2    O     O_R   0.881260 0.680340 0.500000 -0.496338
O3    O     O_R   0.881170 0.319630 0.500010 -0.484445
O4    O     O_R   0.118830 0.680370 0.499990 -0.484446
O5    O     O_R   0.055570 0.500030 0.629830 -0.519490
O6    O     O_R   0.944430 0.499970 0.370170 -0.519490
O7    O     O_R   0.818000 0.500000 0.629840 -0.469729
O8    O     O_R   0.182000 0.500000 0.370160 -0.469728

loop_
_geom_bond_atom_site_label_1
_geom_bond_atom_site_label_2
_ccdc_geom_bond_type
C40   H1    S    
C21   C26   A    
C11   C18   A    
H18   N3    S    
Cu1   O4    S    
Cu2   N2    S    
C6    N1    A    
Cu1   Cu2   S    
H21   N4    S    
C3    C43   A    
C29   C30   A    
C6    C8    A    
C28   C29   A    
C19   C21   A    
C41   H12   S    
C30   C31   A    
C6    N4    S    
C20   C25   A    
C1    O3    A    
C23   C40   A    
C8    N2    A    
C35   H13   S    
C23   C26   A    
C3    C12   S    
C9    O7    A    
C27   C44   S    
C10   O8    A    
C35   C36   A    
C31   H10   S    
C8    H6    S    
C25   C34   A    
Cu2   O7    S    
C18   H23   S    
C17   H24   S    
C16   H25   S    
C24   C41   A    
Cu1   O5    S    
C34   C41   A    
C42   C44   A    
C32   H11   S    
H20   N4    S    
C3    C44   A    
H19   N3    S    
C13   C19   A    
C5    C7    A    
C7    N1    A    
C25   C26   A    
C2    C4    A    
C37   C38   A    
Cu2   O3    S    
C11   C16   A    
C31   C32   A    
C2    C43   A    
C22   C40   A    
C12   O4    A    
C19   H22   S    
Cu1   O1    S    
C33   C39   A    
C9    C11   S    
C9    O5    A    
Cu2   O6    S    
C2    C33   S    
C15   C24   A    
C15   H27   S    
C20   C22   A    
C1    O1    A    
C14   C16   A    
C34   H2    S    
C23   H28   S    
C5    N3    S    
C15   C17   A    
C36   C37   A    
C27   C32   A    
C14   H26   S    
C36   H14   S    
C10   C13   S    
C37   H15   S    
C28   H7    S    
C43   H4    S    
C39   H17   S    
C30   H9    S    
C13   C17   A    
Cu1   N1    S    
C1    C4    S    
C14   C22   A    
C5    N2    A    
Cu1   O8    S    
C7    H5    S    
Cu2   O2    S    
C38   C39   A    
C4    C42   A    
C12   O2    A    
C10   O6    A    
C33   C35   A    
C18   C20   A    
C42   H3    S    
C29   H8    S    
C21   C24   A    
C27   C28   A    
C38   H16   S    
