data_mof_unit_46333.cif
_audit_creation_date              2012-12-10T19:46:51-0500
_audit_creation_method            fapswitch 2.2
_symmetry_space_group_name_H-M    P1
_symmetry_Int_Tables_number       1
_space_group_crystal_system       triclinic
_cell_length_a                    10.920787
_cell_length_b                    11.030067
_cell_length_c                    13.095131
_cell_angle_alpha                 90.394125
_cell_angle_beta                  89.442476
_cell_angle_gamma                 90.375059
_cell_volume                      1577.25525022

loop_
_atom_site_label
_atom_site_type_symbol
_atom_type_description
_atom_site_fract_x
_atom_site_fract_y
_atom_site_fract_z
_atom_type_partial_charge
C1    C     C_R   0.496964 0.259447 0.499805 0.855213
C2    C     C_R   0.502174 0.740588 0.500125 0.856874
C3    C     C_R   0.872823 0.498416 0.499528 -0.154363
C4    C     C_R   0.127001 0.498568 0.500062 -0.162758
C5    C     C_R   0.934499 0.416326 0.562938 0.017978
C6    C     C_R   0.065130 0.578261 0.434653 0.004490
C7    C     C_R   0.500331 0.190530 0.143625 -0.150435
C8    C     C_R   0.472365 0.800111 0.853257 -0.140876
C9    C     C_R   0.470664 0.139686 0.238254 -0.135348
C10   C     C_R   0.510498 0.851735 0.760968 -0.117702
C11   C     C_R   0.561014 0.127776 0.313061 0.165597
C12   C     C_R   0.425442 0.871448 0.683173 0.159538
C13   C     C_R   0.680784 0.168415 0.292444 -0.124510
C14   C     C_R   0.302258 0.838845 0.698619 -0.135130
C15   C     C_R   0.709916 0.219774 0.197924 -0.133981
C16   C     C_R   0.264614 0.787091 0.790894 -0.143645
C17   C     C_R   0.620052 0.229790 0.123261 -0.112409
C18   C     C_R   0.349495 0.767759 0.868205 -0.122352
C19   C     C_R   0.538203 0.936488 0.410356 0.109756
C20   C     C_R   0.460360 0.063639 0.589489 0.121369
C21   C     C_R   0.501869 0.873222 0.499963 -0.165696
C22   C     C_R   0.496139 0.126853 0.499668 -0.159911
C23   C     C_R   0.259635 0.499506 0.500215 0.854710
C24   C     C_R   0.740285 0.498404 0.499708 0.860990
C25   C     C_R   0.463446 0.936656 0.589043 -0.064391
C26   C     C_R   0.531994 0.063307 0.409819 -0.065476
C27   C     C_1   0.499818 0.500562 0.173528 0.127709
C28   C     C_1   0.499955 0.499676 0.826479 0.160349
C29   C     C_1   0.499648 0.500546 0.050694 -0.107531
C30   C     C_1   0.499784 0.499970 0.949318 -0.103028
C31   C     C_R   0.244414 0.844981 0.329532 -0.126521
C32   C     C_R   0.763009 0.133593 0.644060 -0.120942
C33   C     C_R   0.185991 0.766302 0.397667 -0.222214
C34   C     C_R   0.822113 0.220391 0.583855 -0.244453
C35   C     C_R   0.134026 0.657401 0.362434 0.052927
C36   C     C_R   0.864831 0.328896 0.627543 0.055424
C37   C     C_R   0.143175 0.625964 0.258023 0.499935
C38   C     C_R   0.850043 0.349706 0.733304 0.516988
C39   C     C_R   0.201518 0.706538 0.189989 -0.234414
C40   C     C_R   0.785523 0.263334 0.792469 -0.258987
C41   C     C_R   0.252359 0.815123 0.225889 -0.193798
C42   C     C_R   0.744081 0.155369 0.748059 -0.186049
C43   C     C_R   0.937078 0.581444 0.437088 0.153086
C44   C     C_R   0.062805 0.415510 0.562661 0.147796
Cu1   Cu    Cu3+1 0.499990 0.499990 0.592680 0.985841
Cu2   Cu    Cu3+1 0.500010 0.500010 0.407320 0.967777
H1    H     H_    0.296829 0.876841 0.173137 0.144374
H2    H     H_    0.696675 0.088710 0.794346 0.144538
H3    H     H_    0.751822 0.157431 0.348342 0.106047
H4    H     H_    0.235162 0.856768 0.640571 0.110735
H5    H     H_    0.802503 0.250325 0.182056 0.133982
H6    H     H_    0.169247 0.763953 0.802974 0.135249
H7    H     H_    0.282307 0.929851 0.356989 0.143997
H8    H     H_    0.731654 0.049436 0.609987 0.146167
H9    H     H_    0.178643 0.791192 0.477444 0.128182
H10   H     H_    0.837393 0.202225 0.503606 0.132514
H11   H     H_    0.205230 0.686311 0.109041 0.126952
H12   H     H_    0.767953 0.279008 0.872887 0.120474
H13   H     H_    0.643091 0.268381 0.049745 0.125484
H14   H     H_    0.320051 0.728067 0.939757 0.124435
H15   H     H_    0.430712 0.198977 0.085889 0.126765
H16   H     H_    0.537937 0.785489 0.913308 0.135556
H17   H     H_    0.378140 0.107899 0.252750 0.111085
H18   H     H_    0.605514 0.877845 0.750436 0.114019
N1    N     N_1   0.500030 0.500030 0.268070 -0.142884
N2    N     N_1   0.499970 0.499970 0.731930 -0.133470
O1    O     O_R   0.499980 0.319630 0.578260 -0.575402
O2    O     O_R   0.500020 0.680370 0.421740 -0.573292
O3    O     O_R   0.500000 0.319650 0.421740 -0.578418
O4    O     O_R   0.500000 0.680350 0.578260 -0.574173
O5    O     O_R   0.319630 0.500000 0.578260 -0.577491
O6    O     O_R   0.680370 0.500000 0.421740 -0.577677
O7    O     O_R   0.319650 0.500020 0.421740 -0.597909
O8    O     O_R   0.680350 0.499980 0.578260 -0.566313
C45   C     C_3   0.583772 0.869218 0.314977 -0.809088
H19   H     H_    0.626846 0.926993 0.255884 0.223619
H20   H     H_    0.655727 0.804227 0.335312 0.231362
H21   H     H_    0.506739 0.820856 0.277756 0.250767
C46   C     C_3   0.417374 0.131191 0.685650 -0.818316
H22   H     H_    0.377576 0.073869 0.746548 0.222955
H23   H     H_    0.495012 0.180700 0.720775 0.252139
H24   H     H_    0.344175 0.195381 0.666651 0.230452
O9    O     O_3   0.083942 0.522911 0.222283 -0.588341
C47   C     C_3   0.171289 0.438926 0.185708 0.063867
H25   H     H_    0.240122 0.418477 0.245172 0.169284
H26   H     H_    0.218874 0.473263 0.116161 0.132798
C48   C     C_3   0.106527 0.321080 0.157779 -0.814288
H27   H     H_    0.038354 0.337483 0.097118 0.239984
H28   H     H_    0.174456 0.254062 0.129329 0.196175
H29   H     H_    0.058903 0.283483 0.225981 0.248439
O10   O     O_3   0.894903 0.457051 0.775060 -0.581174
C49   C     C_3   0.963600 0.434384 0.863913 0.057012
H30   H     H_    0.017265 0.348755 0.857927 0.129815
H31   H     H_    0.901526 0.430076 0.931607 0.152064
C50   C     C_3   0.054169 0.537766 0.880115 -0.783474
H32   H     H_    0.107367 0.522187 0.950588 0.201531
H33   H     H_    0.118561 0.542819 0.814075 0.246576
H34   H     H_    0.004583 0.624988 0.887963 0.248464
C51   C     C_3   0.868192 0.677663 0.378950 -0.812232
H35   H     H_    0.927477 0.748808 0.344949 0.226802
H36   H     H_    0.815584 0.635165 0.315935 0.254321
H37   H     H_    0.805496 0.725257 0.432776 0.199353
C52   C     C_3   0.132388 0.320761 0.621911 -0.846959
H38   H     H_    0.073926 0.250438 0.657931 0.223111
H39   H     H_    0.194632 0.272166 0.568371 0.207865
H40   H     H_    0.185591 0.364787 0.683820 0.244165

loop_
_geom_bond_atom_site_label_1
_geom_bond_atom_site_label_2
_ccdc_geom_bond_type
C33   H9    S    
C48   H27   S    
C34   H10   S    
C27   C29   S    
C50   H32   S    
C47   C48   S    
C50   H34   S    
C19   C45   S    
C39   C41   A    
Cu1   Cu2   S    
C3    C43   A    
C19   C21   A    
C43   C51   S    
C2    O2    A    
Cu1   O5    S    
C20   C25   A    
C39   H11   S    
C5    C36   S    
C6    C35   S    
C15   C17   A    
C19   C26   A    
C7    H15   S    
Cu2   O3    S    
C33   C35   A    
C51   H35   S    
C7    C17   A    
Cu1   O1    S    
C31   C33   A    
C15   H5    S    
Cu2   O6    S    
C40   C42   A    
C1    C22   S    
C3    C24   S    
C23   O7    A    
C32   H8    S    
C44   C52   S    
C40   H12   S    
C23   O5    A    
C47   H25   S    
Cu2   N1    S    
C4    C6    A    
O10   C49   S    
C46   H23   S    
C4    C23   S    
C4    C44   A    
C11   C26   S    
C38   O10   S    
C49   C50   S    
C8    C18   A    
Cu1   O8    S    
C32   C34   A    
C28   N2    T    
C45   H19   S    
Cu2   O2    S    
C29   C30   T    
C27   N1    T    
C45   H20   S    
O9    C47   S    
C13   C15   A    
C2    C21   S    
C49   H31   S    
C41   H1    S    
C52   H39   S    
C42   H2    S    
C31   H7    S    
C9    C11   A    
C10   C12   A    
C17   H13   S    
C13   H3    S    
C18   H14   S    
C51   H36   S    
C5    C44   A    
C20   C22   A    
C6    C43   A    
C48   H28   S    
C14   C16   A    
C52   H38   S    
C24   O6    A    
C7    C9    A    
C21   C25   A    
C31   C41   A    
C20   C46   S    
C35   C37   A    
Cu1   O4    S    
C9    H17   S    
C8    C10   A    
C10   H18   S    
C16   H6    S    
C12   C14   A    
C3    C5    A    
C46   H24   S    
C50   H33   S    
C12   C25   S    
C36   C38   A    
C37   O9    S    
C37   C39   A    
C38   C40   A    
C11   C13   A    
C24   O8    A    
C14   H4    S    
C28   C30   S    
C49   H30   S    
C1    O1    A    
C52   H40   S    
C34   C36   A    
C45   H21   S    
C1    O3    A    
C46   H22   S    
C51   H37   S    
C16   C18   A    
C22   C26   A    
C48   H29   S    
Cu1   N2    S    
C32   C42   A    
C47   H26   S    
C2    O4    A    
Cu2   O7    S    
C8    H16   S    
