data_mof_unit_61739.cif
_audit_creation_date              2012-10-26T17:54:04-0400
_audit_creation_method            fapswitch 2.2
_symmetry_space_group_name_H-M    P1
_symmetry_Int_Tables_number       1
_space_group_crystal_system       triclinic
_cell_length_a                    23.474642
_cell_length_b                    23.474647
_cell_length_c                    56.082105
_cell_angle_alpha                 90.000333
_cell_angle_beta                  90.000416
_cell_angle_gamma                 89.999965
_cell_volume                      30904.5450189

loop_
_atom_site_label
_atom_site_type_symbol
_atom_type_description
_atom_site_fract_x
_atom_site_fract_y
_atom_site_fract_z
_atom_type_partial_charge
C1    C     C_R   0.999994 0.892963 0.999994 0.556729
C2    C     C_R   0.999782 0.396332 0.775892 -0.141575
C3    C     C_R   0.041082 0.467865 0.913706 -0.052361
C4    C     C_R   0.463987 0.962332 0.086137 -0.054406
C5    C     C_R   0.962334 0.536013 0.086138 -0.054400
C6    C     C_R   0.536011 0.037669 0.086137 -0.054405
C7    C     C_R   0.037672 0.463988 0.086136 -0.054404
C8    C     C_R   0.032137 0.541080 0.413706 -0.052361
C9    C     C_R   0.458918 0.032134 0.413706 -0.052362
C10   C     C_R   0.967865 0.458918 0.413706 -0.052360
C11   C     C_R   0.541081 0.967865 0.413706 -0.052361
C12   C     C_R   0.963997 0.462327 0.586137 -0.054405
C13   C     C_R   0.603699 0.999761 0.775895 -0.141572
C14   C     C_R   0.462343 0.036013 0.586141 -0.054406
C15   C     C_R   0.036013 0.537672 0.586137 -0.054405
C16   C     C_R   0.537684 0.963993 0.586132 -0.054432
C17   C     C_R   0.500004 0.999999 0.926584 -0.005945
C18   C     C_R   1.000000 0.499999 0.926584 -0.005945
C19   C     C_R   0.500000 0.000000 0.073303 0.000154
C20   C     C_R   0.000002 0.500000 0.073303 0.000155
C21   C     C_R   0.000001 0.499999 0.426584 -0.005944
C22   C     C_R   0.499999 1.000000 0.426584 -0.005945
C23   C     C_R   0.000004 0.500000 0.573303 0.000154
C24   C     C_R   0.000226 0.603663 0.775893 -0.141575
C25   C     C_R   0.500006 0.000004 0.573303 0.000152
C26   C     C_R   0.500015 0.999991 0.876128 0.206235
C27   C     C_R   1.000000 0.499998 0.876128 0.206238
C28   C     C_R   0.499999 0.000001 0.123731 0.206794
C29   C     C_R   0.000007 0.499999 0.123731 0.206791
C30   C     C_R   0.000003 0.499998 0.376128 0.206241
C31   C     C_R   0.499999 0.999999 0.376128 0.206239
C32   C     C_R   0.000009 0.499997 0.623731 0.206795
C33   C     C_R   0.500041 0.999998 0.623730 0.206790
C34   C     C_1   0.832007 0.999942 0.999954 -0.022558
C35   C     C_R   0.483687 0.102374 0.223975 -0.141594
C36   C     C_1   0.000058 0.832007 0.999954 -0.022558
C37   C     C_1   0.167993 0.000058 0.999954 -0.022559
C38   C     C_1   0.999941 0.167993 0.999954 -0.022559
C39   C     C_1   0.332007 0.499941 0.499954 -0.022557
C40   C     C_1   0.500058 0.332007 0.499954 -0.022555
C41   C     C_1   0.667993 0.500058 0.499954 -0.022559
C42   C     C_1   0.499942 0.667993 0.499955 -0.022565
C43   C     C_1   0.780757 0.999860 0.999867 -0.044608
C44   C     C_1   0.000140 0.780757 0.999867 -0.044604
C45   C     C_1   0.219243 0.000140 0.999867 -0.044610
C46   C     C_R   0.102382 0.516296 0.223975 -0.141593
C47   C     C_1   0.999860 0.219243 0.999867 -0.044609
C48   C     C_1   0.280757 0.499860 0.499867 -0.044602
C49   C     C_1   0.500140 0.280757 0.499867 -0.044592
C50   C     C_1   0.719243 0.500140 0.499868 -0.044608
C51   C     C_1   0.499861 0.719243 0.499868 -0.044632
C52   C     C_1   0.720794 0.999768 0.999779 -0.058717
C53   C     C_1   0.000232 0.720794 0.999779 -0.058715
C54   C     C_1   0.279206 0.000232 0.999779 -0.058718
C55   C     C_1   0.999768 0.279206 0.999779 -0.058718
C56   C     C_1   0.220794 0.499768 0.499779 -0.058716
C57   C     C_R   0.516311 0.897627 0.223974 -0.141594
C58   C     C_1   0.500232 0.220794 0.499780 -0.058709
C59   C     C_1   0.779206 0.500232 0.499780 -0.058716
C60   C     C_1   0.499769 0.779206 0.499781 -0.058724
C61   C     C_1   0.669552 0.999820 0.999795 -0.035840
C62   C     C_1   0.000179 0.669552 0.999795 -0.035851
C63   C     C_1   0.330448 0.000179 0.999795 -0.035838
C64   C     C_1   0.999820 0.330448 0.999795 -0.035840
C65   C     C_1   0.169552 0.499820 0.499795 -0.035854
C66   C     C_1   0.500179 0.169552 0.499795 -0.035876
C67   C     C_1   0.830448 0.500179 0.499795 -0.035840
C68   C     C_R   0.897630 0.483694 0.223974 -0.141594
C69   C     C_1   0.499822 0.830448 0.499796 -0.035777
C70   C     C_R   0.500001 1.000000 0.953082 0.536140
C71   C     C_R   1.000000 0.500000 0.953082 0.536140
C72   C     C_R   0.500000 0.000000 0.046879 0.542129
C73   C     C_R   0.000000 0.500000 0.046879 0.542117
C74   C     C_R   0.000000 0.500000 0.453082 0.536140
C75   C     C_R   0.500000 1.000000 0.453082 0.536139
C76   C     C_R   0.000001 0.500000 0.546879 0.542123
C77   C     C_R   0.500000 0.000002 0.546879 0.542164
C78   C     C_R   0.608632 0.999967 0.999911 0.538491
C79   C     C_R   0.896339 0.500234 0.275892 -0.141575
C80   C     C_R   0.000033 0.608632 0.999911 0.538478
C81   C     C_R   0.391368 0.000033 0.999911 0.538494
C82   C     C_R   0.999967 0.391368 0.999911 0.538493
C83   C     C_R   0.108632 0.499967 0.499911 0.538483
C84   C     C_R   0.500033 0.108632 0.499911 0.538450
C85   C     C_R   0.891368 0.500033 0.499911 0.538494
C86   C     C_R   0.499967 0.891368 0.499912 0.538568
C87   C     C_R   0.447521 0.997825 0.762586 0.017537
C88   C     C_R   0.002154 0.447486 0.762587 0.017535
C89   C     C_R   0.552545 0.002127 0.762589 0.017536
C90   C     C_R   0.499773 0.896335 0.275892 -0.141575
C91   C     C_R   0.997856 0.552508 0.762588 0.017535
C92   C     C_R   0.493970 0.052208 0.237280 0.017613
C93   C     C_R   0.052215 0.506018 0.237280 0.017614
C94   C     C_R   0.506028 0.947792 0.237279 0.017613
C95   C     C_R   0.947797 0.493972 0.237279 0.017614
C96   C     C_R   0.947494 0.497855 0.262587 0.017536
C97   C     C_R   0.502145 0.947489 0.262587 0.017535
C98   C     C_R   0.052517 0.502136 0.262588 0.017536
C99   C     C_R   0.497852 0.052511 0.262588 0.017535
C100  C     C_R   0.993974 0.552205 0.737280 0.017613
C101  C     C_R   0.103671 0.499757 0.275893 -0.141574
C102  C     C_R   0.552245 0.006007 0.737280 0.017615
C103  C     C_R   0.006038 0.447790 0.737280 0.017614
C104  C     C_R   0.447828 0.993941 0.737278 0.017615
C105  C     C_R   0.500032 0.999978 0.775131 0.034143
C106  C     C_R   0.000004 0.499998 0.775131 0.034146
C107  C     C_R   0.499999 0.000000 0.224736 0.034174
C108  C     C_R   0.000006 0.499995 0.224736 0.034173
C109  C     C_R   0.000005 0.499996 0.275131 0.034145
C110  C     C_R   0.499999 0.000000 0.275131 0.034146
C111  C     C_R   0.000007 0.499997 0.724736 0.034174
C112  C     C_R   0.107037 0.999994 0.999995 0.556729
C113  C     C_R   0.500225 0.103665 0.275893 -0.141575
C114  C     C_R   0.500038 0.999974 0.724736 0.034170
C115  C     C_R   0.570059 0.082692 0.925641 0.050950
C116  C     C_R   0.560915 0.141418 0.922754 -0.087427
C117  C     C_R   0.597022 0.180688 0.933850 -0.109839
C118  C     C_R   0.642685 0.161634 0.947713 -0.098485
C119  C     C_R   0.652426 0.103276 0.950451 -0.090079
C120  C     C_R   0.616335 0.063844 0.939449 -0.050004
C121  C     C_R   0.917307 0.570055 0.925640 0.050951
C122  C     C_R   0.858580 0.560915 0.922752 -0.087428
C123  C     C_R   0.819313 0.597025 0.933848 -0.109838
C124  C     C_R   0.983687 0.602370 0.723975 -0.141594
C125  C     C_R   0.838370 0.642688 0.947710 -0.098483
C126  C     C_R   0.896728 0.652426 0.950448 -0.090082
C127  C     C_R   0.936157 0.616332 0.939447 -0.050005
C128  C     C_R   0.429948 0.917307 0.925639 0.050953
C129  C     C_R   0.439086 0.858579 0.922752 -0.087428
C130  C     C_R   0.402973 0.819314 0.933847 -0.109838
C131  C     C_R   0.357310 0.838373 0.947709 -0.098483
C132  C     C_R   0.347573 0.896731 0.950446 -0.090082
C133  C     C_R   0.383670 0.936159 0.939445 -0.050007
C134  C     C_R   0.082692 0.429943 0.925641 0.050951
C135  C     C_R   0.602413 0.016292 0.723976 -0.141589
C136  C     C_R   0.141419 0.439084 0.922754 -0.087426
C137  C     C_R   0.180686 0.402974 0.933849 -0.109839
C138  C     C_R   0.161629 0.357311 0.947711 -0.098484
C139  C     C_R   0.103271 0.347572 0.950449 -0.090081
C140  C     C_R   0.063842 0.383666 0.939447 -0.050007
C141  C     C_R   0.424138 0.922818 0.074116 0.041672
C142  C     C_R   0.378739 0.943895 0.060395 -0.066385
C143  C     C_R   0.340328 0.906211 0.049683 -0.095574
C144  C     C_R   0.347194 0.847457 0.052449 -0.098111
C145  C     C_R   0.392198 0.826228 0.066124 -0.110854
C146  C     C_R   0.016326 0.397625 0.723975 -0.141594
C147  C     C_R   0.430403 0.863729 0.077049 -0.081914
C148  C     C_R   0.922815 0.575860 0.074119 0.041666
C149  C     C_R   0.943884 0.621246 0.060389 -0.066347
C150  C     C_R   0.906196 0.659656 0.049680 -0.095568
C151  C     C_R   0.847444 0.652807 0.052460 -0.098128
C152  C     C_R   0.826223 0.607817 0.066144 -0.110862
C153  C     C_R   0.863729 0.569611 0.077064 -0.081945
C154  C     C_R   0.575861 0.077183 0.074117 0.041672
C155  C     C_R   0.621260 0.056105 0.060395 -0.066383
C156  C     C_R   0.659672 0.093788 0.049684 -0.095575
C157  C     C_R   0.397664 0.983651 0.723972 -0.141593
C158  C     C_R   0.652808 0.152542 0.052452 -0.098111
C159  C     C_R   0.607804 0.173772 0.066127 -0.110855
C160  C     C_R   0.569599 0.136271 0.077050 -0.081916
C161  C     C_R   0.077185 0.424139 0.074115 0.041673
C162  C     C_R   0.056106 0.378740 0.060394 -0.066382
C163  C     C_R   0.093789 0.340329 0.049682 -0.095575
C164  C     C_R   0.152543 0.347193 0.052449 -0.098110
C165  C     C_R   0.173773 0.392197 0.066124 -0.110855
C166  C     C_R   0.136273 0.430402 0.077048 -0.081915
C167  C     C_R   0.070059 0.582689 0.425641 0.050949
C168  C     C_R   0.396901 0.002246 0.800673 -0.113090
C169  C     C_R   0.060919 0.641417 0.422754 -0.087426
C170  C     C_R   0.097029 0.680684 0.433850 -0.109839
C171  C     C_R   0.142692 0.661627 0.447712 -0.098485
C172  C     C_R   0.152430 0.603269 0.450450 -0.090083
C173  C     C_R   0.116335 0.563839 0.439448 -0.050007
C174  C     C_R   0.417308 0.070056 0.425640 0.050950
C175  C     C_R   0.358581 0.060916 0.422753 -0.087428
C176  C     C_R   0.319313 0.097026 0.433848 -0.109838
C177  C     C_R   0.338371 0.142689 0.447711 -0.098485
C178  C     C_R   0.396729 0.152427 0.450449 -0.090083
C179  C     C_R   0.997734 0.396873 0.800676 -0.113092
C180  C     C_R   0.436158 0.116333 0.439447 -0.050002
C181  C     C_R   0.929942 0.417310 0.425640 0.050950
C182  C     C_R   0.939080 0.358582 0.422753 -0.087427
C183  C     C_R   0.902969 0.319316 0.433848 -0.109840
C184  C     C_R   0.857306 0.338375 0.447710 -0.098484
C185  C     C_R   0.847570 0.396733 0.450448 -0.090083
C186  C     C_R   0.883666 0.436161 0.439447 -0.050008
C187  C     C_R   0.582691 0.929943 0.425640 0.050952
C188  C     C_R   0.641418 0.939083 0.422753 -0.087427
C189  C     C_R   0.680685 0.902973 0.433849 -0.109842
C190  C     C_R   0.603154 0.997717 0.800679 -0.113089
C191  C     C_R   0.661628 0.857310 0.447711 -0.098486
C192  C     C_R   0.603270 0.847572 0.450449 -0.090081
C193  C     C_R   0.563840 0.883666 0.439447 -0.050011
C194  C     C_R   0.924150 0.422811 0.574117 0.041674
C195  C     C_R   0.878748 0.443886 0.560396 -0.066381
C196  C     C_R   0.840343 0.406201 0.549682 -0.095571
C197  C     C_R   0.847217 0.347448 0.552446 -0.098110
C198  C     C_R   0.892223 0.326221 0.566121 -0.110856
C199  C     C_R   0.930422 0.363723 0.577047 -0.081912
C200  C     C_R   0.422802 0.075845 0.574126 0.041651
C201  C     C_R   0.002272 0.603122 0.800676 -0.113093
C202  C     C_R   0.443844 0.121213 0.560378 -0.066291
C203  C     C_R   0.406133 0.159599 0.549669 -0.095538
C204  C     C_R   0.347386 0.152746 0.552467 -0.098148
C205  C     C_R   0.326192 0.107779 0.566170 -0.110873
C206  C     C_R   0.363721 0.069596 0.577090 -0.081982
C207  C     C_R   0.075853 0.577195 0.574116 0.041663
C208  C     C_R   0.121244 0.556130 0.560388 -0.066360
C209  C     C_R   0.159637 0.593823 0.549671 -0.095552
C210  C     C_R   0.152762 0.652575 0.552440 -0.098120
C211  C     C_R   0.107769 0.673791 0.566123 -0.110858
C212  C     C_R   0.481747 0.101521 0.199191 -0.113206
C213  C     C_R   0.069582 0.636281 0.577052 -0.081923
C214  C     C_R   0.577171 0.924135 0.574104 0.041703
C215  C     C_R   0.556055 0.878667 0.560430 -0.066579
C216  C     C_R   0.593715 0.840257 0.549704 -0.095609
C217  C     C_R   0.652483 0.847199 0.552405 -0.098032
C218  C     C_R   0.673749 0.892277 0.566029 -0.110825
C219  C     C_R   0.636272 0.930478 0.576972 -0.081751
C220  C     C_R   0.000006 0.107037 0.999994 0.556729
C221  C     C_R   0.101530 0.518235 0.199192 -0.113205
C222  C     C_R   0.518250 0.898480 0.199191 -0.113206
C223  C     C_R   0.898484 0.481755 0.199191 -0.113206
C224  C     C_R   0.896880 0.502281 0.300675 -0.113092
C225  C     C_R   0.497726 0.896876 0.300675 -0.113093
C226  C     C_R   0.103129 0.497711 0.300677 -0.113093
C227  C     C_R   0.502272 0.103124 0.300676 -0.113093
C228  C     C_R   0.981748 0.601516 0.699191 -0.113206
C229  C     C_R   0.601562 0.018232 0.699193 -0.113200
C230  C     C_R   0.018267 0.398478 0.699191 -0.113207
C231  C     C_R   0.892963 0.000006 0.999994 0.556729
C232  C     C_R   0.398520 0.981713 0.699189 -0.113203
C233  C     C_R   0.448359 0.001416 0.813210 0.024856
C234  C     C_R   0.998567 0.448332 0.813211 0.024854
C235  C     C_R   0.551693 0.998550 0.813213 0.024855
C236  C     C_R   0.001437 0.551664 0.813212 0.024854
C237  C     C_R   0.490560 0.050816 0.186656 0.025721
C238  C     C_R   0.050823 0.509429 0.186656 0.025722
C239  C     C_R   0.509438 0.949185 0.186655 0.025721
C240  C     C_R   0.949191 0.490562 0.186655 0.025722
C241  C     C_R   0.948338 0.501439 0.313211 0.024854
C242  C     C_R   0.499994 0.392963 0.499994 0.556729
C243  C     C_R   0.498562 0.948334 0.313211 0.024854
C244  C     C_R   0.051670 0.498554 0.313212 0.024854
C245  C     C_R   0.501436 0.051666 0.313211 0.024853
C246  C     C_R   0.990565 0.550812 0.686655 0.025722
C247  C     C_R   0.550858 0.009418 0.686656 0.025720
C248  C     C_R   0.009451 0.449183 0.686655 0.025721
C249  C     C_R   0.449227 0.990532 0.686654 0.025726
C250  C     C_R   0.500028 0.999981 0.800503 -0.027610
C251  C     C_R   0.000003 0.499998 0.800503 -0.027608
C252  C     C_R   0.499999 0.000001 0.199364 -0.027481
C253  C     C_R   0.607037 0.499994 0.499995 0.556728
C254  C     C_R   0.000007 0.499995 0.199364 -0.027481
C255  C     C_R   0.000005 0.499996 0.300503 -0.027608
C256  C     C_R   0.499999 1.000000 0.300503 -0.027608
C257  C     C_R   0.000008 0.499997 0.699364 -0.027481
C258  C     C_R   0.500041 0.999974 0.699363 -0.027484
C259  C     C_R   0.449309 0.002576 0.838278 0.396699
C260  C     C_R   0.997410 0.449286 0.838280 0.396702
C261  C     C_R   0.550735 0.997398 0.838281 0.396700
C262  C     C_R   0.002592 0.550710 0.838280 0.396701
C263  C     C_R   0.489561 0.049696 0.161587 0.397732
C264  C     C_R   0.500006 0.607037 0.499995 0.556729
C265  C     C_R   0.049703 0.510429 0.161587 0.397732
C266  C     C_R   0.510436 0.950306 0.161587 0.397732
C267  C     C_R   0.950311 0.489563 0.161587 0.397730
C268  C     C_R   0.949291 0.502595 0.338280 0.396701
C269  C     C_R   0.497406 0.949287 0.338280 0.396701
C270  C     C_R   0.050716 0.497399 0.338280 0.396702
C271  C     C_R   0.502592 0.050712 0.338280 0.396701
C272  C     C_R   0.989567 0.549691 0.661587 0.397732
C273  C     C_R   0.549739 0.010420 0.661587 0.397738
C274  C     C_R   0.010451 0.450303 0.661587 0.397731
C275  C     C_R   0.392963 0.500006 0.499994 0.556729
C276  C     C_R   0.450349 0.989538 0.661586 0.397722
C277  C     C_R   0.530509 0.041400 0.888729 -0.067885
C278  C     C_R   0.958593 0.530495 0.888729 -0.067883
C279  C     C_R   0.469515 0.958586 0.888729 -0.067883
C280  C     C_R   0.041406 0.469501 0.888729 -0.067884
C281  C     C_R   0.464265 0.963017 0.111119 -0.067663
C282  C     C_R   0.963023 0.535734 0.111120 -0.067665
C283  C     C_R   0.535732 0.036985 0.111120 -0.067664
C284  C     C_R   0.036989 0.464266 0.111119 -0.067665
C285  C     C_R   0.030501 0.541403 0.388730 -0.067883
C286  C     C_R   0.396364 0.000196 0.775889 -0.141574
C287  C     C_R   0.458593 0.030497 0.388729 -0.067883
C288  C     C_R   0.969503 0.458593 0.388729 -0.067882
C289  C     C_R   0.541405 0.969502 0.388729 -0.067884
C290  C     C_R   0.964278 0.463010 0.611120 -0.067665
C291  C     C_R   0.463046 0.035732 0.611124 -0.067669
C292  C     C_R   0.035737 0.536985 0.611120 -0.067666
C293  C     C_R   0.537020 0.964270 0.611114 -0.067658
C294  C     C_R   0.532140 0.041079 0.913706 -0.052364
C295  C     C_R   0.958918 0.532133 0.913706 -0.052361
C296  C     C_R   0.467872 0.958915 0.913705 -0.052358
Cu1   Cu    Cu3+1 0.000000 0.000000 0.023160 0.949202
Cu2   Cu    Cu3+1 0.442500 0.000000 0.500000 0.960833
Cu3   Cu    Cu3+1 0.000000 0.442500 0.500000 0.960822
Cu4   Cu    Cu3+1 0.557500 0.000000 0.500000 0.960802
Cu5   Cu    Cu3+1 0.000000 0.000000 0.976840 0.956388
Cu6   Cu    Cu3+1 0.500000 0.500000 0.523160 0.949202
Cu7   Cu    Cu3+1 0.500000 0.500000 0.476840 0.956387
Cu8   Cu    Cu3+1 0.500000 0.057500 0.000000 0.960823
Cu9   Cu    Cu3+1 0.942500 0.500000 0.000000 0.960827
Cu10  Cu    Cu3+1 0.500000 0.942500 0.000000 0.960823
Cu11  Cu    Cu3+1 0.057500 0.500000 0.000000 0.960822
Cu12  Cu    Cu3+1 0.000000 0.557500 0.500000 0.960822
H1    H     H_    0.356517 0.004180 0.809989 0.165573
H2    H     H_    0.495791 0.856493 0.309993 0.165574
H3    H     H_    0.910354 0.274101 0.431680 0.109922
H4    H     H_    0.829366 0.307926 0.456267 0.110546
H5    H     H_    0.811988 0.411389 0.461067 0.114052
H6    H     H_    0.875559 0.481284 0.441638 0.104004
H7    H     H_    0.656699 0.974341 0.412063 0.108531
H8    H     H_    0.725899 0.910358 0.431681 0.109920
H9    H     H_    0.692077 0.829371 0.456269 0.110544
H10   H     H_    0.588615 0.811990 0.461068 0.114056
H11   H     H_    0.518718 0.875558 0.441639 0.103999
H12   H     H_    0.872867 0.489347 0.558192 0.104961
H13   H     H_    0.143511 0.495772 0.309995 0.165574
H14   H     H_    0.805062 0.422471 0.539326 0.115014
H15   H     H_    0.817513 0.318388 0.544086 0.111336
H16   H     H_    0.897380 0.280712 0.568333 0.112044
H17   H     H_    0.964995 0.346795 0.587698 0.127877
H18   H     H_    0.489299 0.127080 0.558149 0.104934
H19   H     H_    0.422377 0.194851 0.539290 0.115013
H20   H     H_    0.318306 0.182436 0.544111 0.111342
H21   H     H_    0.280688 0.102638 0.568408 0.112070
H22   H     H_    0.346816 0.035051 0.587762 0.127922
H23   H     H_    0.127126 0.510670 0.558180 0.104955
H24   H     H_    0.504207 0.143506 0.309994 0.165574
H25   H     H_    0.194908 0.577562 0.539309 0.115014
H26   H     H_    0.182454 0.681642 0.544077 0.111332
H27   H     H_    0.102611 0.719300 0.568339 0.112049
H28   H     H_    0.035018 0.653202 0.587709 0.127890
H29   H     H_    0.510584 0.872741 0.558273 0.104992
H30   H     H_    0.577416 0.804921 0.539387 0.115013
H31   H     H_    0.681524 0.817493 0.544033 0.111321
H32   H     H_    0.719270 0.897491 0.568190 0.111985
H33   H     H_    0.653230 0.965110 0.587583 0.127807
H34   H     H_    0.973566 0.641108 0.689874 0.164473
H35   H     H_    0.641156 0.026414 0.689876 0.164473
H36   H     H_    0.026450 0.358886 0.689874 0.164471
H37   H     H_    0.358928 0.973530 0.689871 0.164469
H38   H     H_    0.554284 0.073346 0.878945 0.144598
H39   H     H_    0.926647 0.554269 0.878944 0.144594
H40   H     H_    0.445744 0.926638 0.878943 0.144595
H41   H     H_    0.995799 0.356491 0.809993 0.165574
H42   H     H_    0.073353 0.445727 0.878944 0.144594
H43   H     H_    0.435851 0.935067 0.120881 0.144693
H44   H     H_    0.935074 0.564149 0.120883 0.144691
H45   H     H_    0.564147 0.064935 0.120882 0.144693
H46   H     H_    0.064939 0.435850 0.120880 0.144699
H47   H     H_    0.054277 0.573348 0.378944 0.144590
H48   H     H_    0.426646 0.054271 0.378944 0.144593
H49   H     H_    0.945728 0.426648 0.378944 0.144590
H50   H     H_    0.573352 0.945728 0.378944 0.144593
H51   H     H_    0.935868 0.435056 0.620881 0.144694
H52   H     H_    0.643535 0.995787 0.809998 0.165573
H53   H     H_    0.435098 0.064140 0.620889 0.144677
H54   H     H_    0.064149 0.564939 0.620881 0.144691
H55   H     H_    0.564980 0.935854 0.620871 0.144728
H56   H     H_    0.354970 0.002119 0.767632 0.111416
H57   H     H_    0.997857 0.354938 0.767636 0.111418
H58   H     H_    0.645095 0.997837 0.767640 0.111416
H59   H     H_    0.002151 0.645057 0.767637 0.111418
H60   H     H_    0.475359 0.142967 0.232231 0.111221
H61   H     H_    0.142977 0.524618 0.232232 0.111221
H62   H     H_    0.524639 0.857033 0.232230 0.111221
H63   H     H_    0.004206 0.643505 0.809994 0.165575
H64   H     H_    0.857035 0.475371 0.232230 0.111221
H65   H     H_    0.854945 0.502166 0.267635 0.111418
H66   H     H_    0.497846 0.854941 0.267636 0.111418
H67   H     H_    0.145065 0.497826 0.267637 0.111418
H68   H     H_    0.502152 0.145060 0.267637 0.111418
H69   H     H_    0.975356 0.642963 0.732231 0.111222
H70   H     H_    0.643006 0.024622 0.732233 0.111220
H71   H     H_    0.024656 0.357032 0.732231 0.111222
H72   H     H_    0.357070 0.975319 0.732227 0.111218
H73   H     H_    0.525657 0.156697 0.912062 0.108533
H74   H     H_    0.473568 0.141114 0.189874 0.164472
H75   H     H_    0.589634 0.225902 0.931682 0.109923
H76   H     H_    0.670622 0.192085 0.956271 0.110548
H77   H     H_    0.688008 0.088624 0.961071 0.114053
H78   H     H_    0.624445 0.018723 0.941641 0.104004
H79   H     H_    0.843299 0.525656 0.912061 0.108532
H80   H     H_    0.774099 0.589639 0.931680 0.109924
H81   H     H_    0.807920 0.670627 0.956267 0.110549
H82   H     H_    0.911382 0.688008 0.961068 0.114053
H83   H     H_    0.981280 0.624440 0.941639 0.104005
H84   H     H_    0.474345 0.843296 0.912062 0.108529
H85   H     H_    0.141124 0.526411 0.189875 0.164472
H86   H     H_    0.410358 0.774099 0.931680 0.109923
H87   H     H_    0.329369 0.807925 0.956266 0.110548
H88   H     H_    0.311991 0.911388 0.961065 0.114053
H89   H     H_    0.375563 0.981282 0.941636 0.104003
H90   H     H_    0.156700 0.474342 0.912063 0.108531
H91   H     H_    0.225900 0.410361 0.931682 0.109923
H92   H     H_    0.192079 0.329372 0.956269 0.110548
H93   H     H_    0.088617 0.311990 0.961068 0.114053
H94   H     H_    0.018719 0.375558 0.941639 0.104004
H95   H     H_    0.372863 0.989357 0.058189 0.104962
H96   H     H_    0.526430 0.858887 0.189873 0.164472
H97   H     H_    0.305048 0.922483 0.039327 0.115017
H98   H     H_    0.317486 0.818398 0.044091 0.111339
H99   H     H_    0.397349 0.780718 0.068338 0.112046
H100  H     H_    0.464974 0.846799 0.087700 0.127881
H101  H     H_    0.989344 0.627111 0.058174 0.104957
H102  H     H_    0.922461 0.694926 0.039317 0.115018
H103  H     H_    0.818381 0.682516 0.044105 0.111343
H104  H     H_    0.780715 0.602679 0.068369 0.112059
H105  H     H_    0.846805 0.535052 0.087723 0.127898
H106  H     H_    0.627134 0.010643 0.058190 0.104962
H107  H     H_    0.858890 0.473580 0.189873 0.164471
H108  H     H_    0.694952 0.077516 0.039329 0.115016
H109  H     H_    0.682517 0.181601 0.044094 0.111339
H110  H     H_    0.602654 0.219282 0.068341 0.112047
H111  H     H_    0.535028 0.153202 0.087702 0.127881
H112  H     H_    0.010644 0.372865 0.058188 0.104963
H113  H     H_    0.077517 0.305049 0.039326 0.115017
H114  H     H_    0.181602 0.317485 0.044090 0.111338
H115  H     H_    0.219283 0.397347 0.068338 0.112047
H116  H     H_    0.153204 0.464973 0.087699 0.127882
H117  H     H_    0.025660 0.656698 0.412063 0.108532
H118  H     H_    0.856498 0.504221 0.309993 0.165574
H119  H     H_    0.089643 0.725898 0.431682 0.109922
H120  H     H_    0.170631 0.692076 0.456270 0.110545
H121  H     H_    0.188012 0.588614 0.461069 0.114051
H122  H     H_    0.124443 0.518717 0.441639 0.104005
H123  H     H_    0.343299 0.025658 0.412062 0.108531
H124  H     H_    0.274099 0.089640 0.431681 0.109923
H125  H     H_    0.307922 0.170629 0.456268 0.110548
H126  H     H_    0.411384 0.188009 0.461068 0.114050
H127  H     H_    0.481280 0.124441 0.441639 0.104007
H128  H     H_    0.974338 0.343300 0.412062 0.108532
N1    N     N_R   0.500020 0.999988 0.850377 -0.392759
N2    N     N_R   0.000001 0.499998 0.850377 -0.392758
N3    N     N_R   0.499999 0.000001 0.149485 -0.391253
N4    N     N_R   0.000007 0.499997 0.149486 -0.391252
N5    N     N_R   0.000003 0.499997 0.350377 -0.392760
N6    N     N_R   0.499999 0.999999 0.350377 -0.392757
N7    N     N_R   0.000009 0.499997 0.649486 -0.391253
N8    N     N_R   0.500043 0.999984 0.649485 -0.391256
O1    O     O_R   0.000610 0.920310 0.019440 -0.495086
O2    O     O_R   0.579690 0.500610 0.519440 -0.495087
O3    O     O_R   0.499390 0.579690 0.519440 -0.495092
O4    O     O_R   0.420310 0.499390 0.519440 -0.495085
O5    O     O_R   0.500610 0.579690 0.480560 -0.493517
O6    O     O_R   0.579690 0.499390 0.480560 -0.493519
O7    O     O_R   0.499390 0.420310 0.480560 -0.493520
O8    O     O_R   0.420310 0.500610 0.480560 -0.493520
O9    O     O_R   0.500970 0.048820 0.964370 -0.502923
O10   O     O_R   0.951180 0.500970 0.964370 -0.502922
O11   O     O_R   0.499030 0.951180 0.964370 -0.502923
O12   O     O_R   0.079690 0.000610 0.019440 -0.495087
O13   O     O_R   0.048820 0.499030 0.964370 -0.502923
O14   O     O_R   0.500970 0.951180 0.035630 -0.501963
O15   O     O_R   0.951180 0.499030 0.035630 -0.501960
O16   O     O_R   0.499030 0.048820 0.035630 -0.501962
O17   O     O_R   0.048820 0.500970 0.035630 -0.501964
O18   O     O_R   0.000970 0.548820 0.464370 -0.502921
O19   O     O_R   0.451180 0.000970 0.464370 -0.502921
O20   O     O_R   0.999030 0.451180 0.464370 -0.502922
O21   O     O_R   0.548820 0.999030 0.464370 -0.502926
O22   O     O_R   0.000970 0.451180 0.535630 -0.501961
O23   O     O_R   0.999390 0.079690 0.019440 -0.495086
O24   O     O_R   0.451180 0.999030 0.535630 -0.501949
O25   O     O_R   0.999030 0.548820 0.535630 -0.501958
O26   O     O_R   0.548820 0.000970 0.535630 -0.501979
O27   O     O_R   0.582140 0.048820 0.999240 -0.501652
O28   O     O_R   0.951180 0.582140 0.999240 -0.501658
O29   O     O_R   0.417860 0.951180 0.999240 -0.501650
O30   O     O_R   0.048820 0.417860 0.999240 -0.501650
O31   O     O_R   0.582140 0.951180 0.000760 -0.505440
O32   O     O_R   0.951180 0.417860 0.000760 -0.505437
O33   O     O_R   0.417860 0.048820 0.000760 -0.505439
O34   O     O_R   0.920310 0.999390 0.019440 -0.495087
O35   O     O_R   0.048820 0.582140 0.000760 -0.505437
O36   O     O_R   0.082140 0.548820 0.499240 -0.501658
O37   O     O_R   0.451180 0.082140 0.499240 -0.501676
O38   O     O_R   0.917860 0.451180 0.499240 -0.501651
O39   O     O_R   0.548820 0.917860 0.499240 -0.501616
O40   O     O_R   0.082140 0.451180 0.500760 -0.505436
O41   O     O_R   0.451180 0.917860 0.500760 -0.505444
O42   O     O_R   0.917860 0.548820 0.500760 -0.505437
O43   O     O_R   0.548820 0.082140 0.500760 -0.505442
O44   O     O_2   0.399873 0.006819 0.850436 -0.507010
O45   O     O_R   0.000610 0.079690 0.980560 -0.493519
O46   O     O_2   0.993166 0.399853 0.850439 -0.507010
O47   O     O_2   0.600167 0.993160 0.850442 -0.507008
O48   O     O_2   0.006835 0.600143 0.850439 -0.507010
O49   O     O_2   0.477676 0.097874 0.149433 -0.513091
O50   O     O_2   0.097883 0.522310 0.149434 -0.513092
O51   O     O_2   0.522322 0.902127 0.149432 -0.513092
O52   O     O_2   0.902132 0.477682 0.149432 -0.513098
O53   O     O_2   0.899859 0.506844 0.350439 -0.507008
O54   O     O_2   0.493162 0.899855 0.350439 -0.507009
O55   O     O_2   0.100148 0.493150 0.350440 -0.507007
O56   O     O_R   0.079690 0.999390 0.980560 -0.493519
O57   O     O_2   0.506836 0.100144 0.350440 -0.507009
O58   O     O_2   0.977677 0.597868 0.649433 -0.513093
O59   O     O_2   0.597918 0.022309 0.649434 -0.513061
O60   O     O_2   0.022342 0.402126 0.649433 -0.513091
O61   O     O_2   0.402171 0.977650 0.649431 -0.513110
O62   O     O_R   0.999390 0.920310 0.980560 -0.493519
O63   O     O_R   0.920310 0.000610 0.980560 -0.493519
O64   O     O_R   0.500610 0.420310 0.519440 -0.495083

loop_
_geom_bond_atom_site_label_1
_geom_bond_atom_site_label_2
_ccdc_geom_bond_type
C18   C295  A    
C126  C127  A    
Cu7   O6    S    
C240  C267  A    
C104  C157  A    
C81   O29   A    
C79   C224  A    
C233  C259  A    
C224  H118  S    
C234  C260  A    
C117  H75   S    
C12   C23   A    
C253  O2    A    
C238  C254  A    
C244  C270  A    
C50   C59   S    
C230  H36   S    
C245  C271  A    
Cu4   O43   S    
Cu5   O45   S    
C246  C272  A    
C116  H73   S    
C279  C296  A    
C54   C63   T    
C273  O59   S    
C143  C144  A    
C79   H65   S    
C15   C292  A    
C18   C71   S    
C71   O10   A    
C72   O14   A    
C168  H1    S    
C73   O17   A    
C182  C183  A    
C75   O21   A    
C46   H61   S    
C124  C228  A    
C44   C53   S    
C85   O42   A    
C271  O57   S    
C110  C256  A    
C205  H21   S    
C211  H27   S    
C91   C100  A    
C132  H88   S    
C133  H89   S    
C212  C237  A    
Cu3   O38   S    
C219  H33   S    
C5    C148  S    
C216  H30   S    
C187  C193  A    
C115  C294  S    
C266  N3    A    
Cu6   O2    S    
C271  N6    A    
C233  C250  A    
Cu9   O10   S    
C10   C21   A    
C24   C201  A    
C67   C85   S    
C68   C95   A    
C202  C203  A    
Cu9   O32   S    
C191  C192  A    
C157  H72   S    
C193  H11   S    
C198  H16   S    
C204  H20   S    
C285  H47   S    
C144  C145  A    
C94   C97   A    
C99   C110  A    
C100  C124  A    
C215  C216  A    
C70   O11   A    
C102  C114  A    
C29   N4    S    
C226  C244  A    
C175  C176  A    
Cu9   O28   S    
C143  H97   S    
C173  H122  S    
C216  C217  A    
C259  N1    A    
Cu5   O56   S    
Cu6   O64   S    
C154  C155  A    
C253  O6    A    
C120  H78   S    
C90   H66   S    
C262  N2    A    
C190  H52   S    
C212  H74   S    
C158  C159  A    
C36   C44   T    
C148  C153  A    
C37   C45   T    
C284  H46   S    
C16   C25   A    
C128  C296  S    
C84   O43   A    
C136  H90   S    
C92   C99   A    
C175  H123  S    
C202  H18   S    
C196  C197  A    
C176  H124  S    
C272  N7    A    
C139  C140  A    
C134  C140  A    
C96   C109  A    
C240  C254  A    
Cu8   O9    S    
C72   O16   A    
C156  C158  A    
C130  C131  A    
C79   C96   A    
Cu12  O42   S    
C24   H59   S    
C118  H76   S    
C109  C255  A    
C20   C73   S    
C231  O34   A    
C232  H37   S    
C95   C108  A    
C141  C147  A    
C195  C196  A    
Cu1   O23   S    
C274  O60   S    
C75   O19   A    
C100  C111  A    
C200  C202  A    
Cu3   Cu12  S    
C261  O47   S    
C155  C156  A    
C1    O62   A    
C190  C235  A    
Cu11  O13   S    
C168  C233  A    
C186  H6    S    
C95   C96   A    
C122  H79   S    
C34   C231  S    
C249  C258  A    
C35   C212  A    
C128  C129  A    
C3    C280  A    
C159  H110  S    
C167  C169  A    
C5    C20   A    
C6    C19   A    
C7    C161  S    
C228  H34   S    
C107  C252  A    
Cu12  O18   S    
C83   O36   A    
C62   C80   S    
C105  C250  A    
C188  H7    S    
C123  H80   S    
C224  C241  A    
C113  C227  A    
C208  H23   S    
C228  C246  A    
C170  C171  A    
C278  C295  A    
C264  O3    A    
C12   C290  A    
C40   C49   T    
C41   C253  S    
C222  C239  A    
C210  H26   S    
C184  C185  A    
C125  H81   S    
C189  C191  A    
Cu3   O22   S    
C102  C135  A    
C139  H93   S    
C59   C67   T    
C263  O49   S    
C29   C282  A    
Cu9   Cu11  S    
C30   C285  A    
C278  H39   S    
C124  H69   S    
C247  C273  A    
C81   O33   A    
C32   N7    S    
C275  O4    A    
C164  H114  S    
C147  H100  S    
C27   N2    S    
Cu1   O12   S    
C142  H95   S    
C4    C281  A    
C277  H38   S    
C153  H105  S    
C94   C107  A    
C180  H127  S    
C9    C287  A    
C5    C282  A    
C10   C288  A    
C82   O32   A    
C201  C236  A    
C85   O38   A    
C217  C218  A    
C13   C190  A    
C239  C266  A    
C101  H67   S    
C171  H120  S    
C160  H111  S    
C280  H42   S    
Cu5   O62   S    
C73   O15   A    
C87   C105  A    
C11   C289  A    
C209  C210  A    
C74   O20   A    
C287  H48   S    
C16   C214  S    
C168  C286  A    
C163  H113  S    
C28   N3    S    
C7    C20   A    
C57   C94   A    
C121  C295  S    
C221  H85   S    
C174  C180  A    
C129  C130  A    
Cu2   O37   S    
C39   C275  S    
C149  H101  S    
C220  O23   A    
C183  H3    S    
C108  C254  A    
C239  C252  A    
C288  H49   S    
C260  O46   S    
C76   O25   A    
Cu7   O5    S    
C31   C287  A    
C34   C43   T    
C136  C137  A    
C259  O44   S    
C181  C186  A    
C31   C289  A    
C27   C280  A    
C272  O58   S    
C263  N3    A    
C3    C134  S    
C137  H91   S    
C246  C257  A    
C117  C118  A    
C155  H106  S    
C60   C69   T    
C179  H41   S    
C29   C284  A    
C268  N5    A    
Cu12  O25   S    
C178  H126  S    
C77   O26   A    
C189  H8    S    
C197  C198  A    
C229  C247  A    
C152  C153  A    
C14   C291  A    
C2    C179  A    
C89   C105  A    
C265  O50   S    
C98   C109  A    
Cu1   Cu5   S    
C150  C151  A    
C51   C60   S    
C235  C250  A    
C15   C207  S    
C1    C36   S    
C218  H32   S    
C236  C262  A    
C13   H58   S    
C35   H60   S    
C78   O31   A    
C237  C263  A    
C129  H84   S    
C6    C283  A    
C82   O30   A    
Cu6   O3    S    
C203  C204  A    
C161  C162  A    
C230  C248  A    
C225  H2    S    
C217  H31   S    
C181  C182  A    
C172  C173  A    
C145  H99   S    
C68   H64   S    
Cu4   O26   S    
C47   C55   S    
C164  C165  A    
C121  C127  A    
C93   C108  A    
C123  C125  A    
C130  H86   S    
C103  C111  A    
C74   O18   A    
C76   O22   A    
C71   O13   A    
C262  O48   S    
C86   O41   A    
C277  C294  A    
C206  H22   S    
Cu11  O35   S    
C208  C209  A    
C144  H98   S    
C151  C152  A    
C237  C252  A    
C57   H62   S    
C241  C255  A    
C23   C76   S    
C90   C97   A    
Cu1   O34   S    
C77   O24   A    
C167  C173  A    
C286  H56   S    
C35   C92   A    
C194  C195  A    
Cu8   O27   S    
C235  C261  A    
C30   C288  A    
C215  H29   S    
Cu2   Cu4   S    
C179  C234  A    
C31   N6    S    
C26   C279  A    
C145  C147  A    
C27   C278  A    
C57   C222  A    
Cu10  O14   S    
Cu11  O30   S    
C28   C281  A    
C292  H54   S    
C289  H50   S    
C126  H82   S    
C42   C264  S    
C150  H102  S    
Cu6   O4    S    
C4    C141  S    
C270  N5    A    
C195  H12   S    
C205  C206  A    
C14   C200  S    
C243  C256  A    
C207  C208  A    
C213  H28   S    
C101  C226  A    
C106  C251  A    
C234  C251  A    
C26   N1    S    
C2    H57   S    
C248  C274  A    
C8    C167  S    
C227  C245  A    
C159  C160  A    
C146  H71   S    
C231  O63   A    
C249  C276  A    
C264  O5    A    
C80   O28   A    
C121  C122  A    
C6    C154  S    
C275  O8    A    
C8    C285  A    
Cu12  O36   S    
C125  C126  A    
C25   C77   S    
C131  C132  A    
C41   C50   T    
C247  C258  A    
C162  C163  A    
C33   C291  A    
Cu7   O7    S    
C283  H45   S    
Cu10  O29   S    
Cu3   O20   S    
C152  H104  S    
C99   C113  A    
C178  C180  A    
C119  C120  A    
C203  H19   S    
C225  C243  A    
C98   C101  A    
Cu8   O16   S    
C221  C238  A    
C214  C219  A    
C187  C188  A    
C165  H115  S    
C265  N4    A    
C149  C150  A    
C166  H116  S    
C86   O39   A    
C185  C186  A    
C223  H107  S    
C84   O37   A    
C162  H112  S    
C14   C25   A    
C43   C52   S    
Cu4   O39   S    
C138  C139  A    
C87   C104  A    
Cu2   O41   S    
C156  H108  S    
C177  C178  A    
C135  C229  A    
C10   C181  S    
Cu2   O19   S    
C142  C143  A    
C196  H14   S    
C128  C133  A    
C111  C257  A    
C26   C277  A    
C70   O9    A    
C7    C284  A    
C115  C116  A    
C39   C48   T    
C32   C290  A    
C28   C283  A    
C171  C172  A    
Cu9   O15   S    
C165  C166  A    
C89   C102  A    
C113  H68   S    
C169  C170  A    
Cu10  O31   S    
C90   C225  A    
C163  C164  A    
C201  H63   S    
C87   C286  A    
C183  C184  A    
C276  O61   S    
Cu8   O33   S    
C172  H121  S    
C46   C221  A    
C63   C81   S    
C11   C187  S    
C229  H35   S    
C293  H55   S    
C177  H125  S    
C223  C240  A    
C222  H96   S    
C9    C22   A    
C65   C83   S    
C276  N8    A    
C242  O7    A    
C273  N8    A    
C56   C65   T    
C274  N7    A    
C207  C213  A    
C116  C117  A    
C3    C18   A    
Cu4   O21   S    
C118  C119  A    
C37   C112  S    
C174  C175  A    
C4    C19   A    
C169  H117  S    
C58   C66   T    
C269  O54   S    
C151  H103  S    
C244  C255  A    
C78   O27   A    
C192  H10   S    
C2    C88   A    
C198  C199  A    
C157  C232  A    
C115  C120  A    
C161  C166  A    
C42   C51   T    
C242  O64   A    
C15   C23   A    
C266  O51   S    
C138  H92   S    
C80   O35   A    
C91   C106  A    
C19   C72   S    
C22   C75   S    
C261  N1    A    
C119  H77   S    
C199  H17   S    
C33   N8    S    
C17   C294  A    
C282  H44   S    
C245  C256  A    
C131  H87   S    
C38   C220  S    
Cu7   O8    S    
C112  O56   A    
C148  C149  A    
C214  C215  A    
C132  C133  A    
C134  C136  A    
C267  O52   S    
C191  H9    S    
C21   C74   S    
C112  O12   A    
C49   C58   S    
C270  O55   S    
C188  C189  A    
C1    O1    A    
C243  C269  A    
C154  C160  A    
C291  H53   S    
C227  H24   S    
C88   C106  A    
C53   C62   T    
C92   C107  A    
C279  H40   S    
C194  C199  A    
C61   C78   S    
C55   C64   T    
C8    C21   A    
C241  C268  A    
C9    C174  S    
C204  C205  A    
C114  C258  A    
C64   C82   S    
C38   C47   T    
C104  C114  A    
C32   C292  A    
C176  C177  A    
C211  C213  A    
C127  H83   S    
C45   C54   S    
C210  C211  A    
C68   C223  A    
C170  H119  S    
C236  C251  A    
Cu1   O1    S    
C24   C91   A    
C197  H15   S    
C88   C103  A    
Cu2   O24   S    
Cu3   O40   S    
C209  H25   S    
C146  C230  A    
C48   C56   S    
Cu6   Cu7   S    
C200  C206  A    
C269  N6    A    
C158  H109  S    
C13   C89   A    
C12   C194  S    
C238  C265  A    
C267  N4    A    
C182  H128  S    
C52   C61   T    
Cu10  O11   S    
Cu11  O17   S    
C281  H43   S    
C232  C249  A    
C137  C138  A    
C11   C22   A    
C185  H5    S    
C290  H51   S    
C16   C293  A    
C192  C193  A    
C141  C142  A    
Cu5   O63   S    
C97   C110  A    
C218  C219  A    
C46   C93   A    
Cu8   Cu10  S    
C83   O40   A    
C33   C293  A    
C135  H70   S    
C66   C84   S    
C248  C257  A    
C30   N5    S    
C220  O45   A    
C17   C70   S    
C103  C146  A    
C268  O53   S    
C140  H94   S    
C184  H4    S    
C260  N2    A    
C122  C123  A    
C93   C98   A    
C40   C242  S    
C69   C86   S    
C226  H13   S    
C17   C296  A    
