data_mof_unit_18207.cif
_audit_creation_date              2012-10-26T20:18:20-0400
_audit_creation_method            fapswitch 2.2
_symmetry_space_group_name_H-M    P1
_symmetry_Int_Tables_number       1
_space_group_crystal_system       triclinic
_cell_length_a                    23.501756
_cell_length_b                    8.676206
_cell_length_c                    7.433892
_cell_angle_alpha                 103.011205
_cell_angle_beta                  94.19722
_cell_angle_gamma                 92.404238
_cell_volume                      1470.27271322

loop_
_atom_site_label
_atom_site_type_symbol
_atom_type_description
_atom_site_fract_x
_atom_site_fract_y
_atom_site_fract_z
_atom_type_partial_charge
C1    C     C_R   0.498275 0.199623 0.453164 0.554605
C2    C     C_R   0.696701 0.487791 0.324697 -0.141425
C3    C     C_R   0.234089 0.477792 0.344316 -0.052521
C4    C     C_R   0.756021 0.490050 0.322115 -0.050862
C5    C     C_R   0.209302 0.492667 0.512334 0.249101
C6    C     C_R   0.790697 0.507334 0.487666 0.249100
C7    C     C_2   0.497451 0.031703 0.426760 -0.148156
C8    C     C_2   0.502548 0.968297 0.573240 -0.148156
C9    C     C_R   0.390956 0.499320 0.502354 0.553074
C10   C     C_R   0.609044 0.500680 0.497646 0.553074
C11   C     C_R   0.883780 0.646139 0.554902 0.398967
C12   C     C_R   0.501725 0.800377 0.546836 0.554605
C13   C     C_R   0.116220 0.353863 0.445097 0.398967
C14   C     C_R   0.875896 0.368115 0.420918 0.396795
C15   C     C_R   0.124104 0.631886 0.579083 0.396795
C16   C     C_R   0.935372 0.363013 0.425177 0.012894
C17   C     C_R   0.064628 0.636989 0.574823 0.012894
C18   C     C_R   0.969915 0.503064 0.497153 -0.043069
C19   C     C_R   0.030085 0.496938 0.502847 -0.043069
C20   C     C_R   0.944306 0.648621 0.563213 0.039663
C21   C     C_R   0.055694 0.351380 0.436787 0.039663
C22   C     C_R   0.960448 0.219788 0.360142 -0.116347
C23   C     C_R   0.243979 0.509945 0.677883 -0.050862
C24   C     C_R   0.039552 0.780214 0.639858 -0.116347
C25   C     C_R   0.019799 0.210980 0.364983 -0.025434
C26   C     C_R   0.980201 0.789022 0.635017 -0.025434
C27   C     C_3   0.042205 0.049878 0.292058 -0.346664
C28   C     C_3   0.957795 0.950124 0.707943 -0.346664
C29   C     C_R   0.765911 0.522217 0.655685 -0.052521
C30   C     C_R   0.303299 0.512204 0.675302 -0.141425
C31   C     C_R   0.706745 0.519771 0.658683 -0.136811
C32   C     C_R   0.328447 0.497528 0.506805 0.006070
C33   C     C_R   0.671553 0.502473 0.493195 0.006070
C34   C     C_R   0.293255 0.480238 0.341318 -0.136811
Cu1   Cu    Cu3+1 0.506340 0.517380 0.684380 0.963926
Cu2   Cu    Cu3+1 0.493660 0.482620 0.315620 0.963926
H1    H     H_    0.933425 0.112768 0.304889 0.165803
H2    H     H_    0.775088 0.478462 0.191794 0.125348
H3    H     H_    0.492653 0.959939 0.285661 0.136053
H4    H     H_    0.507347 0.040061 0.714339 0.136053
H5    H     H_    0.454900 0.379205 0.948650 0.239260
H6    H     H_    0.545099 0.620795 0.051350 0.239260
H7    H     H_    0.007249 0.956018 0.244546 0.108429
H8    H     H_    0.066975 0.052305 0.171058 0.183258
H9    H     H_    0.069090 0.014314 0.403176 0.189951
H10   H     H_    0.992751 0.043984 0.755456 0.108429
H11   H     H_    0.930910 0.985688 0.596824 0.189951
H12   H     H_    0.066575 0.887234 0.695111 0.165803
H13   H     H_    0.933025 0.947696 0.828942 0.183257
H14   H     H_    0.224912 0.521528 0.808204 0.125346
H15   H     H_    0.792610 0.534906 0.783855 0.126611
H16   H     H_    0.329354 0.525443 0.804808 0.129998
H17   H     H_    0.688659 0.531310 0.790623 0.130600
H18   H     H_    0.311341 0.468703 0.209380 0.130600
H19   H     H_    0.670646 0.474547 0.195189 0.129998
H20   H     H_    0.207391 0.465109 0.216148 0.126610
N1    N     N_R   0.851606 0.507579 0.485765 -0.398191
N2    N     N_R   0.148394 0.492423 0.514235 -0.398191
N3    N     N_2   0.484110 0.456420 0.038520 -0.258046
N4    N     N_2   0.515890 0.543580 0.961480 -0.258047
O1    O     O_R   0.504120 0.286130 0.619770 -0.504279
O2    O     O_2   0.143301 0.220350 0.385364 -0.497306
O3    O     O_2   0.842360 0.234159 0.354500 -0.487168
O4    O     O_2   0.157640 0.765842 0.645502 -0.487167
O5    O     O_R   0.495880 0.713870 0.380230 -0.504279
O6    O     O_R   0.493410 0.256770 0.308360 -0.494521
O7    O     O_R   0.506590 0.743230 0.691640 -0.494521
O8    O     O_R   0.423230 0.514630 0.655730 -0.507113
O9    O     O_R   0.576770 0.485370 0.344270 -0.507113
O10   O     O_R   0.412530 0.485280 0.344320 -0.502492
O11   O     O_R   0.587470 0.514720 0.655680 -0.502492
O12   O     O_2   0.856699 0.779652 0.614634 -0.497307

loop_
_geom_bond_atom_site_label_1
_geom_bond_atom_site_label_2
_ccdc_geom_bond_type
C11   O12   S    
C2    C4    A    
C15   O4    S    
C31   C33   A    
C28   H11   S    
C23   C30   A    
C15   N2    A    
C25   C27   S    
C8    H4    S    
C3    H20   S    
C12   O5    A    
C26   C28   S    
Cu1   Cu2   S    
C5    C23   A    
Cu1   O7    S    
C8    C12   S    
Cu2   N3    S    
C16   C22   A    
C10   O11   A    
C27   H9    S    
C1    O6    A    
C9    O8    A    
Cu1   O11   S    
N3    N4    D    
Cu1   O1    S    
C11   N1    A    
C31   H17   S    
C30   C32   A    
C6    N1    S    
C28   H10   S    
C21   C25   A    
C3    C34   A    
C20   C26   A    
Cu1   O8    S    
C29   C31   A    
C14   O3    S    
C5    N2    S    
C2    C33   A    
C4    C6    A    
C17   C19   A    
C24   C26   A    
C34   H18   S    
C10   C33   S    
C18   C20   A    
C2    H19   S    
C29   H15   S    
Cu2   O9    S    
C12   O7    A    
C14   C16   A    
C11   C20   A    
C17   C24   A    
C13   C21   A    
C24   H12   S    
C10   O9    A    
C27   H7    S    
C7    C8    D    
C6    C29   A    
C3    C5    A    
C9    O10   A    
H5    N3    S    
C16   C18   A    
C18   C19   A    
C28   H13   S    
H6    N4    S    
C15   C17   A    
C14   N1    A    
C7    H3    S    
Cu2   O5    S    
C4    H2    S    
C30   H16   S    
C13   N2    A    
Cu2   O6    S    
C9    C32   S    
C19   C21   A    
C32   C34   A    
C1    C7    S    
C22   H1    S    
C27   H8    S    
C13   O2    S    
Cu2   O10   S    
Cu1   N4    S    
C23   H14   S    
C22   C25   A    
C1    O1    A    
