data_mof_unit_49689.cif
_audit_creation_date              2013-03-05T16:03:21-0500
_audit_creation_method            fapswitch 2.2
_symmetry_space_group_name_H-M    P1
_symmetry_Int_Tables_number       1
_space_group_crystal_system       triclinic
_cell_length_a                    27.704677
_cell_length_b                    11.714009
_cell_length_c                    10.448783
_cell_angle_alpha                 90.053699
_cell_angle_beta                  88.613208
_cell_angle_gamma                 90.757354
_cell_volume                      3389.68314766

loop_
_atom_site_label
_atom_site_type_symbol
_atom_site_description
_atom_site_fract_x
_atom_site_fract_y
_atom_site_fract_z
_atom_type_partial_charge
O1    O     O_R   0.500000 0.337200 0.605810 -0.572502
O2    O     O_R   0.500000 0.662800 0.394190 -0.568912
O3    O     O_R   0.500000 0.662800 0.605810 -0.571866
O4    O     O_R   0.500000 0.337200 0.394190 -0.569260
C1    C     C_R   0.499825 0.283273 0.499963 0.802854
C2    C     C_R   0.499968 0.716720 0.500040 0.815458
O5    O     O_R   0.430260 0.500000 0.605800 -0.564807
O6    O     O_R   0.569740 0.500000 0.394200 -0.563717
O7    O     O_R   0.569740 0.500000 0.605800 -0.561324
O8    O     O_R   0.430260 0.500000 0.394200 -0.563811
C3    C     C_R   0.407217 0.499323 0.501586 0.948325
C4    C     C_R   0.592789 0.501796 0.498319 0.941809
Cu1   Cu    Cu3+1 0.500000 0.500000 0.625300 1.003684
Cu2   Cu    Cu3+1 0.500000 0.500000 0.374700 1.006082
C5    C     C_R   0.174407 0.393157 0.528261 0.698890
C6    C     C_R   0.824289 0.618436 0.465597 0.664861
C7    C     C_R   0.176700 0.595549 0.520063 0.694620
C8    C     C_R   0.821307 0.421213 0.410151 0.678114
O9    O     O_2   0.196480 0.295151 0.558086 -0.452657
O10   O     O_2   0.801020 0.713000 0.505024 -0.460272
O11   O     O_2   0.201523 0.693516 0.496724 -0.463700
O12   O     O_2   0.794763 0.331695 0.369335 -0.463150
N1    N     N_R   0.200401 0.493667 0.524741 -0.435374
N2    N     N_R   0.798474 0.520454 0.442415 -0.435609
C9    C     C_R   0.279180 0.565754 0.602890 0.330626
C10   C     C_R   0.724457 0.439364 0.545949 0.320995
C11   C     C_R   0.277773 0.420187 0.434380 0.319508
C12   C     C_R   0.717840 0.595176 0.392729 0.338887
C13   C     C_R   0.329617 0.578149 0.581803 0.231750
C14   C     C_R   0.673843 0.428153 0.552009 0.279351
C15   C     C_R   0.328651 0.413663 0.439856 0.234169
C16   C     C_R   0.667763 0.597697 0.418804 0.249220
C17   C     C_R   0.252805 0.492330 0.521690 0.054638
C18   C     C_R   0.746602 0.518836 0.460399 0.016539
C19   C     C_R   0.100114 0.497436 0.510212 -0.188400
C20   C     C_R   0.898629 0.513178 0.446476 -0.180698
C21   C     C_R   0.124744 0.392882 0.501303 -0.163263
C22   C     C_R   0.874994 0.619127 0.454005 -0.178866
C23   C     C_R   0.126175 0.598172 0.534097 -0.136766
C24   C     C_R   0.871673 0.412159 0.423656 -0.171549
C25   C     C_R   0.099738 0.294929 0.458395 0.267599
C26   C     C_R   0.902908 0.720796 0.447453 0.331173
C27   C     C_R   0.101598 0.696026 0.576635 0.282093
C28   C     C_R   0.895508 0.306122 0.424065 0.262696
C29   C     C_R   0.354285 0.497698 0.506493 -0.319562
C30   C     C_R   0.645648 0.510050 0.491952 -0.346114
C31   C     C_R   0.972695 0.402415 0.460999 -0.055215
C32   C     C_R   0.025552 0.606841 0.510142 -0.014814
C33   C     C_R   0.976211 0.611417 0.475872 -0.048055
C34   C     C_R   0.023992 0.400363 0.464047 -0.056091
C35   C     C_R   0.949321 0.508871 0.460744 -0.069426
C36   C     C_R   0.049696 0.501352 0.496103 -0.056987
C37   C     C_R   0.943733 0.301766 0.462180 0.444274
C38   C     C_R   0.050565 0.701964 0.565049 0.389053
C39   C     C_R   0.953341 0.715066 0.446577 0.408048
C40   C     C_R   0.051005 0.303497 0.425796 0.428031
C41   C     C_1   0.499745 0.161912 0.499886 -0.158731
C42   C     C_1   0.499844 0.838065 0.500089 -0.161426
C43   C     C_1   0.499716 0.059689 0.499918 -0.014319
C44   C     C_1   0.499752 0.940281 0.500015 -0.015943
N3    N     N_1   0.500000 0.500000 0.186410 -0.136608
N4    N     N_1   0.500000 0.500000 0.813590 -0.137389
C45   C     C_1   0.499998 0.500003 0.072007 0.094875
C46   C     C_1   0.499998 0.500004 0.927994 0.095482
O13   O     O_3   0.354000 0.325586 0.381841 -0.606862
C47   C     C_3   0.345067 0.221832 0.449021 0.060555
H1    H     H_    0.363926 0.153457 0.394714 0.169285
H2    H     H_    0.306038 0.198062 0.451096 0.200017
C48   C     C_3   0.364449 0.224761 0.586069 -0.366875
H3    H     H_    0.402082 0.258205 0.584186 0.224038
H4    H     H_    0.341955 0.282269 0.646747 0.211593
C49   C     C_3   0.363507 0.106617 0.647290 -0.892542
H5    H     H_    0.326987 0.066913 0.641417 0.268210
H6    H     H_    0.373022 0.114073 0.749604 0.261194
H7    H     H_    0.390439 0.051176 0.598816 0.250678
O14   O     O_3   0.639495 0.683670 0.370571 -0.593611
C50   C     C_3   0.648298 0.787539 0.436596 0.087552
H8    H     H_    0.626522 0.853992 0.390266 0.167488
H9    H     H_    0.686679 0.815774 0.425990 0.202701
C51   C     C_3   0.633141 0.781296 0.579420 -0.388311
H10   H     H_    0.596221 0.744181 0.589592 0.228609
H11   H     H_    0.658309 0.725527 0.631091 0.215192
C52   C     C_3   0.633940 0.898788 0.642390 -0.888849
H12   H     H_    0.669590 0.941505 0.625937 0.265198
H13   H     H_    0.627288 0.889478 0.747103 0.264327
H14   H     H_    0.605070 0.952533 0.603593 0.251801
O15   O     O_3   0.355502 0.668672 0.632956 -0.607875
C53   C     C_3   0.344917 0.771071 0.567373 0.060169
H15   H     H_    0.363335 0.841932 0.618205 0.169690
H16   H     H_    0.305632 0.789880 0.572073 0.202847
C54   C     C_3   0.363442 0.770032 0.427096 -0.365371
H17   H     H_    0.401473 0.741566 0.422629 0.224588
H18   H     H_    0.341290 0.709375 0.370596 0.213063
C55   C     C_3   0.360657 0.887658 0.365575 -0.893224
H19   H     H_    0.323775 0.922756 0.377888 0.269228
H20   H     H_    0.369478 0.880929 0.261636 0.260567
H21   H     H_    0.387279 0.946638 0.408927 0.250252
O16   O     O_3   0.651251 0.338501 0.617291 -0.582814
C56   C     C_3   0.658185 0.234305 0.550046 0.100764
H22   H     H_    0.640770 0.165579 0.608739 0.166693
H23   H     H_    0.697034 0.212443 0.540721 0.207679
C57   C     C_3   0.635066 0.233942 0.417329 -0.392246
H24   H     H_    0.597436 0.264360 0.426191 0.222301
H25   H     H_    0.655680 0.292305 0.351714 0.218404
C58   C     C_3   0.634627 0.115050 0.357921 -0.879774
H26   H     H_    0.671450 0.078570 0.356184 0.270736
H27   H     H_    0.621811 0.120084 0.258247 0.265083
H28   H     H_    0.609561 0.058198 0.413120 0.246968
O17   O     O_3   0.251035 0.350473 0.353935 -0.567110
C59   C     C_3   0.269015 0.352747 0.226164 0.127474
H29   H     H_    0.293056 0.278599 0.210389 0.185695
H30   H     H_    0.289446 0.432813 0.202043 0.120695
C60   C     C_3   0.226461 0.341990 0.136248 -0.355270
H31   H     H_    0.203097 0.268272 0.165908 0.261055
H32   H     H_    0.204559 0.420722 0.142885 0.216102
C61   C     C_3   0.243565 0.324360 0.997774 -0.902056
H33   H     H_    0.268675 0.394206 0.967302 0.249220
H34   H     H_    0.212032 0.323737 0.934145 0.270970
H35   H     H_    0.262352 0.241534 0.987682 0.266323
O18   O     O_3   0.739362 0.672209 0.308073 -0.555930
C62   C     C_3   0.730085 0.637220 0.181641 0.066157
H36   H     H_    0.690644 0.638133 0.163410 0.178414
H37   H     H_    0.744120 0.549667 0.163676 0.133776
C63   C     C_3   0.755638 0.720096 0.088776 -0.284371
H38   H     H_    0.744488 0.808838 0.111510 0.243443
H39   H     H_    0.795339 0.714489 0.100237 0.234165
C64   C     C_3   0.743459 0.693514 0.950167 -0.936905
H40   H     H_    0.753787 0.604903 0.925615 0.248963
H41   H     H_    0.763645 0.753101 0.885157 0.280162
H42   H     H_    0.704172 0.703705 0.935298 0.260934
O19   O     O_3   0.253850 0.631891 0.691800 -0.555369
C65   C     C_3   0.275268 0.631949 0.813254 0.121147
H43   H     H_    0.300647 0.705846 0.819604 0.188561
H44   H     H_    0.294988 0.551590 0.832670 0.116599
C66   C     C_3   0.235622 0.645924 0.916190 -0.329365
H45   H     H_    0.213175 0.720791 0.893089 0.273135
H46   H     H_    0.211923 0.568604 0.917710 0.223828
C67   C     C_3   0.256860 0.663624 0.048292 -0.919995
H47   H     H_    0.281864 0.593646 0.070541 0.247022
H48   H     H_    0.227344 0.664685 0.122094 0.273112
H49   H     H_    0.276937 0.746244 0.051690 0.266305
O20   O     O_3   0.752383 0.366037 0.615597 -0.566797
C68   C     C_3   0.766053 0.421363 0.729378 0.058835
H50   H     H_    0.734014 0.429273 0.795113 0.160156
H51   H     H_    0.781844 0.507936 0.709923 0.141171
C69   C     C_3   0.804253 0.350068 0.794269 -0.313601
H52   H     H_    0.789402 0.263123 0.814326 0.240270
H53   H     H_    0.836277 0.341936 0.728784 0.221822
C70   C     C_3   0.819975 0.404568 0.919603 -0.907384
H54   H     H_    0.835879 0.490770 0.901485 0.258159
H55   H     H_    0.847591 0.350837 0.964411 0.273425
H56   H     H_    0.788655 0.411716 0.987403 0.260670
Cl1   Cl    Cl    0.129082 0.164501 0.424608 -0.571227
Cl2   Cl    Cl    0.877147 0.856106 0.422358 -0.457901
Cl3   Cl    Cl    0.134147 0.793721 0.672800 -0.591160
Cl4   Cl    Cl    0.867255 0.175221 0.382089 -0.467589
O21   O     O_3   0.962227 0.200472 0.507985 -0.547670
C71   C     C_3   0.939736 0.170235 0.627016 0.108157
H57   H     H_    0.952529 0.084110 0.652517 0.184283
H58   H     H_    0.899879 0.162056 0.620759 0.186561
C72   C     C_3   0.952415 0.253402 0.735399 -0.464730
H59   H     H_    0.992141 0.266323 0.738471 0.239133
H60   H     H_    0.935617 0.337444 0.718078 0.218920
C73   C     C_3   0.933577 0.208020 0.864362 -0.864883
H61   H     H_    0.894560 0.185761 0.859749 0.264625
H62   H     H_    0.938075 0.274413 0.938959 0.267945
H63   H     H_    0.953890 0.131074 0.891912 0.260911
O22   O     O_3   0.023139 0.782072 0.633387 -0.592990
C74   C     C_3   0.037314 0.897471 0.610685 0.200637
H64   H     H_    0.007933 0.941436 0.561163 0.206243
H65   H     H_    0.069808 0.908429 0.546916 0.181540
C75   C     C_3   0.042919 0.959286 0.739073 -0.369020
H66   H     H_    0.006672 0.971282 0.784573 0.196497
H67   H     H_    0.064016 0.907163 0.805774 0.277437
C76   C     C_3   0.067821 0.075320 0.721724 -0.807052
H68   H     H_    0.105792 0.064001 0.688187 0.322175
H69   H     H_    0.067895 0.121332 0.814610 0.231924
H70   H     H_    0.048648 0.127379 0.650835 0.271575
O23   O     O_3   0.979855 0.809778 0.406898 -0.592404
C77   C     C_3   0.994467 0.795200 0.277558 0.036895
H71   H     H_    0.962546 0.779962 0.216446 0.165970
H72   H     H_    0.019620 0.722136 0.267274 0.129710
C78   C     C_3   0.020679 0.903643 0.231310 -0.273431
H73   H     H_    0.996161 0.977545 0.242523 0.267011
H74   H     H_    0.052851 0.919454 0.290705 0.235451
C79   C     C_3   0.036803 0.893575 0.091054 -0.920911
H75   H     H_    0.061595 0.820534 0.077746 0.270521
H76   H     H_    0.056165 0.972878 0.060450 0.256247
H77   H     H_    0.005000 0.881063 0.029600 0.259539
O24   O     O_3   0.031008 0.221964 0.345810 -0.546994
C80   C     C_3   0.046763 0.242335 0.217486 0.102607
H78   H     H_    0.043203 0.160716 0.164389 0.173631
H79   H     H_    0.085635 0.267857 0.208912 0.149228
C81   C     C_3   0.015559 0.331477 0.152443 -0.400838
H80   H     H_    0.977326 0.301496 0.153742 0.241042
H81   H     H_    0.017569 0.413966 0.204479 0.215216
C82   C     C_3   0.032897 0.352050 0.014523 -0.912377
H82   H     H_    0.070407 0.386849 0.012391 0.261344
H83   H     H_    0.009127 0.414666 0.968371 0.267894
H84   H     H_    0.031932 0.271084 0.959363 0.261053

loop_
_geom_bond_atom_site_label_1
_geom_bond_atom_site_label_2
_geom_bond_distance
_ccdc_geom_bond_type
C66   C67   1.526429 S    
C47   H2    1.112715 S    
O15   C53   1.419488 S    
C56   H22   1.110557 S    
O21   C71   1.420582 S    
C82   H84   1.109730 S    
C74   H64   1.107940 S    
C2    C42   1.421481 S    
C81   H81   1.109719 S    
C67   H47   1.108610 S    
O3    C2    1.273465 A    
C72   C73   1.526672 S    
C80   H79   1.115355 S    
C72   H59   1.110208 S    
C66   H45   1.111857 S    
C76   H69   1.109753 S    
C50   H8    1.109735 S    
C11   C17   1.417177 A    
C32   C38   1.431293 A    
C58   H27   1.110308 S    
C7    N1    1.371215 A    
O1    C1    1.273231 A    
C73   H61   1.110772 S    
C26   Cl2   1.769225 S    
C22   C26   1.412217 A    
C48   H3    1.108665 S    
C70   H55   1.109657 S    
C19   C23   1.400600 A    
C57   H25   1.111390 S    
C41   C43   1.197426 T    
C47   C48   1.541668 S    
C82   H82   1.110981 S    
C42   C44   1.197404 T    
C68   H50   1.113904 S    
O16   C56   1.420697 S    
C61   H33   1.108809 S    
C57   C58   1.524267 S    
C82   H83   1.110420 S    
C7    C23   1.404649 A    
C48   H4    1.111455 S    
O7    Cu1   1.937925 S    
C59   H29   1.111247 S    
C5    C21   1.411050 A    
C62   C63   1.528249 S    
N4    C46   1.195377 T    
O5    Cu1   1.947735 S    
C71   C72   1.537236 S    
C5    O9    1.348157 S    
C28   C37   1.404921 A    
C10   C18   1.414922 A    
Cu1   N4    1.967402 S    
C52   H12   1.110988 S    
C75   H67   1.109100 S    
C65   H43   1.110930 S    
C33   C35   1.415838 A    
N2    C18   1.444683 S    
C34   C36   1.416795 A    
C31   C34   1.422835 A    
C80   C81   1.534029 S    
C69   H53   1.112260 S    
O3    Cu1   1.918073 S    
C77   C78   1.527852 S    
C6    O10   1.348155 S    
C31   C37   1.417239 A    
C60   C61   1.526277 S    
C5    N1    1.372064 A    
C47   H1    1.110107 S    
C12   C18   1.407802 A    
C43   C44   1.398763 S    
C6    N2    1.368838 A    
C66   H46   1.111536 S    
Cu1   Cu2   2.618465 S    
C71   H58   1.110606 S    
C74   H65   1.113078 S    
O2    C2    1.273125 A    
C39   O23   1.380907 S    
C49   H7    1.108576 S    
C27   Cl3   1.773951 S    
C72   H60   1.111322 S    
C77   H72   1.114300 S    
C76   H70   1.109568 S    
C25   Cl1   1.771364 S    
C50   H9    1.112391 S    
C9    C13   1.414917 A    
C58   H28   1.107946 S    
C40   O24   1.387267 S    
C62   H37   1.115757 S    
C11   C15   1.415172 A    
C80   H78   1.109413 S    
C28   Cl4   1.771983 S    
C12   C16   1.408057 A    
O14   C50   1.419350 S    
C49   H6    1.110333 S    
C12   O18   1.383470 S    
C78   C79   1.526605 S    
C54   H17   1.109251 S    
C15   O13   1.386558 S    
C51   H10   1.108876 S    
C31   C35   1.412739 A    
C55   H21   1.108407 S    
N1    C17   1.451711 S    
C33   C39   1.414108 A    
Cu2   N3    1.967401 S    
C34   C40   1.419313 A    
C45   C46   1.504762 S    
C13   C29   1.401422 A    
C48   C49   1.524818 S    
O5    C3    1.275474 A    
C78   H73   1.111801 S    
C64   H41   1.110659 S    
C25   C40   1.405294 A    
C26   C39   1.399549 A    
C54   H18   1.111421 S    
C69   C70   1.526758 S    
C27   C38   1.424561 A    
C76   H68   1.110311 S    
C53   C54   1.541300 S    
C32   C36   1.418688 A    
O6    C4    1.274753 A    
C52   H14   1.109013 S    
N3    C45   1.195375 T    
C55   H19   1.110994 S    
C55   H20   1.110361 S    
C59   C60   1.529032 S    
C62   H36   1.113915 S    
C60   H31   1.112078 S    
C20   C35   1.417448 A    
C67   H48   1.110513 S    
C63   C64   1.525903 S    
C4    C30   1.466260 S    
C32   C33   1.423164 A    
C56   H23   1.111614 S    
C53   H16   1.113231 S    
C10   C14   1.406541 A    
O8    Cu2   1.937928 S    
C71   H57   1.108590 S    
C74   C75   1.534060 S    
C8    N2    1.368802 A    
C70   H56   1.110791 S    
O24   C80   1.419447 S    
C68   C69   1.528532 S    
C79   H76   1.109974 S    
O19   C65   1.413862 S    
C9    O19   1.391828 S    
C20   C24   1.414066 A    
C75   H66   1.111174 S    
C63   H39   1.112082 S    
C69   H52   1.111597 S    
C50   C51   1.542021 S    
C68   H51   1.116018 S    
O22   C74   1.421226 S    
O6    Cu2   1.947733 S    
C19   C21   1.411770 A    
C8    O12   1.347680 S    
C16   C30   1.405651 A    
C14   C30   1.403209 A    
C73   H63   1.110738 S    
C38   O22   1.399671 S    
C49   H5    1.110995 S    
C67   H49   1.110829 S    
C16   O14   1.386536 S    
C23   C27   1.407167 A    
C75   C76   1.525104 S    
C58   H26   1.110971 S    
C14   O16   1.386812 S    
C37   O21   1.388712 S    
C61   H35   1.110791 S    
C1    C41   1.421590 S    
C52   H13   1.110356 S    
C79   H77   1.110798 S    
C73   H62   1.108571 S    
C64   H42   1.111202 S    
O4    Cu2   1.918073 S    
C10   O20   1.382743 S    
O17   C59   1.413764 S    
C54   C55   1.524662 S    
C65   C66   1.528809 S    
O4    C1    1.273385 A    
C20   C22   1.412113 A    
C51   C52   1.525061 S    
C51   H11   1.111476 S    
C61   H34   1.110509 S    
C81   H80   1.111296 S    
C21   C25   1.410890 A    
C57   H24   1.107943 S    
O2    Cu2   1.917694 S    
O7    C4    1.278436 A    
C59   H30   1.114928 S    
C13   O15   1.386278 S    
C3    C29   1.466011 S    
O8    C3    1.277426 A    
O23   C77   1.412216 S    
C81   C82   1.526315 S    
O1    Cu1   1.917693 S    
C24   C28   1.414487 A    
C56   C57   1.541479 S    
C8    C24   1.411290 A    
C53   H15   1.110216 S    
C11   O17   1.391052 S    
C78   H74   1.111796 S    
C65   H44   1.115808 S    
O13   C47   1.419988 S    
C15   C29   1.400823 A    
C9    C17   1.416177 A    
C19   C36   1.409471 A    
O20   C68   1.410935 S    
O18   C62   1.411345 S    
C79   H75   1.110789 S    
C70   H54   1.110933 S    
C77   H71   1.115648 S    
C64   H40   1.108559 S    
C6    C22   1.406971 A    
C63   H38   1.112183 S    
C60   H32   1.111855 S    
C7    O11   1.349410 S    
