data_mof_unit_37513.cif
_audit_creation_date              2012-12-10T16:57:48-0500
_audit_creation_method            fapswitch 2.2
_symmetry_space_group_name_H-M    P1
_symmetry_Int_Tables_number       1
_space_group_crystal_system       triclinic
_cell_length_a                    7.743732
_cell_length_b                    8.577259
_cell_length_c                    19.082688
_cell_angle_alpha                 91.14687
_cell_angle_beta                  84.934592
_cell_angle_gamma                 93.790735
_cell_volume                      1259.63163776

loop_
_atom_site_label
_atom_site_type_symbol
_atom_type_description
_atom_site_fract_x
_atom_site_fract_y
_atom_site_fract_z
_atom_type_partial_charge
C1    C     C_R   0.546018 0.794935 0.498157 0.974376
C2    C     C_R   0.612470 0.357033 0.178538 -0.194647
C3    C     C_R   0.490519 0.397135 0.852919 0.021725
C4    C     C_R   0.466531 0.397050 0.146433 0.019379
C5    C     C_R   0.637552 0.368486 0.806662 0.017641
C6    C     C_R   0.329394 0.466514 0.186588 0.021958
C7    C     C_R   0.639786 0.407954 0.736301 -0.226852
C8    C     C_R   0.343693 0.498515 0.257757 -0.230224
C9    C     C_R   0.497472 0.475271 0.710909 -0.103888
C10   C     C_R   0.492393 0.462357 0.289601 -0.106477
C11   C     C_R   0.472160 0.379023 0.070139 0.289281
C12   C     C_R   0.453984 0.205064 0.501805 0.967788
C13   C     C_R   0.486676 0.373280 0.928508 0.291620
C14   C     C_1   0.202117 0.579902 0.736481 0.205690
C15   C     C_1   0.781008 0.339213 0.278254 0.208883
C16   C     C_1   0.785686 0.294942 0.829091 0.181586
C17   C     C_1   0.176748 0.512993 0.156077 0.185607
C18   C     C_2   0.570305 0.958386 0.497060 -0.376152
C19   C     C_2   0.429703 0.041624 0.502841 -0.372958
C20   C     C_R   0.500237 0.498525 0.634954 0.868298
C21   C     C_R   0.498379 0.492807 0.365220 0.868228
C22   C     C_R   0.350959 0.505326 0.757701 -0.008596
C23   C     C_R   0.627157 0.388332 0.249327 -0.004919
C24   C     C_R   0.348690 0.464840 0.827854 -0.191619
H1    H     H_    0.237133 0.490767 0.863667 0.168943
H2    H     H_    0.717001 0.301781 0.147832 0.165972
H3    H     H_    0.752096 0.382279 0.700902 0.174092
H4    H     H_    0.238897 0.553641 0.288247 0.171567
H5    H     H_    0.702990 0.009691 0.491523 0.182574
H6    H     H_    0.297019 0.990325 0.508367 0.182126
H7    H     H_    0.014336 0.381778 0.447384 0.202359
H8    H     H_    0.985689 0.618128 0.552678 0.199978
N1    N     N_R   0.633083 0.402479 0.961592 -0.150408
N2    N     N_1   0.054270 0.550281 0.131816 -0.176806
N3    N     N_R   0.325971 0.345924 0.037190 -0.152361
N4    N     N_R   0.626044 0.404531 0.031200 -0.152818
N5    N     N_R   0.333081 0.343723 0.967406 -0.155537
N6    N     N_2   0.950330 0.457950 0.481240 -0.171940
N7    N     N_2   0.049670 0.542050 0.518760 -0.172618
N8    N     N_1   0.082702 0.639463 0.719700 -0.204435
N9    N     N_1   0.904346 0.299662 0.301114 -0.214695
N10   N     N_1   0.904523 0.236179 0.846894 -0.177308
O1    O     O_R   0.389250 0.738570 0.504600 -0.610238
O2    O     O_R   0.610750 0.261430 0.495400 -0.612152
O3    O     O_R   0.678400 0.711620 0.492580 -0.626596
O4    O     O_R   0.321600 0.288380 0.507420 -0.628705
O5    O     O_R   0.355380 0.513500 0.607880 -0.607610
O6    O     O_R   0.644620 0.486500 0.392120 -0.607851
O7    O     O_R   0.644530 0.486550 0.595850 -0.625792
O8    O     O_R   0.355470 0.513450 0.404150 -0.623752
Zn1   Zn    Zn3+2 0.306930 0.517990 0.508030 0.959376
Zn2   Zn    Zn3+2 0.693070 0.482010 0.491970 0.958910

loop_
_geom_bond_atom_site_label_1
_geom_bond_atom_site_label_2
_ccdc_geom_bond_type
C2    C4    A    
C13   N1    A    
C20   O7    A    
C10   C23   A    
C9    C20   S    
N7    Zn1   S    
C3    C13   S    
H7    N6    S    
O7    Zn2   S    
O1    Zn1   S    
O2    Zn2   S    
C15   C23   S    
O8    Zn1   S    
C3    C24   A    
C2    H2    S    
C18   H5    S    
C4    C11   S    
C1    O3    A    
C1    C18   S    
N6    N7    D    
C11   N3    A    
C12   C19   S    
C4    C6    A    
C21   O8    A    
N3    N5    A    
C5    C7    A    
C10   C21   S    
C14   C22   S    
C8    H4    S    
C22   C24   A    
C9    C22   A    
C20   O5    A    
N6    Zn2   S    
C17   N2    T    
C14   N8    T    
C21   O6    A    
C16   N10   T    
O6    Zn2   S    
N1    N4    A    
C7    H3    S    
C24   H1    S    
C15   N9    T    
C8    C10   A    
C18   C19   D    
H8    N7    S    
C2    C23   A    
C7    C9    A    
C6    C17   S    
C12   O2    A    
C5    C16   S    
C6    C8    A    
O3    Zn2   S    
C19   H6    S    
C13   N5    A    
O4    Zn1   S    
C1    O1    A    
O5    Zn1   S    
C3    C5    A    
C12   O4    A    
C11   N4    A    
