data_mof_unit_59831.cif
_audit_creation_date              2013-03-05T15:48:31-0500
_audit_creation_method            fapswitch 2.2
_symmetry_space_group_name_H-M    P1
_symmetry_Int_Tables_number       1
_space_group_crystal_system       triclinic
_cell_length_a                    14.302472
_cell_length_b                    13.0331
_cell_length_c                    11.806879
_cell_angle_alpha                 99.070356
_cell_angle_beta                  93.095634
_cell_angle_gamma                 91.976487
_cell_volume                      2168.11090743

loop_
_atom_site_label
_atom_site_type_symbol
_atom_site_description
_atom_site_fract_x
_atom_site_fract_y
_atom_site_fract_z
_atom_type_partial_charge
O1    O     O_R   0.504510 0.354460 0.582000 -0.564864
O2    O     O_R   0.495490 0.645540 0.418000 -0.537543
O3    O     O_R   0.493770 0.341410 0.386200 -0.507309
O4    O     O_R   0.506230 0.658590 0.613800 -0.558545
C1    C     C_R   0.502249 0.299563 0.479475 0.881265
C2    C     C_R   0.500029 0.700244 0.521030 0.907886
O5    O     O_R   0.381420 0.506530 0.597920 -0.513087
O6    O     O_R   0.618580 0.493470 0.402080 -0.547703
O7    O     O_R   0.370680 0.493470 0.402120 -0.557163
O8    O     O_R   0.629320 0.506530 0.597880 -0.541196
C3    C     C_R   0.331314 0.499970 0.500488 0.852932
C4    C     C_R   0.668689 0.500421 0.499609 0.789274
Cu1   Cu    Cu3+1 0.506360 0.507730 0.615930 1.035341
Cu2   Cu    Cu3+1 0.493640 0.492270 0.384070 1.049710
C5    C     C_1   0.228991 0.500348 0.501323 -0.066284
C6    C     C_1   0.771008 0.500552 0.499086 -0.138218
C7    C     C_1   0.143485 0.500651 0.501237 0.028129
C8    C     C_1   0.856528 0.500922 0.499467 -0.006938
C9    C     C_1   0.042761 0.500953 0.500629 0.019276
C10   C     C_1   0.957231 0.501067 0.500039 0.013711
C11   C     C_R   0.493691 0.812881 0.532527 -0.299002
C12   C     C_R   0.511302 0.186589 0.469427 -0.293206
C13   C     C_R   0.569382 0.023902 0.373255 0.290625
C14   C     C_R   0.413667 0.970062 0.601985 0.287566
C15   C     C_R   0.556685 0.130845 0.377323 0.291222
C16   C     C_R   0.429617 0.864811 0.605709 0.252107
C17   C     C_R   0.476236 0.133459 0.553888 0.446000
C18   C     C_R   0.547991 0.867069 0.464004 0.427692
C19   C     C_R   0.471630 0.024752 0.536296 -0.213124
C20   C     C_R   0.530237 0.971208 0.456730 -0.240955
N1    N     N_R   0.515930 0.519350 0.790130 -0.328177
N2    N     N_R   0.484070 0.480650 0.209870 -0.314728
C21   C     C_R   0.395503 0.419129 0.029912 0.290153
C22   C     C_R   0.605965 0.571991 0.970755 0.317028
C23   C     C_R   0.417413 0.413826 0.147207 0.354085
C24   C     C_R   0.593254 0.569277 0.851346 0.351574
C25   C     C_R   0.540165 0.541568 0.153916 0.425799
C26   C     C_R   0.447762 0.473915 0.847448 0.441233
C27   C     C_R   0.536028 0.528636 0.031471 -0.302592
C28   C     C_R   0.458694 0.473307 0.968729 -0.265543
O9    O     O_3   0.625478 0.821118 0.415936 -0.503856
C29   C     C_3   0.702895 0.844418 0.497077 0.077081
H1    H     H_    0.687819 0.818141 0.579966 0.142470
H2    H     H_    0.720041 0.929759 0.513344 0.135152
C30   C     C_3   0.788350 0.788415 0.450723 -0.249143
H3    H     H_    0.773807 0.703303 0.440177 0.240285
H4    H     H_    0.802780 0.809500 0.365563 0.268383
C31   C     C_3   0.874945 0.816130 0.532541 -0.890191
H5    H     H_    0.892646 0.900910 0.543454 0.264579
H6    H     H_    0.935322 0.773327 0.496801 0.265928
H7    H     H_    0.862432 0.793813 0.617655 0.280479
O10   O     O_3   0.451310 0.186973 0.657689 -0.507051
C32   C     C_3   0.527834 0.192326 0.740616 0.048950
H8    H     H_    0.562004 0.271442 0.752121 0.168490
H9    H     H_    0.582914 0.135173 0.717048 0.085457
C33   C     C_3   0.491600 0.173344 0.855221 -0.250006
H10   H     H_    0.432431 0.223935 0.877431 0.293396
H11   H     H_    0.465585 0.091200 0.847423 0.217194
C34   C     C_3   0.568474 0.195514 0.951605 -0.908433
H12   H     H_    0.629203 0.146655 0.930446 0.254077
H13   H     H_    0.541113 0.177093 0.032562 0.323070
H14   H     H_    0.591987 0.278939 0.965128 0.231021
O11   O     O_3   0.378314 0.810499 0.674720 -0.558872
C35   C     C_3   0.423858 0.825689 0.786042 0.122518
H15   H     H_    0.421933 0.907898 0.828344 0.163994
H16   H     H_    0.498535 0.805561 0.782782 0.180186
C36   C     C_3   0.374899 0.756387 0.859405 -0.342928
H17   H     H_    0.299490 0.774008 0.862047 0.254520
H18   H     H_    0.380460 0.674250 0.819546 0.255691
C37   C     C_3   0.419130 0.771757 0.981733 -0.782773
H19   H     H_    0.495246 0.757855 0.980853 0.289622
H20   H     H_    0.385391 0.716013 0.030705 0.249149
H21   H     H_    0.409143 0.852136 0.025604 0.289645
O12   O     O_3   0.586967 0.179443 0.289013 -0.538108
C38   C     C_3   0.680624 0.217214 0.315559 0.098482
H22   H     H_    0.725491 0.157849 0.346542 0.152435
H23   H     H_    0.683102 0.287208 0.383116 0.102607
C39   C     C_3   0.720357 0.246641 0.206988 -0.289131
H24   H     H_    0.714441 0.177598 0.138098 0.247891
H25   H     H_    0.679079 0.309444 0.177862 0.213890
C40   C     C_3   0.823060 0.283446 0.227246 -0.924249
H26   H     H_    0.830384 0.355699 0.291270 0.259117
H27   H     H_    0.850195 0.299588 0.145216 0.255649
H28   H     H_    0.865473 0.222581 0.258418 0.275881
N3    N     N_R   0.611777 0.968077 0.276242 0.210951
O13   O     O_R   0.563156 0.945716 0.178607 -0.294811
O14   O     O_R   0.702221 0.960210 0.278390 -0.363786
N4    N     N_R   0.330696 0.016822 0.648565 0.174339
O15   O     O_R   0.283746 0.077969 0.591607 -0.290979
O16   O     O_R   0.294105 0.988647 0.737962 -0.347015
N5    N     N_R   0.360660 0.437287 0.787330 0.171287
O17   O     O_R   0.291504 0.499427 0.786313 -0.428429
O18   O     O_R   0.349382 0.342476 0.733686 -0.281772
N6    N     N_R   0.592524 0.628804 0.218209 0.202083
O19   O     O_R   0.570601 0.721525 0.201719 -0.261567
O20   O     O_R   0.673824 0.616393 0.267346 -0.384179
N7    N     N_R   0.661792 0.623155 0.795911 0.175765
O21   O     O_R   0.650099 0.719498 0.784615 -0.391688
O22   O     O_R   0.744789 0.586481 0.784275 -0.389345
N8    N     N_R   0.374229 0.331856 0.196680 0.172950
O23   O     O_R   0.401358 0.237586 0.168004 -0.311342
O24   O     O_R   0.295891 0.345353 0.246859 -0.383322
O25   O     O_3   0.319733 0.359696 0.973661 -0.543446
C41   C     C_3   0.235149 0.406941 0.005869 0.154012
H29   H     H_    0.222864 0.474179 0.960984 0.171044
H30   H     H_    0.235055 0.437840 0.099060 0.114663
C42   C     C_3   0.152764 0.327577 0.976144 -0.365974
H31   H     H_    0.164316 0.260686 0.022384 0.256004
H32   H     H_    0.087578 0.364494 0.005649 0.165484
C43   C     C_3   0.139902 0.288147 0.847203 -0.599921
H33   H     H_    0.130459 0.354167 0.799157 0.252203
H34   H     H_    0.076712 0.234918 0.829245 0.208554
H35   H     H_    0.201516 0.244516 0.816817 0.318936
O26   O     O_3   0.687369 0.619507 0.026719 -0.517530
C44   C     C_3   0.753779 0.543010 0.037415 0.127237
H36   H     H_    0.761790 0.491385 0.954118 0.132467
H37   H     H_    0.732216 0.493276 0.100733 0.144015
C45   C     C_3   0.848624 0.597908 0.078286 -0.230830
H38   H     H_    0.872382 0.642696 0.011621 0.242903
H39   H     H_    0.841155 0.653437 0.158700 0.247684
C46   C     C_3   0.922623 0.520880 0.100851 -0.966050
H40   H     H_    0.904505 0.482867 0.174947 0.267978
H41   H     H_    0.991820 0.562795 0.121891 0.264812
H42   H     H_    0.928019 0.460866 0.023736 0.257640

loop_
_geom_bond_atom_site_label_1
_geom_bond_atom_site_label_2
_geom_bond_distance
_ccdc_geom_bond_type
C11   C16   1.410105 A    
C17   C19   1.397888 A    
O9    C29   1.416526 S    
C9    C10   1.222987 T    
C38   H22   1.114610 S    
C41   H30   1.110541 S    
O26   C44   1.415687 S    
C32   H8    1.111058 S    
C17   O10   1.382162 S    
O5    C3    1.311469 A    
O1    C1    1.303597 A    
C14   C16   1.405410 A    
C21   C23   1.416230 A    
C39   H25   1.112174 S    
C32   C33   1.527461 S    
C44   H36   1.114413 S    
C18   O9    1.384037 S    
C33   H10   1.107972 S    
C15   O12   1.383470 S    
C30   H4    1.111176 S    
O4    Cu1   1.970357 S    
C43   H33   1.110868 S    
C46   H42   1.110835 S    
C40   H27   1.110001 S    
C45   H38   1.111667 S    
C3    C5    1.464205 S    
C31   H7    1.111083 S    
C1    C12   1.469195 S    
C4    C6    1.463705 S    
C44   H37   1.112678 S    
C12   C15   1.411160 A    
C42   H31   1.111599 S    
C37   H19   1.110109 S    
C8    C10   1.439886 S    
C32   H9    1.118789 S    
C34   H12   1.110740 S    
Cu1   Cu2   2.708800 S    
C42   H32   1.111418 S    
O2    C2    1.306571 A    
C29   H2    1.114839 S    
C41   H29   1.107539 S    
N7    O22   1.300973 A    
N7    O21   1.298956 A    
C43   H34   1.110272 S    
N3    O14   1.300353 A    
C34   H13   1.109367 S    
C21   C28   1.422864 A    
O12   C38   1.412587 S    
C36   H17   1.111503 S    
C13   C20   1.415256 A    
O4    C2    1.297166 A    
N5    O17   1.300544 A    
O7    Cu2   1.783192 S    
C39   H24   1.111319 S    
N3    O13   1.300345 A    
C2    C11   1.459239 S    
C26   N5    1.428387 S    
C40   H26   1.108768 S    
C22   C27   1.414175 A    
C36   H18   1.106724 S    
C45   C46   1.525166 S    
C35   H16   1.109795 S    
C16   O11   1.383463 S    
C35   C36   1.524791 S    
C19   C20   1.410963 A    
N5    O18   1.297122 A    
C38   H23   1.111289 S    
O5    Cu1   1.787354 S    
O6    C4    1.311997 A    
C44   C45   1.529190 S    
C37   H21   1.110563 S    
N8    O24   1.299891 A    
N2    C25   1.374470 A    
N6    O20   1.297885 A    
C14   N4    1.448036 S    
C43   H35   1.110420 S    
C46   H40   1.109159 S    
C24   N7    1.431471 S    
O3    Cu2   1.970358 S    
O8    C4    1.309255 A    
C31   H5    1.110803 S    
C11   C18   1.402369 A    
N4    O16   1.300551 A    
C12   C17   1.404719 A    
O7    C3    1.309950 A    
C42   C43   1.527149 S    
O1    Cu1   1.973429 S    
C29   H1    1.115765 S    
C23   N8    1.433253 S    
C27   C28   1.407201 A    
C40   H28   1.110768 S    
O10   C32   1.420870 S    
C30   C31   1.525616 S    
C5    C7    1.223043 T    
C34   H14   1.111323 S    
O6    Cu2   1.787356 S    
C21   O25   1.384793 S    
Cu1   N1    2.035161 S    
N2    C23   1.370460 A    
Cu2   N2    2.035162 S    
O3    C1    1.305577 A    
O8    Cu1   1.783193 S    
N1    C26   1.384557 A    
C22   O26   1.383408 S    
C33   C34   1.525344 S    
C36   C37   1.525677 S    
C35   H15   1.110397 S    
C18   C20   1.404340 A    
C25   C27   1.426604 A    
C26   C28   1.433350 A    
C39   C40   1.523895 S    
C31   H6    1.110556 S    
N8    O23   1.300246 A    
C7    C9    1.440370 S    
C33   H11   1.109433 S    
C25   N6    1.427397 S    
C22   C24   1.406462 A    
C13   C15   1.405441 A    
N6    O19   1.300099 A    
O2    Cu2   1.973429 S    
C38   C39   1.527056 S    
C45   H39   1.111871 S    
C46   H41   1.110397 S    
O11   C35   1.416923 S    
C30   H3    1.107704 S    
C14   C19   1.414143 A    
N4    O15   1.302076 A    
C6    C8    1.222754 T    
C13   N3    1.432372 S    
O25   C41   1.419328 S    
N1    C24   1.372812 A    
C37   H20   1.110588 S    
C29   C30   1.527721 S    
C41   C42   1.529148 S    
