data_mof_unit_7826.cif
_audit_creation_date              2012-12-10T17:46:16-0500
_audit_creation_method            fapswitch 2.2
_symmetry_space_group_name_H-M    P1
_symmetry_Int_Tables_number       1
_space_group_crystal_system       triclinic
_cell_length_a                    14.148282
_cell_length_b                    10.669998
_cell_length_c                    9.928014
_cell_angle_alpha                 89.786888
_cell_angle_beta                  90.125683
_cell_angle_gamma                 90.980074
_cell_volume                      1498.52121817

loop_
_atom_site_label
_atom_site_type_symbol
_atom_type_description
_atom_site_fract_x
_atom_site_fract_y
_atom_site_fract_z
_atom_type_partial_charge
C1    C     C_R   0.506283 0.260761 0.500461 0.962635
C2    C     C_1   0.772240 0.502919 0.500077 -0.196216
C3    C     C_R   0.667558 0.126473 0.632870 0.441624
C4    C     C_R   0.737739 0.055228 0.696543 -0.224350
C5    C     C_R   0.733760 0.925563 0.693622 -0.192643
C6    C     C_R   0.659868 0.864512 0.627874 -0.194251
C7    C     C_R   0.586423 0.932692 0.566280 0.033468
C8    C     C_R   0.589441 0.064826 0.568018 0.051057
C9    C     C_R   0.514848 0.128227 0.500755 -0.090108
C10   C     C_R   0.443968 0.064193 0.430171 -0.219305
C11   C     C_R   0.442047 0.936310 0.429168 -0.183991
C12   C     C_R   0.329300 0.499800 0.499907 0.872245
C13   C     C_R   0.510859 0.871619 0.499061 -0.069615
C14   C     C_R   0.377308 0.335996 0.139965 -0.201418
C15   C     C_R   0.317435 0.254322 0.070373 -0.324532
C16   C     C_R   0.317215 0.253446 0.929925 0.471229
C17   C     C_R   0.377584 0.335344 0.860556 -0.154675
C18   C     C_R   0.439778 0.418843 0.927945 0.079953
C19   C     C_R   0.439718 0.419029 0.072340 0.174739
C20   C     C_R   0.557714 0.577522 0.071290 -0.103754
C21   C     C_R   0.557679 0.577517 0.928289 -0.088265
C22   C     C_R   0.501862 0.739426 0.499716 0.853679
C23   C     C_R   0.670719 0.502264 0.499983 0.937032
C24   C     C_1   0.227815 0.500073 0.499710 -0.187163
C25   C     C_1   0.142552 0.500573 0.499761 0.000312
C26   C     C_1   0.042655 0.501392 0.499940 0.013174
C27   C     C_1   0.957395 0.502116 0.500080 0.010069
C28   C     C_1   0.857501 0.502778 0.500139 -0.017537
H1    H     H_    0.388204 0.113715 0.378281 0.143579
H2    H     H_    0.373187 0.330535 0.753823 0.214184
H3    H     H_    0.604759 0.640985 0.874532 0.139076
H4    H     H_    0.797137 0.100599 0.746540 0.139399
H5    H     H_    0.789144 0.871939 0.740781 0.159308
H6    H     H_    0.662162 0.763452 0.624345 0.146819
H7    H     H_    0.385214 0.887378 0.376648 0.152741
H8    H     H_    0.604836 0.640975 0.124746 0.145595
H9    H     H_    0.372114 0.331151 0.246633 0.214497
H10   H     H_    0.270876 0.191835 0.126571 0.149893
N1    N     N_R   0.499190 0.498800 0.142780 -0.107227
N2    N     N_R   0.499160 0.498720 0.857170 -0.101068
O1    O     O_R   0.500000 0.316780 0.614690 -0.590253
O2    O     O_R   0.499990 0.316750 0.385360 -0.640474
O3    O     O_R   0.373720 0.500010 0.614690 -0.613612
O4    O     O_R   0.373710 0.499990 0.385360 -0.618173
O5    O     O_R   0.500010 0.683250 0.614640 -0.613620
O6    O     O_R   0.500000 0.683220 0.385310 -0.612560
O7    O     O_R   0.626290 0.500010 0.614640 -0.578163
O8    O     O_R   0.626280 0.499990 0.385310 -0.598924
Zn1   Zn    Zn3+2 0.500010 0.500020 0.653130 0.960176
Zn2   Zn    Zn3+2 0.499990 0.499980 0.346870 0.942269
O9    O     O_3   0.258660 0.174058 0.857125 -0.768668
H11   H     H_    0.220528 0.122231 0.920695 0.334679
O10   O     O_3   0.676939 0.254941 0.630066 -0.780411
H12   H     H_    0.734090 0.281410 0.681338 0.327544

loop_
_geom_bond_atom_site_label_1
_geom_bond_atom_site_label_2
_ccdc_geom_bond_type
C1    O1    A    
C2    C28   T    
C24   C25   T    
C15   H10   S    
C6    C7    A    
C11   C13   A    
C9    C10   A    
O6    Zn2   S    
C16   O9    S    
O5    Zn1   S    
C22   O5    A    
O8    Zn2   S    
C17   C18   A    
C7    C8    A    
C12   O4    A    
O10   H12   S    
C3    O10   S    
C14   H9    S    
C17   H2    S    
C21   H3    S    
C10   H1    S    
N2    Zn1   S    
C26   C27   T    
C4    H4    S    
C21   N2    A    
C19   N1    A    
O2    Zn2   S    
C14   C19   A    
O1    Zn1   S    
C22   O6    A    
C13   C22   S    
C3    C8    A    
C12   O3    A    
C5    C6    A    
C23   O7    A    
C10   C11   A    
O9    H11   S    
C20   H8    S    
C6    H6    S    
C1    O2    A    
C7    C13   A    
N1    Zn2   S    
C1    C9    S    
C20   C21   A    
O7    Zn1   S    
C18   C19   A    
O4    Zn2   S    
C2    C23   S    
C20   N1    A    
C12   C24   S    
C14   C15   A    
C4    C5    A    
C18   N2    A    
C23   O8    A    
C25   C26   S    
C11   H7    S    
O3    Zn1   S    
C3    C4    A    
C15   C16   A    
C16   C17   A    
C8    C9    A    
C27   C28   S    
C5    H5    S    
