data_mof_unit_40035.cif
_audit_creation_date              2012-12-10T17:28:34-0500
_audit_creation_method            fapswitch 2.2
_symmetry_space_group_name_H-M    P1
_symmetry_Int_Tables_number       1
_space_group_crystal_system       triclinic
_cell_length_a                    10.509806
_cell_length_b                    11.963117
_cell_length_c                    12.817647
_cell_angle_alpha                 93.775345
_cell_angle_beta                  89.944842
_cell_angle_gamma                 84.875572
_cell_volume                      1601.60069722

loop_
_atom_site_label
_atom_site_type_symbol
_atom_type_description
_atom_site_fract_x
_atom_site_fract_y
_atom_site_fract_z
_atom_type_partial_charge
C1    C     C_R   0.492660 0.522686 0.700268 0.895813
C2    C     C_R   0.507333 0.477314 0.299732 0.895817
C3    C     C_R   0.521317 0.462725 0.188439 -0.112005
C4    C     C_R   0.478664 0.537273 0.811560 -0.112010
C5    C     C_R   0.370892 0.614047 0.970806 0.220879
C6    C     C_R   0.629060 0.385930 0.029190 0.220882
C7    C     C_R   0.379337 0.608852 0.860882 0.180083
C8    C     C_R   0.620628 0.391131 0.139114 0.180060
C9    C     C_R   0.562491 0.468424 0.867330 -0.302094
C10   C     C_R   0.437488 0.531575 0.132671 -0.302096
C11   C     C_R   0.548173 0.463070 0.973947 0.063881
C12   C     C_R   0.451793 0.536919 0.026051 0.063871
C13   C     C_R   0.367727 0.957612 0.412208 0.030214
C14   C     C_R   0.632274 0.042388 0.587791 0.030212
C15   C     C_R   0.386687 0.838753 0.416448 0.564684
C16   C     C_R   0.613313 0.161247 0.583551 0.564685
C17   C     C_R   0.556015 0.856171 0.537292 -0.142785
C18   C     C_R   0.443985 0.143829 0.462708 -0.142793
C19   C     C_R   0.547912 0.974380 0.531637 -0.023099
C20   C     C_R   0.452088 0.025620 0.468363 -0.023100
C21   C     C_R   0.740511 0.496227 0.484216 0.887128
C22   C     C_R   0.259488 0.503773 0.515782 0.887122
C23   C     C_R   0.916059 0.283021 0.476378 -0.066167
C24   C     C_R   0.083940 0.716978 0.523614 -0.066161
C25   C     C_R   0.981079 0.193128 0.523146 -0.193561
C26   C     C_R   0.018919 0.806871 0.476846 -0.193563
C27   C     C_R   0.080872 0.212140 0.591246 -0.175502
C28   C     C_R   0.919125 0.787860 0.408747 -0.175503
C29   C     C_R   0.123194 0.319811 0.606518 0.240912
C30   C     C_R   0.876803 0.680189 0.393477 0.240911
C31   C     C_R   0.066976 0.408716 0.547745 0.075283
C32   C     C_R   0.933022 0.591284 0.452248 0.075284
C33   C     C_R   0.952977 0.393375 0.494600 0.043454
C34   C     C_R   0.047021 0.606625 0.505393 0.043452
C35   C     C_R   0.122153 0.510664 0.536685 -0.258635
C36   C     C_R   0.877845 0.489335 0.463309 -0.258646
H1    H     H_    0.875160 0.857085 0.367143 0.145725
H2    H     H_    0.124836 0.142914 0.632852 0.145725
H3    H     H_    0.837717 0.265304 0.425054 0.150191
H4    H     H_    0.162281 0.734697 0.574938 0.150187
H5    H     H_    0.950785 0.109271 0.509645 0.148551
H6    H     H_    0.049212 0.890729 0.490347 0.148552
H7    H     H_    0.362043 0.583086 0.175169 0.197504
H8    H     H_    0.637946 0.416920 0.824837 0.197502
H9    H     H_    0.375105 0.186453 0.413027 0.184341
H10   H     H_    0.624894 0.813547 0.586973 0.184342
N1    N     N_R   0.523130 0.207800 0.519340 -0.139906
N2    N     N_R   0.476870 0.792200 0.480660 -0.139907
O1    O     O_R   0.506170 0.421700 0.658830 -0.581886
O2    O     O_R   0.493830 0.578300 0.341170 -0.581893
O3    O     O_R   0.491330 0.609310 0.646410 -0.621926
O4    O     O_R   0.508670 0.390690 0.353590 -0.621918
O5    O     O_R   0.690650 0.406190 0.506220 -0.570767
O6    O     O_R   0.309350 0.593810 0.493780 -0.570779
O7    O     O_R   0.675800 0.593810 0.493800 -0.611784
O8    O     O_R   0.324200 0.406190 0.506200 -0.611786
Zn1   Zn    Zn3+2 0.509910 0.374730 0.508290 0.966909
Zn2   Zn    Zn3+2 0.490090 0.625270 0.491710 0.966907
C37   C     C_3   0.255621 0.011482 0.353636 -0.970578
H11   H     H_    0.184548 0.952115 0.329155 0.253846
H12   H     H_    0.202464 0.077834 0.405233 0.254444
H13   H     H_    0.290553 0.049347 0.283442 0.250883
C38   C     C_3   0.744380 0.988517 0.646362 -0.970578
H14   H     H_    0.815454 0.047884 0.670841 0.253846
H15   H     H_    0.709450 0.950653 0.716557 0.250884
H16   H     H_    0.797536 0.922165 0.594765 0.254444
C39   C     C_3   0.217835 0.338048 0.693047 -0.862360
H17   H     H_    0.180343 0.309597 0.766917 0.225553
H18   H     H_    0.309937 0.288123 0.673671 0.259435
H19   H     H_    0.234172 0.427908 0.708021 0.223151
C40   C     C_3   0.782159 0.661951 0.306949 -0.862357
H20   H     H_    0.819649 0.690403 0.233078 0.225554
H21   H     H_    0.765822 0.572092 0.291975 0.223140
H22   H     H_    0.690058 0.711877 0.326327 0.259434
C41   C     C_3   0.722039 0.327564 0.202115 -0.924319
H23   H     H_    0.818549 0.338501 0.171150 0.243741
H24   H     H_    0.724259 0.359107 0.284949 0.225647
H25   H     H_    0.706362 0.236857 0.198504 0.248599
C42   C     C_3   0.277916 0.672410 0.797880 -0.924368
H26   H     H_    0.181406 0.661391 0.828798 0.243738
H27   H     H_    0.293517 0.763137 0.801559 0.248591
H28   H     H_    0.275762 0.640931 0.715025 0.225686
C43   C     C_3   0.276845 0.700162 0.029316 -0.933350
H29   H     H_    0.230358 0.764037 0.979746 0.253550
H30   H     H_    0.200707 0.656939 0.065914 0.243054
H31   H     H_    0.327986 0.748189 0.090613 0.236099
C44   C     C_3   0.723065 0.299784 0.970677 -0.933374
H32   H     H_    0.769495 0.235878 0.020245 0.253554
H33   H     H_    0.671904 0.251794 0.909367 0.236107
H34   H     H_    0.799244 0.342972 0.934094 0.243054
O9    O     O_3   0.684552 0.232938 0.642398 -0.736209
H35   H     H_    0.699504 0.202082 0.711552 0.313443
O10   O     O_3   0.315449 0.767062 0.357601 -0.736212
H36   H     H_    0.300500 0.797917 0.288446 0.313441

loop_
_geom_bond_atom_site_label_1
_geom_bond_atom_site_label_2
_ccdc_geom_bond_type
C21   O5    A    
C44   H32   S    
C38   H15   S    
O10   H36   S    
C27   C29   A    
C19   C20   A    
C17   N2    A    
C18   N1    A    
C30   C40   S    
C21   O7    A    
C22   O6    A    
C21   C36   S    
C22   C35   S    
C32   C36   A    
C24   C26   A    
C5    C43   S    
N1    Zn1   S    
C27   H2    S    
C33   C36   A    
O1    Zn1   S    
O8    Zn1   S    
C34   C35   A    
C2    O2    A    
C17   C19   A    
C29   C39   S    
C37   H13   S    
C31   C33   A    
C18   C20   A    
C38   H16   S    
C37   H11   S    
C15   N2    A    
C4    C7    A    
C10   C12   A    
C16   N1    A    
C5    C7    A    
C37   H12   S    
C39   H17   S    
O2    Zn2   S    
C17   H10   S    
C5    C12   A    
C3    C8    A    
C25   H5    S    
O9    H35   S    
C42   H27   S    
O5    Zn1   S    
C6    C8    A    
C23   C33   A    
C8    C41   S    
C24   C34   A    
C6    C44   S    
C42   H26   S    
C39   H18   S    
C32   C34   A    
C41   H23   S    
C42   H28   S    
C1    O3    A    
C43   H29   S    
O3    Zn2   S    
C41   H24   S    
C2    O4    A    
C43   H30   S    
C9    C11   A    
C14   C16   A    
O7    Zn2   S    
C18   H9    S    
C6    C11   A    
C26   H6    S    
C7    C42   S    
O6    Zn2   S    
C9    H8    S    
C13   C20   A    
C10   H7    S    
C14   C19   A    
C15   O10   S    
C40   H22   S    
C22   O8    A    
C11   C12   A    
N2    Zn2   S    
C13   C37   S    
C25   C27   A    
C26   C28   A    
C1    C4    S    
C39   H19   S    
C13   C15   A    
C2    C3    S    
C40   H20   S    
C29   C31   A    
C3    C10   A    
C30   C32   A    
C28   H1    S    
C23   H3    S    
C14   C38   S    
C28   C30   A    
C24   H4    S    
C31   C35   A    
C23   C25   A    
C41   H25   S    
O4    Zn1   S    
C38   H14   S    
C43   H31   S    
C16   O9    S    
C44   H34   S    
C40   H21   S    
C44   H33   S    
C4    C9    A    
C1    O1    A    
