data_mof_unit_30168.cif
_audit_creation_date              2013-03-05T15:59:22-0500
_audit_creation_method            fapswitch 2.2
_symmetry_space_group_name_H-M    P1
_symmetry_Int_Tables_number       1
_space_group_crystal_system       triclinic
_cell_length_a                    10.558301
_cell_length_b                    12.659393
_cell_length_c                    13.190162
_cell_angle_alpha                 81.028046
_cell_angle_beta                  92.174431
_cell_angle_gamma                 101.808547
_cell_volume                      1704.56071633

loop_
_atom_site_label
_atom_site_type_symbol
_atom_site_description
_atom_site_fract_x
_atom_site_fract_y
_atom_site_fract_z
_atom_type_partial_charge
O1    O     O_R   0.467970 0.366730 0.627150 -0.521883
O2    O     O_R   0.510820 0.544830 0.662520 -0.642912
C1    C     C_R   0.483627 0.438622 0.691645 0.919238
O3    O     O_R   0.664630 0.410960 0.482340 -0.535976
O4    O     O_R   0.707470 0.589060 0.517710 -0.610582
C2    C     C_R   0.741416 0.501186 0.498015 1.049734
Zn1   Zn    Zn3+2 0.471390 0.381080 0.476380 1.151613
Zn2   Zn    Zn3+2 0.528610 0.618920 0.523620 0.986095
O5    O     O_R   0.489180 0.455170 0.337480 -0.552746
O6    O     O_R   0.532030 0.633270 0.372850 -0.654716
O7    O     O_R   0.292530 0.410940 0.482290 -0.559930
O8    O     O_R   0.335370 0.589040 0.517660 -0.621723
C3    C     C_R   0.516359 0.561711 0.309184 0.915725
C4    C     C_R   0.258778 0.499591 0.500719 1.002083
C5    C     C_3   0.935990 0.410148 0.467599 0.368605
C6    C     C_3   0.021100 0.414155 0.564284 0.092184
C7    C     C_3   0.124813 0.500116 0.501675 -0.310900
C8    C     C_3   0.038569 0.496503 0.405157 0.280425
C9    C     C_3   0.979297 0.588479 0.434353 0.250449
C10   C     C_3   0.065006 0.592846 0.530772 0.284809
C11   C     C_3   0.962170 0.506481 0.593203 0.110612
C12   C     C_3   0.875931 0.502192 0.496905 -0.300314
C13   C     C_R   0.425058 0.703918 0.059512 -0.078592
H1    H     H_    0.434968 0.739405 0.212534 0.169335
H2    H     H_    0.370728 0.767236 0.034160 0.219867
C14   C     C_R   0.521375 0.601441 0.199548 -0.102180
C15   C     C_R   0.556379 0.320212 0.840727 0.363451
C16   C     C_R   0.645896 0.335930 0.921828 0.423968
C17   C     C_R   0.646619 0.422714 0.974681 -0.087115
C18   C     C_R   0.547531 0.483526 0.959273 -0.017318
C19   C     C_R   0.473006 0.477776 0.868591 -0.045355
C20   C     C_R   0.522818 0.552089 0.028549 -0.050855
C21   C     C_R   0.444277 0.630542 0.994866 0.068067
C22   C     C_R   0.378550 0.630013 0.900370 0.454187
C23   C     C_R   0.386804 0.548967 0.841736 -0.184658
C24   C     C_R   0.561605 0.538331 0.133242 0.288406
C25   C     C_R   0.463199 0.689196 0.161437 -0.241345
C26   C     C_R   0.490072 0.403657 0.803217 -0.118673
H3    H     H_    0.726213 0.441374 0.026922 0.222672
H4    H     H_    0.326323 0.542488 0.773821 0.171847
C27   C     C_R   0.325271 0.095390 0.336357 0.160471
H5    H     H_    0.296198 0.885902 0.304582 0.184789
N1    N     N_R   0.432930 0.222190 0.444670 -0.220429
C28   C     C_R   0.664429 0.800013 0.622278 -0.208603
C29   C     C_R   0.724940 0.908379 0.626035 0.428137
C30   C     C_R   0.677702 0.991261 0.562973 0.493264
C31   C     C_R   0.558519 0.965795 0.508810 -0.159728
C32   C     C_R   0.513777 0.855997 0.496870 0.200247
C33   C     C_R   0.485682 0.044336 0.462974 -0.104624
C34   C     C_R   0.392466 0.016786 0.386229 -0.007442
C35   C     C_R   0.365075 0.909932 0.363760 -0.150694
C36   C     C_R   0.420619 0.829938 0.421637 -0.098859
C37   C     C_R   0.493728 0.145496 0.497748 0.313323
C38   C     C_R   0.349964 0.199522 0.365356 0.323734
N2    N     N_R   0.566370 0.776980 0.554790 -0.141970
H6    H     H_    0.703568 0.733708 0.665145 0.185307
H7    H     H_    0.391044 0.748766 0.404397 0.192693
N3    N     N_R   0.040353 0.318779 0.636136 0.267396
O9    O     O_R   0.940744 0.249899 0.678045 -0.207021
O10   O     O_R   0.156240 0.304991 0.663200 -0.349557
N4    N     N_R   0.626340 0.452179 0.177302 0.187900
O11   O     O_R   0.734250 0.475492 0.227746 -0.386198
O12   O     O_R   0.568050 0.350501 0.181375 -0.327376
O13   O     O_3   0.534338 0.227348 0.796175 -0.635520
H8    H     H_    0.554808 0.166688 0.846995 0.369569
O14   O     O_3   0.737953 0.272906 0.947825 -0.671814
H9    H     H_    0.750135 0.235826 0.889182 0.388181
N5    N     N_R   0.274725 0.276931 0.320743 0.262745
O15   O     O_R   0.302494 0.330555 0.229329 -0.283668
O16   O     O_R   0.159788 0.269282 0.356753 -0.334945
N6    N     N_R   0.228436 0.069176 0.259940 0.229326
O17   O     O_R   0.121003 0.000428 0.285748 -0.333983
O18   O     O_R   0.243476 0.119677 0.166129 -0.273014
N7    N     N_R   0.540638 0.158042 0.598991 0.260767
O19   O     O_R   0.638931 0.234761 0.613485 -0.247536
O20   O     O_R   0.499694 0.080566 0.674487 -0.336732
O21   O     O_3   0.866586 0.316801 0.432050 -0.653207
H10   H     H_    0.931387 0.272131 0.424294 0.396475
O22   O     O_3   0.757973 0.092568 0.546458 -0.616451
H11   H     H_    0.736265 0.129411 0.478123 0.355125
O23   O     O_3   0.835503 0.935123 0.683604 -0.634712
H12   H     H_    0.856590 0.867133 0.722330 0.346313
O24   O     O_3   0.082383 0.491486 0.307664 -0.671739
H13   H     H_    0.004956 0.488547 0.262522 0.401713
O25   O     O_3   0.953686 0.678485 0.366957 -0.680011
H14   H     H_    0.039272 0.719027 0.340176 0.368428
O26   O     O_3   0.134997 0.687958 0.563557 -0.690197
H15   H     H_    0.071281 0.735079 0.566231 0.377900
N8    N     N_R   0.917191 0.511309 0.695030 0.243277
O27   O     O_R   0.967833 0.592059 0.743337 -0.352042
O28   O     O_R   0.825300 0.434663 0.737816 -0.372684
O29   O     O_3   0.300094 0.704563 0.870018 -0.721790
H16   H     H_    0.261721 0.693087 0.801794 0.379866

loop_
_geom_bond_atom_site_label_1
_geom_bond_atom_site_label_2
_geom_bond_distance
_ccdc_geom_bond_type
C5    C8    1.532564 S    
O26   H15   0.991090 S    
C6    C11   1.534086 S    
C32   N2    1.359939 A    
C9    C10   1.534134 S    
O23   H12   0.991958 S    
C31   C33   1.426787 A    
C11   N8    1.455710 S    
O25   H14   0.991278 S    
Zn1   O7    2.006933 S    
N7    O20   1.301917 A    
C20   C24   1.419949 A    
C16   C17   1.388569 A    
C8    C9    1.533641 S    
O4    C2    1.301473 A    
O7    C4    1.304187 A    
C38   N5    1.428604 S    
C15   C26   1.401516 A    
N3    O10   1.299945 A    
C5    C6    1.533302 S    
C2    C12   1.418307 S    
C10   O26   1.398872 S    
C7    C10   1.544791 S    
C22   C23   1.395567 A    
N4    O12   1.302007 A    
O5    C3    1.316612 A    
N1    C37   1.361560 A    
C5    C12   1.539731 S    
C30   O22   1.375690 S    
C37   N7    1.427449 S    
C1    C26   1.472359 S    
N5    O15   1.300275 A    
C13   C21   1.403009 A    
Zn1   N1    2.073881 S    
N8    O28   1.298750 A    
O21   H10   0.989992 S    
H5    C35   1.082187 S    
C27   N6    1.434812 S    
O14   H9    0.990313 S    
C5    O21   1.394858 S    
C11   C12   1.535879 S    
C4    C7    1.416363 S    
O3    Zn1   1.998314 S    
Zn2   N2    2.061409 S    
C8    O24   1.397970 S    
O2    Zn2   1.920852 S    
N7    O19   1.298921 A    
C35   C36   1.385704 A    
C31   C32   1.404942 A    
C9    C12   1.537642 S    
O3    C2    1.298693 A    
C36   H7    1.068334 S    
N6    O18   1.300655 A    
C6    C7    1.538150 S    
C34   C35   1.399900 A    
N3    O9    1.300168 A    
C13   C25   1.384125 A    
O1    C1    1.322330 A    
C16   O14   1.380440 S    
C17   C18   1.411806 A    
C28   H6    1.082237 S    
N1    C38   1.365787 A    
O24   H13   0.990834 S    
Zn2   O8    1.998316 S    
C17   H3    1.078161 S    
C7    C8    1.537908 S    
C6    N3    1.458176 S    
C14   C24   1.403076 A    
O8    C4    1.294830 A    
C19   C23   1.406323 A    
C3    C14   1.454336 S    
C24   N4    1.439316 S    
C27   C34   1.405558 A    
C28   C29   1.397391 A    
H1    C25   1.083286 S    
Zn1   O5    1.920854 S    
C30   C31   1.426678 A    
O1    Zn1   1.969577 S    
Zn2   O6    1.969580 S    
C29   O23   1.380259 S    
C9    O25   1.397707 S    
O6    C3    1.310951 A    
O4    Zn2   2.006929 S    
C14   C25   1.394925 A    
C19   C26   1.410584 A    
C20   C21   1.429302 A    
C23   H4    1.084002 S    
N6    O17   1.301081 A    
O13   H8    0.991017 S    
C18   C20   1.419365 A    
C28   N2    1.355294 A    
C18   C19   1.409762 A    
C33   C37   1.411855 A    
O29   H16   0.992005 S    
C21   C22   1.403660 A    
O2    C1    1.314173 A    
C13   H2    1.083250 S    
N4    O11   1.301542 A    
C22   O29   1.383504 S    
C27   C38   1.400390 A    
C15   O13   1.369177 S    
O22   H11   0.989675 S    
C29   C30   1.397150 A    
C32   C36   1.398655 A    
C10   C11   1.534129 S    
N5    O16   1.299604 A    
C33   C34   1.417404 A    
C15   C16   1.410648 A    
N8    O27   1.300178 A    
