data_mof_unit_53973.cif
_audit_creation_date              2012-12-11T17:01:29-0500
_audit_creation_method            fapswitch 2.2
_symmetry_space_group_name_H-M    P1
_symmetry_Int_Tables_number       1
_space_group_crystal_system       triclinic
_cell_length_a                    14.958151
_cell_length_b                    14.857378
_cell_length_c                    14.893044
_cell_angle_alpha                 109.896006
_cell_angle_beta                  109.264204
_cell_angle_gamma                 109.419796
_cell_volume                      2542.58880173

loop_
_atom_site_label
_atom_site_type_symbol
_atom_type_description
_atom_site_fract_x
_atom_site_fract_y
_atom_site_fract_z
_atom_type_partial_charge
C1    C     C_R   0.929601 0.744488 0.022910 -0.147540
C2    C     C_R   0.209844 0.806005 0.300591 -0.144318
C3    C     C_R   0.974163 0.408990 0.223968 -0.136142
C4    C     C_R   0.779242 0.253886 0.685839 -0.148059
C5    C     C_R   0.314463 0.592827 0.067822 -0.138220
C6    C     C_R   0.052614 0.503027 0.326757 0.063121
C7    C     C_R   0.325748 0.500619 0.052809 -0.005931
C8    C     C_R   0.302752 0.869131 0.301553 0.082286
C9    C     C_R   0.934366 0.131046 0.934097 0.078385
C10   C     C_3   0.535261 0.495964 0.966366 -0.392940
C11   C     C_3   0.433489 0.498272 0.963059 -0.390686
C12   C     C_R   0.675790 0.224357 0.672921 0.071561
C13   C     C_3   0.533791 0.399291 0.077225 -0.406884
C14   C     C_3   0.634802 0.607151 0.174577 -0.409938
C15   C     C_3   0.603606 0.500670 0.073292 0.398875
C16   C     C_R   0.095748 0.592175 0.792744 -0.077995
C17   C     C_3   0.427738 0.500850 0.065987 0.390849
C18   C     C_3   0.428747 0.398476 0.071206 -0.396209
C19   C     C_3   0.530699 0.605882 0.171924 -0.398702
C20   C     C_R   0.573711 0.124177 0.468026 0.161160
C21   C     C_R   0.574910 0.168920 0.568106 0.033579
C22   C     C_R   0.473547 0.140433 0.564461 -0.202808
C23   C     C_R   0.064949 0.501376 0.697986 0.054417
C24   C     C_R   0.377865 0.048339 0.469808 -0.204768
C25   C     C_R   0.383970 0.986161 0.378906 0.032139
C26   C     C_R   0.479257 0.034209 0.374520 0.162189
C27   C     C_3   0.540802 0.984491 0.335575 -0.525857
C28   C     C_R   0.700300 0.408456 0.004886 -0.151347
C29   C     C_3   0.643974 0.082296 0.437925 -0.522063
C30   C     C_R   0.148948 0.608439 0.530776 0.093268
C31   C     C_R   0.100301 0.508863 0.432502 0.075112
C32   C     C_R   0.077816 0.411409 0.437677 -0.206850
C33   C     C_R   0.078012 0.409977 0.531334 -0.188544
C34   C     C_R   0.700145 0.500311 0.069189 0.000315
C35   C     C_R   0.100617 0.505991 0.619246 0.037442
C36   C     C_R   0.145713 0.605803 0.621203 -0.055774
C37   C     C_3   0.129177 0.704151 0.654288 0.455048
C38   C     C_3   0.134542 0.708361 0.555973 -0.670371
C39   C     C_R   0.841199 0.872786 0.944763 0.164521
C40   C     C_R   0.003784 0.408881 0.698798 -0.173858
C41   C     C_R   0.897555 0.829052 0.902433 0.032997
C42   C     C_R   0.924441 0.859270 0.830973 -0.218152
C43   C     C_R   0.923091 0.952185 0.828449 -0.204389
C44   C     C_R   0.893601 0.013477 0.896418 0.033437
C45   C     C_R   0.069209 0.593599 0.313527 -0.142237
C46   C     C_R   0.838828 0.963564 0.941243 0.162534
C47   C     C_3   0.846544 0.011069 0.051522 -0.524649
C48   C     C_3   0.849962 0.912535 0.056019 -0.525991
C49   C     C_R   0.791789 0.591824 0.097599 -0.155557
C50   C     C_R   0.685371 0.249443 0.775823 -0.126451
C51   C     C_R   0.025048 0.749683 0.934576 -0.134347
C52   C     C_R   0.946621 0.773853 0.948694 0.075190
C53   C     C_3   0.931820 0.592193 0.560455 0.235541
C54   C     C_3   0.847772 0.624899 0.515601 -0.288214
C55   C     C_3   0.740913 0.524436 0.415610 -1.060195
C56   C     C_R   0.222927 0.407843 0.975690 -0.135230
C57   C     C_R   0.298728 0.804250 0.207240 -0.155931
C58   C     C_R   0.904531 0.195649 0.994774 -0.158961
C59   C     C_R   0.997234 0.194694 0.905056 -0.135210
H1    H     H_    0.870462 0.746062 0.048325 0.108055
H2    H     H_    0.584435 0.567418 0.961481 0.155738
H3    H     H_    0.435118 0.572404 0.959359 0.156216
H4    H     H_    0.803174 0.251036 0.624761 0.110540
H5    H     H_    0.359960 0.424056 0.886086 0.155471
H6    H     H_    0.509459 0.320489 0.006727 0.145700
H7    H     H_    0.357587 0.320254 0.996923 0.147469
H8    H     H_    0.686684 0.613501 0.252344 0.165635
H9    H     H_    0.682205 0.682177 0.173737 0.148551
H10   H     H_    0.534481 0.682786 0.174925 0.147267
H11   H     H_    0.528890 0.607211 0.246449 0.158885
H12   H     H_    0.201539 0.322123 0.938759 0.092323
H13   H     H_    0.581920 0.402339 0.154367 0.165252
H14   H     H_    0.424019 0.399025 0.144390 0.160167
H15   H     H_    0.469235 0.178870 0.637805 0.123566
H16   H     H_    0.158788 0.676236 0.828275 0.084653
H17   H     H_    0.303542 0.019150 0.473857 0.124272
H18   H     H_    0.524044 0.905374 0.334804 0.200028
H19   H     H_    0.535359 0.982994 0.258753 0.187529
H20   H     H_    0.684900 0.057782 0.494635 0.200585
H21   H     H_    0.698122 0.136684 0.419920 0.189623
H22   H     H_    0.047223 0.333863 0.365710 0.124277
H23   H     H_    0.345386 0.832064 0.170723 0.098997
H24   H     H_    0.048813 0.331666 0.528958 0.121611
H25   H     H_    0.201037 0.776717 0.733454 0.045015
H26   H     H_    0.057728 0.693902 0.493085 0.204279
H27   H     H_    0.645307 0.322939 0.974780 0.085029
H28   H     H_    0.209292 0.782493 0.580340 0.173579
H29   H     H_    0.960344 0.821837 0.789133 0.160666
H30   H     H_    0.957919 0.982636 0.784688 0.127952
H31   H     H_    0.924256 0.089994 0.115729 0.199393
H32   H     H_    0.770802 0.011896 0.045664 0.187974
H33   H     H_    0.929972 0.936759 0.122905 0.200899
H34   H     H_    0.840163 0.167546 0.013350 0.101724
H35   H     H_    0.776576 0.857081 0.053559 0.187282
H36   H     H_    0.980015 0.324483 0.645576 0.093591
H37   H     H_    0.822562 0.677316 0.154756 0.087153
H38   H     H_    0.621259 0.238093 0.796400 0.090145
H39   H     H_    0.057279 0.760917 0.881773 0.126104
H40   H     H_    0.128340 0.679104 0.374003 0.120786
H41   H     H_    0.898223 0.534576 0.587637 0.119244
H42   H     H_    0.942569 0.546124 0.492339 0.106469
H43   H     H_    0.830747 0.664602 0.581063 0.207630
H44   H     H_    0.881447 0.685566 0.491388 0.195699
H45   H     H_    0.020373 0.165528 0.844240 0.083413
H46   H     H_    0.755222 0.486666 0.347154 0.267644
H47   H     H_    0.680519 0.550333 0.387237 0.272727
H48   H     H_    0.706313 0.461883 0.437437 0.274353
H49   H     H_    0.178474 0.835904 0.352867 0.085668
H50   H     H_    0.941831 0.323629 0.203401 0.094526
H51   H     H_    0.377597 0.678675 0.116249 0.091137
H52   H     H_    0.510471 0.419118 0.892727 0.155257
N1    N     N_R   0.995640 0.706130 0.053910 -0.039365
N2    N     N_R   0.054010 0.556790 0.847890 -0.046421
N3    N     N_R   0.789940 0.443190 0.997130 -0.031921
N4    N     N_R   0.997630 0.443170 0.791110 -0.038394
N5    N     N_R   0.846320 0.556810 0.053910 -0.032451
N6    N     N_R   0.791080 0.293860 0.847890 -0.040140
N7    N     N_R   0.052880 0.706130 0.997130 -0.042519
N8    N     N_R   0.002370 0.556830 0.208890 -0.039852
N9    N     N_R   0.153680 0.443190 0.946090 -0.035683
N10   N     N_R   0.208920 0.706140 0.152110 -0.035980
N11   N     N_R   0.947120 0.293870 0.002870 -0.037018
N12   N     N_R   0.004360 0.293870 0.946090 -0.036678
N13   N     N_R   0.151690 0.706140 0.208890 -0.038049
N14   N     N_R   0.945990 0.443210 0.152110 -0.037375
N15   N     N_R   0.210060 0.556810 0.002870 -0.037739
N16   N     N_R   0.848310 0.293860 0.791110 -0.039484
Ni1   Ni    Ni4+2 0.999010 0.630300 0.130220 0.207839
Ni2   Ni    Ni4+2 0.000990 0.369700 0.869780 0.206495
Ni3   Ni    Ni4+2 0.130280 0.630280 0.000000 0.204963
Ni4   Ni    Ni4+2 0.869720 0.369720 0.000000 0.209201
O1    O     O_3   0.029206 0.688272 0.653672 -0.669829

loop_
_geom_bond_atom_site_label_1
_geom_bond_atom_site_label_2
_ccdc_geom_bond_type
C6    C45   A    
C27   C29   S    
C16   H16   S    
N3    Ni4   S    
C35   C36   A    
N10   Ni3   S    
C11   H3    S    
C16   N2    A    
C39   C41   A    
C13   H6    S    
C53   C54   S    
C32   H22   S    
C4    H4    S    
C26   C27   S    
C43   H30   S    
C48   H35   S    
C13   C18   S    
C55   H46   S    
C59   H45   S    
C50   H38   S    
C36   C37   S    
C58   H34   S    
C10   C15   S    
C1    N1    A    
C30   C31   A    
N9    N15   A    
C40   N4    A    
C5    H51   S    
N15   Ni3   S    
C23   C40   A    
C50   N6    A    
C51   N7    A    
C30   C38   S    
C9    C58   A    
C41   C42   A    
C9    C44   S    
N10   N13   A    
C17   C19   S    
C46   C47   S    
C47   C48   S    
C53   H42   S    
C7    C17   S    
C5    N15   A    
C14   H8    S    
C37   H25   S    
C4    C12   A    
C41   C52   S    
N5    Ni1   S    
N13   Ni1   S    
N8    Ni1   S    
C3    C6    A    
C51   H39   S    
C6    C31   S    
C28   C34   A    
C21   C22   A    
N12   Ni2   S    
C8    C25   S    
C56   N9    A    
C7    C56   A    
N6    Ni4   S    
C44   C46   A    
C20   C29   S    
C53   H41   S    
C59   N12   A    
C58   N11   A    
N2    Ni3   S    
C55   H47   S    
C51   C52   A    
C54   H44   S    
C24   C25   A    
C11   H5    S    
C45   H40   S    
C1    H1    S    
C5    C7    A    
C24   H17   S    
C38   H26   S    
C25   C26   A    
C27   H19   S    
C12   C21   S    
N9    Ni2   S    
C55   H48   S    
C9    C59   A    
C43   C44   A    
N16   Ni2   S    
C37   C38   S    
N7    Ni3   S    
C8    C57   A    
C33   H24   S    
N14   Ni4   S    
C12   C50   A    
C31   C32   A    
C29   H20   S    
C56   H12   S    
C17   C18   S    
C10   H52   S    
C53   O1    S    
N6    N16   A    
C28   N3    A    
C39   C46   A    
N8    N14   A    
C16   C23   A    
C23   C35   S    
C13   C15   S    
C28   H27   S    
C47   H31   S    
C22   C24   A    
C19   H10   S    
C10   H2    S    
C42   H29   S    
C42   C43   A    
C22   H15   S    
C40   H36   S    
N11   Ni4   S    
N4    Ni2   S    
C54   C55   S    
C11   C17   S    
C34   C49   A    
C15   C34   S    
C4    N16   A    
C14   C15   S    
C47   H32   S    
C14   C19   S    
C54   H43   S    
C2    C8    A    
C27   H18   S    
N3    N5    A    
C3    N14   A    
C13   H13   S    
C2    N13   A    
C18   H14   S    
C37   O1    S    
C30   C36   A    
C38   H28   S    
C32   C33   A    
N1    N7    A    
C45   N8    A    
C29   H21   S    
C20   C26   A    
C3    H50   S    
C2    H49   S    
C33   C35   A    
C49   H37   S    
C18   H7    S    
C1    C52   A    
N1    Ni1   S    
C10   C11   S    
C57   N10   A    
C49   N5    A    
C20   C21   A    
C48   H33   S    
C14   H9    S    
C57   H23   S    
C19   H11   S    
N11   N12   A    
C39   C48   S    
N2    N4    A    
