data_mof_unit_46020.cif
_audit_creation_date              2012-12-10T17:35:35-0500
_audit_creation_method            fapswitch 2.2
_symmetry_space_group_name_H-M    P1
_symmetry_Int_Tables_number       1
_space_group_crystal_system       triclinic
_cell_length_a                    10.714493
_cell_length_b                    12.321058
_cell_length_c                    13.190232
_cell_angle_alpha                 116.67108
_cell_angle_beta                  77.522661
_cell_angle_gamma                 101.345155
_cell_volume                      1509.30652288

loop_
_atom_site_label
_atom_site_type_symbol
_atom_type_description
_atom_site_fract_x
_atom_site_fract_y
_atom_site_fract_z
_atom_type_partial_charge
C1    C     C_R   0.511551 0.854869 0.286583 0.761921
C2    C     C_3   0.121657 0.000677 0.501633 0.085381
C3    C     C_3   0.075489 0.124112 0.594628 0.229105
C4    C     C_3   0.040116 0.894013 0.527303 -0.342520
C5    C     C_R   0.323385 0.276524 0.020101 -0.188293
C6    C     C_R   0.453215 0.227996 0.834416 -0.043819
C7    C     C_R   0.598873 0.814967 0.085671 -0.190543
C8    C     C_R   0.625080 0.735888 0.970858 -0.146926
C9    C     C_R   0.578483 0.612721 0.932930 -0.177742
C10   C     C_R   0.499687 0.566524 0.009353 0.082857
C11   C     C_R   0.460758 0.650430 0.123501 0.082882
C12   C     C_R   0.739792 0.999556 0.499970 0.817474
C13   C     C_R   0.457017 0.440058 0.975921 0.075901
C14   C     C_R   0.366622 0.401081 0.052447 0.164693
C15   C     C_R   0.318043 0.486955 0.159259 -0.239338
C16   C     C_R   0.362944 0.609894 0.193766 -0.201659
C17   C     C_R   0.502367 0.350729 0.868810 -0.243065
C18   C     C_R   0.365747 0.190296 0.911071 -0.167121
C19   C     C_R   0.519755 0.773059 0.163562 -0.103376
C20   C     C_R   0.697441 0.342515 0.322032 -0.301220
C21   C     C_R   0.324387 0.759694 0.644205 -0.029084
C22   C     C_R   0.275439 0.658083 0.666313 -0.249817
C23   C     C_R   0.480744 0.145102 0.713385 0.850953
C24   C     C_R   0.330782 0.548885 0.603811 0.400416
C25   C     C_R   0.447285 0.545429 0.526321 -0.120786
C26   C     C_R   0.489548 0.650714 0.502685 0.246160
C27   C     C_R   0.522357 0.442993 0.469881 -0.034570
C28   C     C_R   0.625802 0.442419 0.381987 0.187850
C29   C     C_R   0.659535 0.542643 0.355926 -0.286218
C30   C     C_R   0.595314 0.645414 0.416941 -0.164566
C31   C     C_R   0.504076 0.342828 0.499285 -0.000519
C32   C     C_R   0.668955 0.244019 0.350666 0.070495
C33   C     C_R   0.260077 0.000220 0.500237 0.818356
C34   C     C_3   0.955408 0.983065 0.382710 -0.509650
C35   C     C_3   0.099378 0.983404 0.382743 -0.500065
C36   C     C_3   0.929842 0.123618 0.594781 0.238663
C37   C     C_3   0.897376 0.893423 0.526967 -0.344392
C38   C     C_3   0.877554 0.999947 0.501565 0.091225
Cu1   Cu    Cu3+1 0.529690 0.098270 0.475420 0.936133
Cu2   Cu    Cu3+1 0.470310 0.901730 0.524580 0.934120
H1    H     H_    0.943500 0.057888 0.361418 0.180599
H2    H     H_    0.053653 0.902932 0.612170 0.209937
H3    H     H_    0.326265 0.095347 0.885208 0.150533
H4    H     H_    0.244961 0.459015 0.216605 0.141095
H5    H     H_    0.254030 0.246306 0.077987 0.131391
H6    H     H_    0.575300 0.373979 0.809189 0.145108
H7    H     H_    0.643359 0.908707 0.113990 0.152287
H8    H     H_    0.603485 0.556960 0.842736 0.130977
H9    H     H_    0.685308 0.769515 0.911319 0.145069
H10   H     H_    0.918976 0.895289 0.314804 0.184383
H11   H     H_    0.317099 0.672626 0.275090 0.168730
H12   H     H_    0.722653 0.165853 0.303781 0.117369
H13   H     H_    0.739388 0.543291 0.289658 0.147180
H14   H     H_    0.775318 0.340865 0.253663 0.137869
H15   H     H_    0.436806 0.340785 0.572079 0.181581
H16   H     H_    0.276620 0.841734 0.689676 0.150768
H17   H     H_    0.188686 0.661820 0.727251 0.164461
H18   H     H_    0.631999 0.718830 0.393226 0.199924
H19   H     H_    0.132580 0.895717 0.314973 0.186368
H20   H     H_    0.156139 0.058318 0.361425 0.183978
H21   H     H_    0.919610 0.198738 0.572712 0.054648
H22   H     H_    0.130805 0.199073 0.572103 0.074108
H23   H     H_    0.842258 0.901685 0.611491 0.218849
H24   H     H_    0.861315 0.804149 0.460600 0.152804
H25   H     H_    0.071742 0.804750 0.461424 0.156575
N1    N     N_R   0.574690 0.246280 0.438200 -0.186323
N2    N     N_R   0.426100 0.754320 0.561190 -0.201005
O1    O     O_R   0.537340 0.972510 0.318130 -0.582858
O2    O     O_R   0.487200 0.806530 0.359650 -0.603153
O3    O     O_R   0.707380 0.082980 0.479220 -0.595978
O4    O     O_R   0.657240 0.917000 0.520740 -0.599771
O5    O     O_R   0.512800 0.193470 0.640350 -0.587069
O6    O     O_R   0.462660 0.027490 0.681870 -0.577236
O7    O     O_R   0.342760 0.083000 0.479260 -0.594465
O8    O     O_R   0.292620 0.917020 0.520780 -0.596201
O9    O     O_3   0.857760 0.142588 0.702979 -0.710944
H26   H     H_    0.866984 0.232074 0.751424 0.320530
O10   O     O_3   0.099395 0.143762 0.702799 -0.713665
H27   H     H_    0.104708 0.233299 0.750968 0.333070
O11   O     O_3   0.260570 0.446634 0.612831 -0.764490
H28   H     H_    0.262204 0.380549 0.533911 0.303671

loop_
_geom_bond_atom_site_label_1
_geom_bond_atom_site_label_2
_ccdc_geom_bond_type
C2    C35   S    
C31   N1    A    
Cu2   O4    S    
Cu1   O1    S    
C16   H11   S    
C22   H17   S    
C7    C8    A    
C11   C19   A    
C29   C30   A    
C29   H13   S    
C26   N2    A    
C28   C29   A    
C15   H4    S    
C4    H25   S    
C15   C16   A    
C1    O1    A    
Cu2   O6    S    
C35   H19   S    
C34   C35   S    
Cu1   O7    S    
C32   H12   S    
C36   O9    S    
C33   O8    A    
C8    C9    A    
Cu2   N2    S    
Cu1   O5    S    
C9    C10   A    
C13   C14   A    
C21   N2    A    
C34   H1    S    
C23   O6    A    
C37   H23   S    
C24   O11   S    
O9    H26   S    
C6    C18   A    
C34   H10   S    
C1    C19   S    
Cu2   O2    S    
C27   C31   A    
C24   C25   A    
C20   H14   S    
Cu1   Cu2   S    
O10   H27   S    
C5    C18   A    
C20   C28   A    
C25   C26   A    
C5    H5    S    
C1    O2    A    
C35   H20   S    
C7    H7    S    
C2    C4    S    
C37   C38   S    
C11   C16   A    
C17   H6    S    
C5    C14   A    
C2    C33   S    
C12   O4    A    
C26   C30   A    
C7    C19   A    
Cu1   N1    S    
C22   C24   A    
C36   H21   S    
C37   H24   S    
C32   N1    A    
C20   C32   A    
C3    H22   S    
C6    C17   A    
C12   O3    A    
C34   C38   S    
C23   O5    A    
O11   H28   S    
C10   C13   A    
C21   H16   S    
C25   C27   A    
Cu2   O8    S    
C13   C17   A    
C36   C38   S    
C2    C3    S    
C18   H3    S    
C4    H2    S    
C3    C36   S    
C6    C23   S    
C30   H18   S    
Cu1   O3    S    
C12   C38   S    
C10   C11   A    
C33   O7    A    
C4    C37   S    
C9    H8    S    
C27   C28   A    
C14   C15   A    
C31   H15   S    
C21   C22   A    
C3    O10   S    
C8    H9    S    
