data_mof_unit_6347.cif
_audit_creation_date              2012-12-10T18:57:11-0500
_audit_creation_method            fapswitch 2.2
_symmetry_space_group_name_H-M    P1
_symmetry_Int_Tables_number       1
_space_group_crystal_system       triclinic
_cell_length_a                    8.727681
_cell_length_b                    10.860797
_cell_length_c                    9.60774
_cell_angle_alpha                 91.020325
_cell_angle_beta                  97.748627
_cell_angle_gamma                 91.454847
_cell_volume                      901.899835246

loop_
_atom_site_label
_atom_site_type_symbol
_atom_type_description
_atom_site_fract_x
_atom_site_fract_y
_atom_site_fract_z
_atom_type_partial_charge
C1    C     C_R   0.495034 0.262661 0.498252 0.797572
C2    C     C_R   0.474593 0.933287 0.369656 -0.168345
C3    C     C_R   0.483818 0.871222 0.498171 -0.155505
C4    C     C_R   0.467151 0.939727 0.619641 0.051159
C5    C     C_3   0.561344 0.946432 0.762664 0.916632
C6    C     C_3   0.552699 0.085565 0.759590 -0.487423
C7    C     C_R   0.628368 0.538213 0.089941 0.156319
C8    C     C_R   0.381010 0.446545 0.058058 0.455193
C9    C     C_R   0.380521 0.447169 0.910723 0.458666
C10   C     C_R   0.629569 0.535418 0.943163 0.061020
C11   C     C_3   0.712730 0.656259 0.947015 -0.312130
C12   C     C_R   0.204115 0.498503 0.464035 0.887551
C13   C     C_3   0.705951 0.662762 0.104044 0.203808
C14   C     C_R   0.498161 0.737793 0.500529 0.815630
C15   C     C_R   0.795887 0.500092 0.536010 0.872743
C16   C     C_2   0.038187 0.494552 0.444592 -0.336148
C17   C     C_2   0.961864 0.501479 0.555763 -0.356575
C18   C     C_R   0.463224 0.066764 0.617047 -0.040727
C19   C     C_R   0.477052 0.129630 0.494082 -0.071365
C20   C     C_R   0.471496 0.061773 0.367616 -0.182370
Cu1   Cu    Cu3+1 0.499990 0.499980 0.640670 0.982323
Cu2   Cu    Cu3+1 0.500010 0.500020 0.359330 0.967947
H1    H     H_    0.978609 0.485083 0.338034 0.228171
H2    H     H_    0.831214 0.648054 0.917938 0.228850
H3    H     H_    0.640454 0.723742 0.887699 0.258321
H4    H     H_    0.631957 0.737299 0.136699 0.129872
H5    H     H_    0.021473 0.509523 0.662534 0.223692
H6    H     H_    0.473239 0.107474 0.268528 0.174257
H7    H     H_    0.477063 0.883586 0.271339 0.184508
H8    H     H_    0.480498 0.124477 0.835658 0.210925
H9    H     H_    0.666031 0.134356 0.757738 0.183127
N1    N     N_R   0.500980 0.500930 0.148050 -0.299381
N2    N     N_R   0.500990 0.500890 0.852140 -0.265652
O1    O     O_R   0.500000 0.319640 0.618810 -0.604224
O2    O     O_R   0.500020 0.319680 0.381230 -0.616383
O3    O     O_R   0.274830 0.499980 0.591380 -0.566010
O4    O     O_R   0.274850 0.500020 0.353800 -0.554743
O5    O     O_R   0.499980 0.680320 0.618770 -0.550632
O6    O     O_R   0.500000 0.680360 0.381190 -0.598438
O7    O     O_R   0.725150 0.499980 0.646200 -0.571372
O8    O     O_R   0.725170 0.500020 0.408620 -0.571764
O9    O     O_3   0.257718 0.388101 0.830038 -0.689644
H10   H     H_    0.300092 0.339756 0.757119 0.351586
O10   O     O_3   0.853819 0.660148 0.181220 -0.692401
H11   H     H_    0.843624 0.693389 0.276278 0.332554
F1    F     F_    0.483135 0.896479 0.865356 -0.670477
O11   O     O_3   0.712901 0.903701 0.766507 -0.745335
H12   H     H_    0.759052 0.939218 0.686569 0.294682
O12   O     O_3   0.259585 0.385939 0.106808 -0.668173
H13   H     H_    0.303177 0.339579 0.189421 0.348110

loop_
_geom_bond_atom_site_label_1
_geom_bond_atom_site_label_2
_ccdc_geom_bond_type
C8    C9    A    
C7    C10   A    
C15   O7    A    
Cu1   O1    S    
C12   O3    A    
C11   C13   S    
C5    F1    S    
C19   C20   A    
C4    C18   A    
C16   H1    S    
C2    C3    A    
Cu1   O3    S    
Cu1   Cu2   S    
C9    N2    A    
Cu2   O2    S    
C5    O11   S    
C15   O8    A    
C9    O9    S    
C3    C14   S    
Cu2   N1    S    
C2    H7    S    
Cu2   O6    S    
C6    H8    S    
C1    O1    A    
C6    H9    S    
C10   N2    A    
C5    C6    S    
C6    C18   S    
C13   H4    S    
C1    C19   S    
Cu2   O8    S    
C14   O5    A    
C10   C11   S    
C11   H3    S    
C2    C20   A    
C3    C4    A    
C17   H5    S    
O11   H12   S    
C11   H2    S    
C7    C13   S    
Cu1   N2    S    
O10   H11   S    
C1    O2    A    
C15   C17   S    
C18   C19   A    
O9    H10   S    
C12   O4    A    
O12   H13   S    
C8    N1    A    
C4    C5    S    
C7    N1    A    
C20   H6    S    
C14   O6    A    
Cu2   O4    S    
C8    O12   S    
C13   O10   S    
Cu1   O5    S    
C12   C16   S    
C16   C17   D    
Cu1   O7    S    
