data_mof_unit_18016.cif
_audit_creation_date              2012-12-10T17:08:19-0500
_audit_creation_method            fapswitch 2.2
_symmetry_space_group_name_H-M    P1
_symmetry_Int_Tables_number       1
_space_group_crystal_system       triclinic
_cell_length_a                    18.387462
_cell_length_b                    18.391484
_cell_length_c                    34.310245
_cell_angle_alpha                 89.999634
_cell_angle_beta                  89.999233
_cell_angle_gamma                 90.034962
_cell_volume                      11602.7864799

loop_
_atom_site_label
_atom_site_type_symbol
_atom_type_description
_atom_site_fract_x
_atom_site_fract_y
_atom_site_fract_z
_atom_type_partial_charge
C1    C     C_R   0.000000 0.500001 0.894176 0.858278
C2    C     C_R   0.500000 0.000000 0.894185 0.872119
C3    C     C_R   0.500000 1.000000 0.394236 0.815710
C4    C     C_R   1.000000 0.500000 0.394184 0.874856
C5    C     C_R   0.499999 0.000000 0.851706 -0.005395
C6    C     C_R   0.000000 0.500005 0.851687 -0.038547
C7    C     C_R   0.000001 0.500000 0.351704 -0.005389
C8    C     C_R   0.500001 1.000000 0.351846 -0.030916
C9    C     C_R   0.514169 0.065106 0.790813 0.092630
C10   C     C_R   0.933985 0.509005 0.790792 0.102431
C11   C     C_R   0.485834 0.934891 0.790814 0.092669
C12   C     C_R   0.066015 0.491004 0.790791 0.102489
C13   C     C_R   0.013575 0.565244 0.290811 0.090309
C14   C     C_R   0.485643 0.064996 0.290872 0.121660
C15   C     C_R   0.986436 0.434751 0.290812 0.090313
C16   C     C_R   0.514357 0.935003 0.290873 0.121670
C17   C     C_R   0.500002 0.999998 0.770415 0.062627
C18   C     C_R   1.000000 0.500004 0.770399 0.039975
C19   C     C_R   0.000005 0.499997 0.270415 0.061464
C20   C     C_R   0.500000 0.999999 0.270401 0.025710
C21   C     C_R   0.528586 0.129427 0.770315 -0.182038
C22   C     C_R   0.868727 0.518325 0.770300 -0.156398
C23   C     C_R   0.471421 0.870568 0.770318 -0.182076
C24   C     C_R   0.131272 0.481682 0.770298 -0.156267
C25   C     C_R   0.027368 0.629711 0.270315 -0.178979
C26   C     C_R   0.470115 0.128883 0.270203 -0.139420
C27   C     C_R   0.972651 0.370281 0.270318 -0.178962
C28   C     C_R   0.529884 0.871115 0.270205 -0.139427
C29   C     C_R   0.027524 0.629678 0.229686 -0.203697
C30   C     C_R   0.466961 0.128182 0.229525 -0.217843
C31   C     C_R   0.972495 0.370313 0.229689 -0.203708
C32   C     C_R   0.533037 0.871816 0.229526 -0.217840
C33   C     C_R   0.528769 0.129385 0.729687 -0.206139
C34   C     C_R   0.868785 0.518728 0.729678 -0.216804
C35   C     C_R   0.471241 0.870608 0.729689 -0.206140
C36   C     C_R   0.131213 0.481274 0.729676 -0.216829
C37   C     C_R   0.013835 0.565188 0.209184 0.111366
C38   C     C_R   0.481862 0.064063 0.208941 0.124787
C39   C     C_R   0.986176 0.434805 0.209185 0.111362
C40   C     C_R   0.518136 0.935935 0.208941 0.124796
C41   C     C_R   0.514467 0.065038 0.709183 0.113111
C42   C     C_R   0.934065 0.509559 0.709183 0.114832
C43   C     C_R   0.485540 0.934955 0.709184 0.113126
C44   C     C_R   0.065934 0.490441 0.709183 0.114829
C45   C     C_R   0.000005 0.499997 0.229581 0.070947
C46   C     C_R   0.499999 0.999999 0.229423 0.069203
C47   C     C_R   0.500003 0.999997 0.729581 0.070939
C48   C     C_R   1.000000 0.500001 0.729575 0.076383
C49   C     C_R   0.013796 0.564703 0.168603 -0.270581
C50   C     C_R   0.479311 0.062718 0.168233 -0.264927
C51   C     C_R   0.986210 0.435293 0.168604 -0.270601
C52   C     C_R   0.520688 0.937280 0.168233 -0.264944
C53   C     C_R   0.514440 0.064553 0.668601 -0.271508
C54   C     C_R   0.934587 0.509822 0.668616 -0.271307
C55   C     C_R   0.485566 0.935442 0.668602 -0.271506
C56   C     C_R   0.065411 0.490175 0.668615 -0.271299
C57   C     C_R   0.000001 0.499999 0.148287 -0.036707
C58   C     C_R   0.499999 0.999999 0.148050 -0.003104
C59   C     C_R   0.500002 0.999998 0.648284 -0.036983
C60   C     C_R   0.999999 0.499998 0.648291 -0.036120
C61   C     C_R   1.000000 0.500000 0.105805 0.814024
C62   C     C_R   0.500000 1.000000 0.105722 0.799840
C63   C     C_R   0.500000 1.000000 0.605804 0.815101
C64   C     C_R   1.000000 0.499999 0.605809 0.813394
C65   C     C_R   0.860072 0.640129 0.000246 0.790813
C66   C     C_R   0.359838 0.860056 0.000265 0.797161
C67   C     C_R   0.139927 0.359869 0.000244 0.790823
C68   C     C_R   0.640161 0.139945 0.000265 0.797183
C69   C     C_R   0.139880 0.639883 0.999887 0.780815
C70   C     C_R   0.639862 0.860023 0.999948 0.786566
C71   C     C_R   0.860121 0.360115 0.999887 0.780812
C72   C     C_R   0.360139 0.139978 0.999948 0.786580
C73   C     C_R   0.360283 0.140463 0.499972 0.789585
C74   C     C_R   0.859775 0.360170 0.500171 0.797187
C75   C     C_R   0.639717 0.859537 0.499972 0.789592
C76   C     C_R   0.140225 0.639830 0.500171 0.797184
C77   C     C_R   0.640027 0.139785 0.499992 0.778633
C78   C     C_R   0.139340 0.359654 0.500382 0.786078
C79   C     C_R   0.359973 0.860215 0.499992 0.778631
C80   C     C_R   0.860659 0.640346 0.500382 0.786086
C81   C     C_R   0.175613 0.717531 0.929772 -0.215336
C82   C     C_R   0.281707 0.175212 0.929948 -0.220539
C83   C     C_R   0.824358 0.282502 0.929765 -0.215261
C84   C     C_R   0.718309 0.824796 0.929949 -0.220584
C85   C     C_R   0.824226 0.717603 0.929954 -0.218128
C86   C     C_R   0.715772 0.177900 0.929411 -0.219549
C87   C     C_R   0.175800 0.282417 0.929949 -0.218161
C88   C     C_R   0.284182 0.822153 0.929418 -0.219459
C89   C     C_R   0.675266 0.217837 0.429968 -0.212693
C90   C     C_R   0.782071 0.672886 0.430867 -0.217825
C91   C     C_R   0.324743 0.782161 0.429969 -0.212693
C92   C     C_R   0.217933 0.327119 0.430868 -0.217819
C93   C     C_R   0.320357 0.216547 0.429148 -0.221293
C94   C     C_R   0.216237 0.677504 0.429525 -0.219383
C95   C     C_R   0.679648 0.783459 0.429148 -0.221297
C96   C     C_R   0.783769 0.322498 0.429525 -0.219389
C97   C     C_R   0.192631 0.752828 0.894736 -0.054050
C98   C     C_R   0.246323 0.192291 0.894940 -0.054207
C99   C     C_R   0.807288 0.247261 0.894718 -0.054180
C100  C     C_R   0.753705 0.807725 0.894944 -0.054194
C101  C     C_R   0.808643 0.754299 0.895127 -0.051055
C102  C     C_R   0.750703 0.195402 0.894340 -0.051548
C103  C     C_R   0.191393 0.245726 0.895123 -0.051005
C104  C     C_R   0.249201 0.804704 0.894354 -0.051765
C105  C     C_R   0.692080 0.253265 0.394942 -0.043412
C106  C     C_R   0.748676 0.690014 0.395482 -0.057647
C107  C     C_R   0.307933 0.746734 0.394943 -0.043406
C108  C     C_R   0.251335 0.309997 0.395483 -0.057656
C109  C     C_R   0.303796 0.254387 0.394743 -0.026662
C110  C     C_R   0.251432 0.694809 0.394501 -0.052749
C111  C     C_R   0.696217 0.745626 0.394742 -0.026671
C112  C     C_R   0.748580 0.305192 0.394501 -0.052738
C113  C     C_R   0.268007 0.785823 0.964844 0.050557
C114  C     C_R   0.213634 0.267623 0.965073 0.053406
C115  C     C_R   0.731976 0.214197 0.964842 0.050605
C116  C     C_R   0.786377 0.732385 0.965075 0.053387
C117  C     C_R   0.732792 0.786897 0.965092 0.054168
C118  C     C_R   0.786408 0.267918 0.964870 0.055155
C119  C     C_R   0.267216 0.213109 0.965091 0.054140
C120  C     C_R   0.213581 0.732095 0.964873 0.055245
C121  C     C_R   0.767881 0.285961 0.464936 0.048784
C122  C     C_R   0.715089 0.767804 0.464907 0.054743
C123  C     C_R   0.232122 0.714039 0.464936 0.048777
C124  C     C_R   0.284913 0.232198 0.464907 0.054742
C125  C     C_R   0.232170 0.287547 0.465494 0.054158
C126  C     C_R   0.286519 0.767773 0.465016 0.055863
C127  C     C_R   0.767832 0.712455 0.465493 0.054154
C128  C     C_R   0.713486 0.232225 0.465016 0.055857
C129  C     C_R   0.196547 0.695446 0.000063 -0.110118
C130  C     C_R   0.304573 0.196740 0.000170 -0.110330
C131  C     C_R   0.803456 0.304551 0.000063 -0.110137
C132  C     C_R   0.695425 0.803258 0.000169 -0.110318
C133  C     C_R   0.805090 0.697676 0.000581 -0.114005
C134  C     C_R   0.698037 0.194698 0.000478 -0.115481
C135  C     C_R   0.194910 0.302323 0.000580 -0.114009
C136  C     C_R   0.301958 0.805306 0.000478 -0.115499
C137  C     C_R   0.696764 0.195368 0.500190 -0.109064
C138  C     C_R   0.804783 0.696614 0.500623 -0.109459
C139  C     C_R   0.303237 0.804631 0.500191 -0.109061
C140  C     C_R   0.195217 0.303386 0.500623 -0.109457
C141  C     C_R   0.304834 0.197725 0.500405 -0.113934
C142  C     C_R   0.197775 0.694822 0.500496 -0.113992
C143  C     C_R   0.695166 0.802274 0.500404 -0.113935
C144  C     C_R   0.802225 0.305178 0.500496 -0.113991
C145  C     C_R   0.231151 0.713705 0.035740 0.054786
C146  C     C_R   0.287029 0.232183 0.035763 0.052566
C147  C     C_R   0.768852 0.286290 0.035741 0.054780
C148  C     C_R   0.712961 0.767810 0.035762 0.052555
C149  C     C_R   0.773448 0.720011 0.036587 0.051257
C150  C     C_R   0.721474 0.225493 0.036516 0.047519
C151  C     C_R   0.226544 0.279984 0.036587 0.051264
C152  C     C_R   0.278522 0.774507 0.036516 0.047485
C153  C     C_R   0.731889 0.213322 0.535812 0.053798
C154  C     C_R   0.786625 0.731968 0.536114 0.051901
C155  C     C_R   0.268109 0.786676 0.535812 0.053793
C156  C     C_R   0.213373 0.268031 0.536115 0.051900
C157  C     C_R   0.273913 0.220268 0.536617 0.052567
C158  C     C_R   0.220365 0.726128 0.536557 0.051369
C159  C     C_R   0.726086 0.779731 0.536617 0.052567
C160  C     C_R   0.779632 0.273871 0.536557 0.051367
C161  C     C_R   0.486267 0.935285 0.831392 -0.218913
C162  C     C_R   0.065595 0.491439 0.831359 -0.127817
C163  C     C_R   0.513733 0.064715 0.831391 -0.218924
C164  C     C_R   0.934405 0.508574 0.831360 -0.127749
C165  C     C_R   0.986838 0.435159 0.331390 -0.218257
C166  C     C_R   0.512878 0.935257 0.331637 -0.133036
C167  C     C_R   0.013167 0.564839 0.331389 -0.218227
C168  C     C_R   0.487124 0.064742 0.331637 -0.133057
H1    H     H_    0.130139 0.680292 0.929328 0.171283
H2    H     H_    0.321375 0.131976 0.929014 0.180432
H3    H     H_    0.869843 0.319726 0.929324 0.171475
H4    H     H_    0.678635 0.868028 0.929013 0.180378
H5    H     H_    0.869192 0.679829 0.929442 0.171822
H6    H     H_    0.675824 0.134940 0.928389 0.188853
H7    H     H_    0.130838 0.320194 0.929433 0.171780
H8    H     H_    0.324130 0.865113 0.928401 0.188979
H9    H     H_    0.629818 0.180563 0.429535 0.167130
H10   H     H_    0.819888 0.627997 0.430661 0.180766
H11   H     H_    0.370192 0.819434 0.429537 0.167115
H12   H     H_    0.180115 0.372007 0.430661 0.180763
H13   H     H_    0.363850 0.177164 0.427662 0.163296
H14   H     H_    0.176251 0.634579 0.428484 0.189463
H15   H     H_    0.636155 0.822841 0.427662 0.163303
H16   H     H_    0.823753 0.365424 0.428485 0.189455
H17   H     H_    0.475223 0.885340 0.847120 0.172774
H18   H     H_    0.116320 0.484656 0.847060 0.189193
H19   H     H_    0.524776 0.114660 0.847118 0.172758
H20   H     H_    0.883681 0.515357 0.847061 0.189150
H21   H     H_    0.976253 0.385112 0.347113 0.173982
H22   H     H_    0.521353 0.885372 0.347767 0.178666
H23   H     H_    0.023752 0.614887 0.347111 0.173981
H24   H     H_    0.478651 0.114628 0.347766 0.178680
H25   H     H_    0.539728 0.179672 0.785701 0.166345
H26   H     H_    0.817746 0.525392 0.785684 0.163262
H27   H     H_    0.460282 0.820322 0.785704 0.166213
H28   H     H_    0.182253 0.474615 0.785682 0.163290
H29   H     H_    0.038026 0.680062 0.285698 0.168395
H30   H     H_    0.459869 0.179183 0.285506 0.154113
H31   H     H_    0.962000 0.319928 0.285701 0.168398
H32   H     H_    0.540126 0.820815 0.285508 0.154080
H33   H     H_    0.038266 0.680015 0.214310 0.153684
H34   H     H_    0.453815 0.177942 0.214150 0.149467
H35   H     H_    0.961760 0.319974 0.214314 0.153687
H36   H     H_    0.546182 0.822056 0.214152 0.149467
H37   H     H_    0.540014 0.179610 0.714307 0.151158
H38   H     H_    0.817846 0.526086 0.714296 0.149932
H39   H     H_    0.460000 0.820381 0.714311 0.151139
H40   H     H_    0.182153 0.473914 0.714294 0.149932
H41   H     H_    0.024754 0.614660 0.152872 0.162799
H42   H     H_    0.462707 0.110588 0.152148 0.131463
H43   H     H_    0.975252 0.385336 0.152874 0.162804
H44   H     H_    0.537292 0.889410 0.152148 0.131462
H45   H     H_    0.525918 0.114388 0.652864 0.161830
H46   H     H_    0.884029 0.517703 0.652908 0.162374
H47   H     H_    0.474088 0.885607 0.652865 0.161828
H48   H     H_    0.115969 0.482293 0.652906 0.162375
O1    O     O_3   1.000000 0.500000 0.999990 -0.487985
O2    O     O_3   0.500000 0.000000 0.999990 -0.486998
O3    O     O_3   0.500000 0.000000 0.499990 -0.491047
O4    O     O_3   1.000000 0.500000 0.499990 -0.485398
O5    O     O_R   0.060750 0.500000 0.912560 -0.637205
O6    O     O_R   0.500000 0.060750 0.912560 -0.646044
O7    O     O_R   0.939250 0.500000 0.912560 -0.637141
O8    O     O_R   0.500000 0.939250 0.912560 -0.646016
O9    O     O_R   0.560750 0.000000 0.412560 -0.617784
O10   O     O_R   1.000000 0.560750 0.412560 -0.645285
O11   O     O_R   0.439250 0.000000 0.412560 -0.617785
O12   O     O_R   1.000000 0.439250 0.412560 -0.645290
O13   O     O_R   1.000000 0.560690 0.087420 -0.652275
O14   O     O_R   0.439310 0.000000 0.087420 -0.644642
O15   O     O_R   1.000000 0.439310 0.087420 -0.652283
O16   O     O_R   0.560690 0.000000 0.087420 -0.644628
O17   O     O_R   0.500000 0.060690 0.587420 -0.651992
O18   O     O_R   0.939310 0.500000 0.587420 -0.653796
O19   O     O_R   0.500000 0.939310 0.587420 -0.651994
O20   O     O_R   0.060690 0.500000 0.587420 -0.653794
O21   O     O_R   0.853830 0.585440 0.977070 -0.636647
O22   O     O_R   0.414560 0.853830 0.977070 -0.644344
O23   O     O_R   0.146170 0.414560 0.977070 -0.636652
O24   O     O_R   0.585440 0.146170 0.977070 -0.644380
O25   O     O_R   0.146170 0.585440 0.977070 -0.633285
O26   O     O_R   0.585440 0.853830 0.977070 -0.640618
O27   O     O_R   0.853830 0.414560 0.977070 -0.633288
O28   O     O_R   0.414560 0.146170 0.977070 -0.640608
O29   O     O_R   0.353830 0.085440 0.477070 -0.634096
O30   O     O_R   0.914560 0.353830 0.477070 -0.643674
O31   O     O_R   0.646170 0.914560 0.477070 -0.634097
O32   O     O_R   0.085440 0.646170 0.477070 -0.643675
O33   O     O_R   0.646170 0.085440 0.477070 -0.628967
O34   O     O_R   0.085440 0.353830 0.477070 -0.638390
O35   O     O_R   0.353830 0.914560 0.477070 -0.628963
O36   O     O_R   0.914560 0.646170 0.477070 -0.638391
O37   O     O_R   0.085460 0.353830 0.022910 -0.648721
O38   O     O_R   0.646170 0.085460 0.022910 -0.647215
O39   O     O_R   0.914540 0.646170 0.022910 -0.648728
O40   O     O_R   0.353830 0.914540 0.022910 -0.647199
O41   O     O_R   0.914540 0.353830 0.022910 -0.646875
O42   O     O_R   0.353830 0.085460 0.022910 -0.642050
O43   O     O_R   0.085460 0.646170 0.022910 -0.646867
O44   O     O_R   0.646170 0.914540 0.022910 -0.642041
O45   O     O_R   0.585460 0.853830 0.522910 -0.649789
O46   O     O_R   0.146170 0.585460 0.522910 -0.646614
O47   O     O_R   0.414540 0.146170 0.522910 -0.649787
O48   O     O_R   0.853830 0.414540 0.522910 -0.646618
O49   O     O_R   0.414540 0.853830 0.522910 -0.648290
O50   O     O_R   0.853830 0.585460 0.522910 -0.645024
O51   O     O_R   0.585460 0.146170 0.522910 -0.648286
O52   O     O_R   0.146170 0.414540 0.522910 -0.645023
Zn1   Zn    Zn3+2 1.000000 0.586740 0.032740 0.940622
Zn2   Zn    Zn3+2 0.413260 1.000000 0.032740 0.951368
Zn3   Zn    Zn3+2 1.000000 0.413260 0.032740 0.940628
Zn4   Zn    Zn3+2 0.586740 1.000000 0.032740 0.951357
Zn5   Zn    Zn3+2 0.500000 0.086740 0.532740 0.937082
Zn6   Zn    Zn3+2 0.913260 0.500000 0.532740 0.945631
Zn7   Zn    Zn3+2 0.500000 0.913260 0.532740 0.937081
Zn8   Zn    Zn3+2 0.086740 0.500000 0.532740 0.945631
Zn9   Zn    Zn3+2 0.913250 0.500000 0.967240 0.985845
Zn10  Zn    Zn3+2 0.500000 0.913250 0.967240 0.979350
Zn11  Zn    Zn3+2 0.086750 0.500000 0.967240 0.985829
Zn12  Zn    Zn3+2 0.500000 0.086750 0.967240 0.979327
Zn13  Zn    Zn3+2 0.413250 0.000000 0.467240 0.991197
Zn14  Zn    Zn3+2 0.000000 0.413250 0.467240 0.982789
Zn15  Zn    Zn3+2 0.586750 0.000000 0.467240 0.991201
Zn16  Zn    Zn3+2 1.000000 0.586750 0.467240 0.982794
C169  C     C_3   0.218211 0.667195 0.072503 -0.383906
C170  C     C_3   0.288978 0.635959 0.089766 -0.363802
C171  C     C_3   0.275873 0.565031 0.111560 -0.900977
H49   H     H_    0.235712 0.573435 0.135319 0.270396
H50   H     H_    0.255287 0.523609 0.090948 0.257416
H51   H     H_    0.327659 0.545248 0.124384 0.263084
H52   H     H_    0.329505 0.625880 0.066327 0.233489
H53   H     H_    0.311875 0.674449 0.111225 0.243123
H54   H     H_    0.188207 0.698808 0.094867 0.184104
H55   H     H_    0.182687 0.620070 0.066505 0.215261
C172  C     C_3   0.334045 0.219873 0.072358 -0.384521
C173  C     C_3   0.366205 0.290960 0.088788 -0.354623
C174  C     C_3   0.436888 0.277870 0.110820 -0.919766
H56   H     H_    0.427493 0.239807 0.135439 0.259567
H57   H     H_    0.477942 0.254793 0.090725 0.259101
H58   H     H_    0.457886 0.330085 0.122555 0.263809
H59   H     H_    0.376929 0.330303 0.064850 0.233577
H60   H     H_    0.327929 0.315396 0.109896 0.238287
H61   H     H_    0.302476 0.190907 0.095143 0.187389
H62   H     H_    0.380647 0.183662 0.066413 0.213208
C175  C     C_3   0.781791 0.332800 0.072503 -0.383960
C176  C     C_3   0.711033 0.364111 0.089732 -0.363857
C177  C     C_3   0.724207 0.434918 0.111621 -0.900844
H63   H     H_    0.764245 0.426326 0.135428 0.270417
H64   H     H_    0.745009 0.476371 0.091078 0.257369
H65   H     H_    0.672413 0.454788 0.124398 0.263076
H66   H     H_    0.670608 0.374369 0.066260 0.233471
H67   H     H_    0.687970 0.325588 0.111127 0.243189
H68   H     H_    0.811742 0.301176 0.094884 0.184159
H69   H     H_    0.817359 0.379894 0.066515 0.215263
C178  C     C_3   0.665937 0.780114 0.072354 -0.384522
C179  C     C_3   0.633785 0.709024 0.088787 -0.354599
C180  C     C_3   0.563097 0.722105 0.110817 -0.919705
H70   H     H_    0.572479 0.760189 0.135429 0.259556
H71   H     H_    0.522034 0.745156 0.090718 0.259083
H72   H     H_    0.542116 0.669891 0.122564 0.263792
H73   H     H_    0.623071 0.669677 0.064850 0.233578
H74   H     H_    0.672065 0.684597 0.109896 0.238275
H75   H     H_    0.697496 0.809088 0.095140 0.187390
H76   H     H_    0.619329 0.816316 0.066406 0.213194
C181  C     C_3   0.808646 0.699608 0.075680 -0.366088
C182  C     C_3   0.800326 0.619022 0.087071 -0.363670
C183  C     C_3   0.822967 0.607154 0.129472 -0.857312
H77   H     H_    0.878613 0.628732 0.134452 0.272834
H78   H     H_    0.784453 0.634988 0.149437 0.259377
H79   H     H_    0.823242 0.548298 0.136424 0.251755
H80   H     H_    0.743343 0.601091 0.082952 0.205693
H81   H     H_    0.834528 0.583340 0.068714 0.226213
H82   H     H_    0.866996 0.714865 0.075278 0.224228
H83   H     H_    0.787494 0.733382 0.099760 0.194266
C184  C     C_3   0.702144 0.189753 0.075578 -0.357167
C185  C     C_3   0.622355 0.200118 0.087959 -0.365883
C186  C     C_3   0.612923 0.184130 0.131392 -0.867499
H84   H     H_    0.625939 0.126281 0.137534 0.280518
H85   H     H_    0.648856 0.219503 0.149201 0.261026
H86   H     H_    0.556119 0.194893 0.140266 0.246361
H87   H     H_    0.604321 0.256394 0.081721 0.207494
H88   H     H_    0.585688 0.163349 0.071599 0.225768
H89   H     H_    0.715915 0.131101 0.074852 0.225534
H90   H     H_    0.737921 0.209633 0.099147 0.193737
C187  C     C_3   0.191351 0.300403 0.075679 -0.366131
C188  C     C_3   0.199692 0.380991 0.087058 -0.363585
C189  C     C_3   0.177057 0.392888 0.129457 -0.857256
H91   H     H_    0.121401 0.371338 0.134441 0.272826
H92   H     H_    0.215559 0.365046 0.149426 0.259366
H93   H     H_    0.176806 0.451747 0.136400 0.251729
H94   H     H_    0.256680 0.398900 0.082936 0.205675
H95   H     H_    0.165500 0.416676 0.068697 0.226208
H96   H     H_    0.132999 0.285157 0.075282 0.224239
H97   H     H_    0.212499 0.266634 0.099762 0.194259
C190  C     C_3   0.297843 0.810246 0.075578 -0.357131
C191  C     C_3   0.377625 0.799861 0.087966 -0.365876
C192  C     C_3   0.387062 0.815930 0.131389 -0.867461
H98   H     H_    0.374100 0.873803 0.137496 0.280530
H99   H     H_    0.351094 0.780628 0.149218 0.261016
H100  H     H_    0.443855 0.805130 0.140271 0.246349
H101  H     H_    0.395627 0.743562 0.081764 0.207502
H102  H     H_    0.414313 0.836574 0.071583 0.225715
H103  H     H_    0.284085 0.868900 0.074849 0.225557
H104  H     H_    0.262050 0.790374 0.099143 0.193696
C193  C     C_3   0.719131 0.166796 0.572551 -0.385117
C194  C     C_3   0.790009 0.135194 0.589535 -0.362020
C195  C     C_3   0.776741 0.064492 0.611511 -0.898208
H105  H     H_    0.737047 0.073321 0.635459 0.270148
H106  H     H_    0.755462 0.023101 0.591071 0.257055
H107  H     H_    0.828591 0.044376 0.624110 0.263067
H108  H     H_    0.830041 0.124672 0.565903 0.234245
H109  H     H_    0.813711 0.173664 0.610797 0.239556
H110  H     H_    0.689642 0.198605 0.595036 0.183224
H111  H     H_    0.683197 0.119937 0.566619 0.214882
C196  C     C_3   0.832720 0.719128 0.572988 -0.386522
C197  C     C_3   0.864470 0.789919 0.590022 -0.360777
C198  C     C_3   0.935240 0.776572 0.611927 -0.900530
H112  H     H_    0.926428 0.736798 0.635839 0.269294
H113  H     H_    0.976584 0.755379 0.591437 0.257537
H114  H     H_    0.955445 0.828363 0.624570 0.262896
H115  H     H_    0.874995 0.830034 0.566428 0.234185
H116  H     H_    0.826033 0.813533 0.611330 0.238372
H117  H     H_    0.800535 0.689810 0.595397 0.183200
H118  H     H_    0.879415 0.682927 0.567219 0.213695
C199  C     C_3   0.280864 0.833202 0.572551 -0.385115
C200  C     C_3   0.209984 0.864802 0.589534 -0.362016
C201  C     C_3   0.223248 0.935508 0.611507 -0.898207
H119  H     H_    0.262941 0.926684 0.635454 0.270153
H120  H     H_    0.244522 0.976898 0.591064 0.257055
H121  H     H_    0.171396 0.955622 0.624105 0.263067
H122  H     H_    0.169952 0.875320 0.565901 0.234245
H123  H     H_    0.186284 0.826333 0.610797 0.239557
H124  H     H_    0.310352 0.801393 0.595036 0.183221
H125  H     H_    0.316797 0.880062 0.566619 0.214882
C202  C     C_3   0.167277 0.280870 0.572989 -0.386520
C203  C     C_3   0.135527 0.210079 0.590024 -0.360773
C204  C     C_3   0.064755 0.223426 0.611928 -0.900550
H126  H     H_    0.073564 0.263201 0.635838 0.269297
H127  H     H_    0.023412 0.244616 0.591437 0.257541
H128  H     H_    0.044551 0.171635 0.624572 0.262898
H129  H     H_    0.125004 0.169963 0.566431 0.234186
H130  H     H_    0.173963 0.186466 0.611333 0.238372
H131  H     H_    0.199462 0.310189 0.595397 0.183201
H132  H     H_    0.120583 0.317072 0.567220 0.213693
C205  C     C_3   0.309526 0.199747 0.575592 -0.366473
C206  C     C_3   0.300751 0.119228 0.587025 -0.359291
C207  C     C_3   0.324326 0.107077 0.629253 -0.859726
H133  H     H_    0.380297 0.128094 0.633839 0.272872
H134  H     H_    0.286609 0.135284 0.649503 0.258914
H135  H     H_    0.324143 0.048203 0.636181 0.251964
H136  H     H_    0.243483 0.101879 0.583350 0.205917
H137  H     H_    0.334079 0.083226 0.568386 0.226250
H138  H     H_    0.367917 0.214774 0.575055 0.223536
H139  H     H_    0.288913 0.233665 0.599742 0.191957
C208  C     C_3   0.199945 0.690806 0.575621 -0.367595
C209  C     C_3   0.119417 0.699534 0.587084 -0.362750
C210  C     C_3   0.107604 0.677497 0.629576 -0.858374
H140  H     H_    0.129454 0.622090 0.634793 0.271386
H141  H     H_    0.135293 0.716426 0.649381 0.260282
H142  H     H_    0.048725 0.677023 0.636520 0.251973
H143  H     H_    0.101693 0.756516 0.582790 0.206318
H144  H     H_    0.083536 0.665203 0.568878 0.225732
H145  H     H_    0.214894 0.632417 0.575170 0.222961
H146  H     H_    0.234004 0.711618 0.599683 0.193183
C211  C     C_3   0.690471 0.800251 0.575591 -0.366470
C212  C     C_3   0.699244 0.880770 0.587025 -0.359288
C213  C     C_3   0.675667 0.892919 0.629253 -0.859724
H147  H     H_    0.619696 0.871901 0.633839 0.272871
H148  H     H_    0.713385 0.864712 0.649503 0.258911
H149  H     H_    0.675849 0.951793 0.636181 0.251965
H150  H     H_    0.756511 0.898120 0.583349 0.205915
H151  H     H_    0.665916 0.916772 0.568385 0.226250
H152  H     H_    0.632080 0.785223 0.575055 0.223534
H153  H     H_    0.711083 0.766332 0.599742 0.191954
C214  C     C_3   0.800051 0.309191 0.575621 -0.367599
C215  C     C_3   0.880579 0.300463 0.587084 -0.362732
C216  C     C_3   0.892390 0.322497 0.629577 -0.858409
H154  H     H_    0.870538 0.377903 0.634794 0.271387
H155  H     H_    0.864699 0.283565 0.649381 0.260272
H156  H     H_    0.951268 0.322970 0.636520 0.251976
H157  H     H_    0.898304 0.243482 0.582789 0.206319
H158  H     H_    0.916460 0.334796 0.568879 0.225730
H159  H     H_    0.785102 0.367581 0.575170 0.222958
H160  H     H_    0.765991 0.288379 0.599684 0.193186
C217  C     C_2   0.146906 0.737347 0.859982 0.952631
O53   O     O_2   0.123458 0.675914 0.854508 -0.636261
O54   O     O_R   0.128060 0.793372 0.834348 -0.757866
H161  H     H_    0.095965 0.775994 0.812195 0.352617
C218  C     C_2   0.270635 0.155483 0.858624 0.969034
O55   O     O_2   0.291773 0.092457 0.859764 -0.609109
O56   O     O_R   0.272323 0.193630 0.823375 -0.784111
H162  H     H_    0.290881 0.162896 0.800952 0.348737
C219  C     C_2   0.852959 0.262801 0.859942 0.952456
O57   O     O_2   0.876655 0.324167 0.854574 -0.636430
O58   O     O_R   0.871448 0.206898 0.834161 -0.757939
H163  H     H_    0.903527 0.224301 0.812004 0.352575
C220  C     C_2   0.729394 0.844528 0.858628 0.969116
O59   O     O_2   0.708303 0.907576 0.859763 -0.608975
O60   O     O_R   0.727637 0.806358 0.823389 -0.784062
H164  H     H_    0.709077 0.837096 0.800964 0.348718
C221  C     C_2   0.854655 0.739033 0.860468 0.959672
O61   O     O_2   0.877237 0.677429 0.854651 -0.647830
O62   O     O_R   0.874712 0.795405 0.835308 -0.762899
H165  H     H_    0.906818 0.778112 0.813145 0.352471
C222  C     C_2   0.724571 0.159849 0.858013 0.954083
O63   O     O_2   0.724540 0.193115 0.827150 -0.607309
O64   O     O_R   0.696968 0.088998 0.859440 -0.783341
H166  H     H_    0.680037 0.070981 0.833026 0.361856
C223  C     C_2   0.145390 0.260995 0.860464 0.959789
O65   O     O_2   0.122909 0.322624 0.854613 -0.647767
O66   O     O_R   0.125227 0.204599 0.835345 -0.762918
H167  H     H_    0.093126 0.221894 0.813180 0.352497
C224  C     C_2   0.275248 0.840343 0.858029 0.953960
O67   O     O_2   0.274985 0.807234 0.827119 -0.607249
O68   O     O_R   0.303090 0.911089 0.859505 -0.783508
H168  H     H_    0.319942 0.929189 0.833084 0.361906
C225  C     C_2   0.646386 0.237633 0.360221 0.945195
O69   O     O_2   0.624294 0.175833 0.354401 -0.642864
O70   O     O_R   0.626171 0.293797 0.334981 -0.760503
H169  H     H_    0.594183 0.276224 0.312820 0.345726
C226  C     C_2   0.772262 0.650656 0.359716 0.964121
O71   O     O_2   0.792974 0.587589 0.361945 -0.610147
O72   O     O_R   0.773499 0.686270 0.323705 -0.779212
H170  H     H_    0.791495 0.653886 0.301822 0.348526
C227  C     C_2   0.353632 0.762366 0.360223 0.945205
O73   O     O_2   0.375714 0.824169 0.354400 -0.642863
O74   O     O_R   0.373861 0.706200 0.334988 -0.760492
H171  H     H_    0.405850 0.723773 0.312827 0.345726
C228  C     C_2   0.227760 0.349363 0.359716 0.964110
O75   O     O_2   0.207049 0.412432 0.361947 -0.610134
O76   O     O_R   0.226531 0.313758 0.323703 -0.779223
H172  H     H_    0.208546 0.346147 0.301821 0.348532
C229  C     C_2   0.346042 0.238374 0.359165 0.944913
O77   O     O_2   0.355457 0.175385 0.349081 -0.644540
O78   O     O_R   0.375419 0.295496 0.337336 -0.772166
H173  H     H_    0.402289 0.278226 0.313319 0.336220
C230  C     C_2   0.225595 0.659093 0.358141 0.954749
O79   O     O_2   0.226880 0.691814 0.327121 -0.601538
O80   O     O_R   0.196749 0.588750 0.359691 -0.782500
H174  H     H_    0.180083 0.570623 0.333249 0.361799
C231  C     C_2   0.653982 0.761651 0.359163 0.944908
O81   O     O_2   0.644565 0.824643 0.349085 -0.644527
O82   O     O_R   0.624617 0.704536 0.337326 -0.772152
H175  H     H_    0.597758 0.721817 0.313306 0.336210
C232  C     C_2   0.774423 0.340907 0.358142 0.954785
O83   O     O_2   0.773160 0.308181 0.327124 -0.601549
O84   O     O_R   0.803251 0.411256 0.359692 -0.782493
H176  H     H_    0.819932 0.429383 0.333251 0.361786

loop_
_geom_bond_atom_site_label_1
_geom_bond_atom_site_label_2
_ccdc_geom_bond_type
C79   C139  S    
O60   H164  S    
C192  H98   S    
C55   C59   A    
C130  C146  A    
C220  O59   D    
O25   Zn11  S    
O78   H173  S    
C34   C42   A    
C213  H147  S    
C201  H121  S    
C13   C25   A    
C169  H54   S    
C186  H84   S    
C106  C226  S    
C193  H110  S    
C216  H154  S    
C40   C46   A    
C170  H52   S    
C204  H127  S    
C197  H116  S    
C21   C33   A    
C172  H62   S    
C119  C130  A    
C108  C109  A    
C30   C38   A    
C1    O5    A    
C211  C212  S    
C207  H135  S    
C104  C224  S    
C117  C132  A    
C198  H114  S    
C118  C131  A    
C92   H12   S    
C210  H141  S    
C207  H133  S    
O13   Zn1   S    
C199  H125  S    
C200  H122  S    
C84   C117  A    
C218  O56   S    
C83   H3    S    
C171  H50   S    
C182  C183  S    
C51   C57   A    
C81   H1    S    
C144  C160  A    
C129  C145  A    
C111  C231  S    
C138  C154  A    
C221  O62   S    
C179  H74   S    
C206  H137  S    
C155  C158  A    
C82   C98   A    
C110  C230  S    
C76   O32   A    
C142  C158  A    
C105  C225  S    
C136  C152  A    
C25   C29   A    
C30   H34   S    
O46   Zn8   S    
C27   C31   A    
O62   H165  S    
C84   C100  A    
C91   C107  A    
C28   C32   A    
C147  C150  A    
C121  C128  A    
C3    C8    S    
C68   O24   A    
C203  H130  S    
C123  C126  A    
C116  C133  A    
O14   Zn2   S    
C223  O65   D    
O48   Zn6   S    
C175  H69   S    
C187  H96   S    
C179  C180  S    
C86   H6    S    
C5    C161  A    
C180  H72   S    
O21   Zn9   S    
O54   H161  S    
C151  C187  S    
C113  C120  A    
C15   C27   A    
C190  C191  S    
C16   C20   A    
C115  C118  A    
O8    Zn10  S    
O3    Zn7   S    
C176  C177  S    
C137  C153  A    
O4    Zn16  S    
C14   C26   A    
C143  C159  A    
C75   C143  S    
C140  C156  A    
C66   C136  S    
C95   C122  A    
C141  C157  A    
C173  C174  S    
C105  C112  A    
C192  H100  S    
C62   O16   A    
C229  O78   S    
C78   O34   A    
C107  C110  A    
C36   C44   A    
O26   Zn10  S    
C37   C45   A    
C201  H119  S    
C211  H153  S    
O32   Zn16  S    
C186  H86   S    
C215  C216  S    
C216  H156  S    
C54   H46   S    
C76   O46   A    
O51   Zn5   S    
C85   C116  A    
C149  C181  S    
C185  C186  S    
C164  H20   S    
C196  C197  S    
C57   C61   S    
C115  C134  A    
C167  H23   S    
C103  C223  S    
C59   C63   S    
C168  H24   S    
C1    O7    A    
C60   C64   S    
C209  C210  S    
C225  O70   S    
C193  C194  S    
C95   H15   S    
C10   C18   A    
C65   O39   A    
C11   C23   A    
C195  H107  S    
C201  H120  S    
C217  O53   D    
C184  C185  S    
C73   O29   A    
C69   C129  S    
C52   H44   S    
C166  H22   S    
C205  C206  S    
C205  H138  S    
C194  H108  S    
C44   C48   A    
C39   C51   A    
C75   O45   A    
C2    O6    A    
C9    C21   A    
C92   C125  A    
O27   Zn9   S    
C184  H89   S    
C188  H94   S    
C212  H151  S    
C221  O61   D    
C208  H146  S    
C173  H60   S    
C213  H148  S    
C33   H37   S    
C191  H101  S    
C24   C36   A    
C101  C221  S    
C96   C121  A    
C80   O50   A    
C5    C163  A    
O37   Zn3   S    
C55   H47   S    
C63   O17   A    
O3    Zn5   S    
C49   C57   A    
C9    C163  A    
C36   H40   S    
C88   C113  A    
C202  C203  S    
C185  H88   S    
C159  C211  S    
C194  C195  S    
C92   C108  A    
C208  C209  S    
C62   O14   A    
O31   Zn15  S    
C131  C147  A    
C209  H144  S    
C8    C168  A    
C114  C119  A    
C39   C45   A    
O9    Zn15  S    
C231  O81   D    
C66   O22   A    
C174  H57   S    
C121  C144  A    
C181  H83   S    
C93   H13   S    
C122  C143  A    
C4    C7    S    
C2    O8    A    
C88   C104  A    
C106  C111  A    
C125  C140  A    
C155  C199  S    
C126  C139  A    
C232  O84   S    
C120  C129  A    
C27   H31   S    
C183  H78   S    
C214  H160  S    
O2    Zn4   S    
C86   C115  A    
C230  O80   S    
C64   O18   A    
C227  O73   D    
C68   O38   A    
C178  H76   S    
C61   O13   A    
O72   H170  S    
C153  C193  S    
O52   Zn8   S    
C70   C132  S    
C226  O71   D    
C41   C47   A    
C42   C48   A    
C228  O76   S    
C41   C53   A    
C215  H158  S    
C43   C55   A    
C66   O40   A    
C26   C30   A    
C182  H81   S    
C154  C196  S    
C124  C141  A    
C2    C5    S    
C157  C205  S    
C86   C102  A    
C172  H61   S    
C7    C167  A    
C53   H45   S    
C200  H123  S    
C17   C47   A    
C84   H4    S    
C18   C48   A    
O82   H175  S    
C19   C45   A    
O7    Zn9   S    
C224  O68   S    
C87   H7    S    
C139  C155  A    
C12   C24   A    
C176  H66   S    
C88   H8    S    
C170  H53   S    
C177  H65   S    
C153  C160  A    
C154  C159  A    
C204  H126  S    
C94   C123  A    
C189  H93   S    
O29   Zn13  S    
C69   O25   A    
C43   C47   A    
C80   C138  S    
C67   O23   A    
C100  C101  A    
C222  O64   S    
C208  H145  S    
C207  H134  S    
C26   H30   S    
C56   H48   S    
C145  C152  A    
C215  H157  S    
C71   C131  S    
O56   H162  S    
O58   H163  S    
C199  H124  S    
C50   H42   S    
C218  O55   D    
C80   O36   A    
C89   C105  A    
O74   H171  S    
C15   C165  A    
C21   H25   S    
C20   C46   A    
C73   O47   A    
C93   C109  A    
C74   O48   A    
C58   C62   S    
C90   H10   S    
C160  C214  S    
O19   Zn7   S    
C100  C220  S    
C72   O28   A    
O70   H169  S    
C99   C219  S    
C85   C101  A    
C73   C141  S    
C10   C22   A    
C15   C19   A    
C190  H104  S    
O2    Zn2   S    
C77   C137  S    
C64   O20   A    
C158  C208  S    
C74   O30   A    
C212  C213  S    
C24   H28   S    
C98   C103  A    
C11   C161  A    
C175  H68   S    
O35   Zn13  S    
C219  O58   S    
C108  C228  S    
C161  H17   S    
O49   Zn7   S    
O47   Zn5   S    
O23   Zn11  S    
C169  H55   S    
C150  C184  S    
C165  H21   S    
C90   C127  A    
O24   Zn12  S    
O41   Zn3   S    
C127  C138  A    
C4    O10   A    
C145  C169  S    
O43   Zn1   S    
C69   O43   A    
C196  H118  S    
C70   O44   A    
C7    C165  A    
C178  C179  S    
C192  H99   S    
C83   C99   A    
C229  O77   D    
C220  O60   S    
C82   C119  A    
O11   Zn13  S    
C211  H152  S    
C186  H85   S    
C180  H71   S    
C193  H111  S    
C216  H155  S    
C29   H33   S    
C13   C19   A    
O4    Zn6   S    
C177  H63   S    
C50   C58   A    
C14   C20   A    
C203  C204  S    
C90   C106  A    
C204  H128  S    
C189  H91   S    
C197  H115  S    
O22   Zn10  S    
O40   Zn2   S    
C94   C110  A    
C1    C6    S    
C32   H36   S    
C67   C135  S    
O66   H167  S    
C169  C170  S    
C37   C49   A    
C44   C56   A    
C171  H49   S    
C202  H131  S    
C171  H51   S    
C195  H106  S    
C28   H32   S    
C38   C50   A    
C35   H39   S    
C6    C164  A    
C179  H73   S    
C23   C35   A    
C206  H136  S    
C71   O41   A    
O6    Zn12  S    
C194  H109  S    
C172  C173  S    
C75   O31   A    
C199  C200  S    
O12   Zn14  S    
C74   C144  S    
C11   C17   A    
O33   Zn15  S    
C79   O35   A    
C78   C140  S    
C203  H129  S    
C146  C172  S    
C188  H95   S    
C191  H102  S    
C187  H97   S    
C33   C41   A    
C68   C134  S    
C200  C201  S    
C71   O27   A    
C183  H77   S    
O1    Zn3   S    
C42   C54   A    
C38   C46   A    
O50   Zn6   S    
C135  C151  A    
C123  C142  A    
O38   Zn4   S    
C61   O15   A    
O30   Zn14  S    
C4    O12   A    
C181  C182  S    
O42   Zn2   S    
O1    Zn9   S    
C97   C104  A    
C63   O19   A    
C56   C60   A    
O1    Zn11  S    
C99   C102  A    
C175  C176  S    
C49   H41   S    
C206  C207  S    
C94   H14   S    
O20   Zn8   S    
C98   C218  S    
C89   C128  A    
C16   C28   A    
C82   H2    S    
C72   O42   A    
C91   C126  A    
O4    Zn8   S    
C174  H56   S    
C181  H82   S    
C195  H105  S    
C93   C124  A    
O28   Zn12  S    
C210  H140  S    
C53   C59   A    
O84   H176  S    
C54   C60   A    
C34   H38   S    
C22   C34   A    
C96   C112  A    
C81   C120  A    
C232  O83   D    
C225  O69   D    
C156  C202  S    
C83   C118  A    
C156  C157  A    
O36   Zn16  S    
C170  C171  S    
C13   C167  A    
C214  H159  S    
O80   H174  S    
C134  C150  A    
C122  C127  A    
C116  C117  A    
C163  H19   S    
C230  O79   D    
C217  O54   S    
C87   C114  A    
C178  H75   S    
C6    C162  A    
C16   C166  A    
C113  C136  A    
C91   H11   S    
C85   H5    S    
C114  C135  A    
O16   Zn4   S    
C102  C222  S    
C89   H9    S    
O44   Zn4   S    
C152  C190  S    
C205  H139  S    
C3    O9    A    
C31   H35   S    
O2    Zn10  S    
O17   Zn5   S    
O34   Zn14  S    
C65   O21   A    
C219  O57   D    
C96   H16   S    
C184  H90   S    
C212  H150  S    
C67   O37   A    
C173  H59   S    
C52   C58   A    
C213  H149  S    
C202  H132  S    
C107  C227  S    
C198  H113  S    
C132  C148  A    
C133  C149  A    
C148  C149  A    
O68   H168  S    
C162  H18   S    
C224  O67   D    
C40   C52   A    
C12   C162  A    
C176  H67   S    
C77   O51   A    
O15   Zn3   S    
C146  C151  A    
C177  H64   S    
C78   O52   A    
C128  C137  A    
C185  H87   S    
C189  H92   S    
O64   H166  S    
O76   H172  S    
C222  O63   D    
C112  C232  S    
C209  H143  S    
C198  H112  S    
C8    C166  A    
C9    C17   A    
O3    Zn13  S    
C109  C229  S    
C231  O82   S    
C29   C37   A    
C174  H58   S    
C87   C103  A    
O5    Zn11  S    
C23   H27   S    
C210  H142  S    
C35   C43   A    
C197  C198  S    
O39   Zn1   S    
C79   O49   A    
O3    Zn15  S    
C10   C164  A    
C183  H79   S    
C72   C130  S    
O45   Zn7   S    
C190  H103  S    
C3    O11   A    
C147  C175  S    
O18   Zn6   S    
C228  O75   D    
C223  O66   S    
C97   C217  S    
C227  O74   S    
C95   C111  A    
C70   O26   A    
C148  C178  S    
C188  C189  S    
C81   C97   A    
O1    Zn1   S    
C191  C192  S    
C226  O72   S    
C31   C39   A    
C32   C40   A    
C180  H70   S    
O10   Zn16  S    
C25   H29   S    
C214  C215  S    
C51   H43   S    
C77   O33   A    
O2    Zn12  S    
C12   C18   A    
C182  H80   S    
C22   H26   S    
O4    Zn14  S    
C187  C188  S    
C14   C168  A    
C65   C133  S    
C196  H117  S    
C124  C125  A    
C76   C142  S    
