data_mof_unit_6190.cif
_audit_creation_date              2012-10-26T19:45:12-0400
_audit_creation_method            fapswitch 2.2
_symmetry_space_group_name_H-M    P1
_symmetry_Int_Tables_number       1
_space_group_crystal_system       triclinic
_cell_length_a                    9.722091
_cell_length_b                    10.804572
_cell_length_c                    13.816841
_cell_angle_alpha                 89.865586
_cell_angle_beta                  83.749605
_cell_angle_gamma                 93.175998
_cell_volume                      1440.46810154

loop_
_atom_site_label
_atom_site_type_symbol
_atom_type_description
_atom_site_fract_x
_atom_site_fract_y
_atom_site_fract_z
_atom_type_partial_charge
C1    C     C_R   0.504885 0.737904 0.490670 0.562755
C2    C     C_R   0.941482 0.494195 0.414977 0.319449
C3    C     C_1   0.535331 0.487613 0.214529 0.126318
C4    C     C_1   0.464940 0.512568 0.785409 0.119484
C5    C     C_2   0.529361 0.457706 0.026170 0.184746
C6    C     C_2   0.472849 0.543309 0.973468 0.196029
C7    C     C_1   0.464745 0.525698 0.871467 0.085062
C8    C     C_1   0.536248 0.474802 0.128374 0.063672
C9    C     C_R   0.627901 0.947827 0.503645 0.145562
C10   C     C_R   0.370507 0.052674 0.498258 0.191857
C11   C     C_R   0.608065 0.067403 0.538328 0.122545
C12   C     C_R   0.494928 0.262215 0.509375 0.569976
C13   C     C_R   0.389528 0.932804 0.463931 0.141597
C14   C     C_R   0.487216 0.125755 0.521135 -0.057186
C15   C     C_R   0.511571 0.874606 0.479747 -0.078864
C16   C     C_R   0.476746 0.501347 0.682497 0.566161
C17   C     C_R   0.523281 0.498618 0.317490 0.579692
C18   C     C_R   0.917410 0.531101 0.581662 0.354712
C19   C     C_R   0.082562 0.470108 0.418118 0.345442
C20   C     C_R   0.058517 0.506888 0.585089 0.257956
Cu1   Cu    Cu3+1 0.359340 0.499980 0.500000 1.208028
Cu2   Cu    Cu3+1 0.640660 0.500020 0.500000 1.224096
H1    H     H_    0.942180 0.773823 0.763473 0.395475
H2    H     H_    0.446218 0.856512 0.263178 0.370745
H3    H     H_    0.057065 0.231660 0.232980 0.402605
H4    H     H_    0.182557 0.602858 0.742045 0.356373
H5    H     H_    0.857589 0.513458 0.163602 0.372182
H6    H     H_    0.450111 0.800641 0.894992 0.352723
H7    H     H_    0.730831 0.273331 0.079075 0.363655
H8    H     H_    0.859968 0.114653 0.397929 0.370272
H9    H     H_    0.030519 0.957284 0.621156 0.421910
H10   H     H_    0.700433 0.962923 0.717421 0.361044
N1    N     N_R   0.147930 0.499970 0.499980 -0.300353
N2    N     N_R   0.852070 0.500030 0.500020 -0.299806
O1    O     O_R   0.381260 0.680340 0.500000 -0.474230
O2    O     O_2   0.792208 0.558151 0.765078 -0.215597
O3    O     O_3   0.982080 0.726310 0.706981 -0.515408
O4    O     O_2   0.212952 0.445026 0.235911 -0.211141
O5    O     O_2   0.253341 0.284874 0.352791 -0.232475
O6    O     O_3   0.016108 0.281100 0.287993 -0.485584
O7    O     O_2   0.952194 0.364523 0.737928 -0.116126
O8    O     O_2   0.189067 0.332783 0.678252 -0.168894
O9    O     O_3   0.136530 0.530834 0.779169 -0.442788
O10   O     O_2   0.811135 0.668970 0.323519 -0.190749
O11   O     O_2   0.046052 0.633444 0.259340 -0.145068
O12   O     O_R   0.618740 0.319660 0.500000 -0.482005
O13   O     O_3   0.855687 0.466993 0.225666 -0.501565
O14   O     O_2   0.293837 0.656639 0.099681 -0.120525
O15   O     O_2   0.529003 0.751578 0.070726 -0.247689
O16   O     O_3   0.363722 0.774691 0.936532 -0.439154
O17   O     O_2   0.472015 0.247377 0.932924 -0.167291
O18   O     O_2   0.704948 0.344680 0.896261 -0.171361
O19   O     O_3   0.644989 0.228899 0.062004 -0.441825
O20   O     O_2   0.860558 0.819761 0.478163 -0.124771
O21   O     O_2   0.769458 0.901532 0.333553 -0.225464
O22   O     O_3   0.898993 0.053303 0.439136 -0.366277
O23   O     O_R   0.618830 0.680370 0.500010 -0.427165
O24   O     O_2   0.233244 0.100307 0.668819 -0.216857
O25   O     O_2   0.138325 0.181371 0.524868 -0.145935
O26   O     O_3   0.101412 0.947455 0.565127 -0.389810
O27   O     O_2   0.828173 0.213583 0.581328 -0.178107
O28   O     O_2   0.625390 0.198323 0.702270 -0.203632
O29   O     O_3   0.780930 0.010544 0.682580 -0.442753
O30   O     O_2   0.169101 0.782019 0.427637 -0.148393
O31   O     O_2   0.210752 0.973977 0.332636 -0.148358
O32   O     O_3   0.373983 0.794558 0.291472 -0.444750
O33   O     O_R   0.381170 0.319630 0.499990 -0.429002
O34   O     O_R   0.364420 0.499960 0.637840 -0.505413
O35   O     O_R   0.635580 0.500040 0.362160 -0.463861
O36   O     O_R   0.601990 0.499990 0.637850 -0.437690
O37   O     O_R   0.398010 0.500010 0.362150 -0.440138
O38   O     O_2   0.741912 0.713526 0.647706 -0.270367
S1    S     S_3+6 0.850482 0.632166 0.676414 0.107176
S2    S     S_3+6 0.279419 0.870990 0.378707 0.167063
S3    S     S_3+6 0.149187 0.370104 0.322691 0.135695
S4    S     S_3+6 0.085785 0.429843 0.695619 0.171665
S5    S     S_3+6 0.912713 0.570663 0.304888 0.154335
S6    S     S_3+6 0.414458 0.684203 0.023800 0.095593
S7    S     S_3+6 0.588761 0.317249 0.975585 0.100434
S8    S     S_3+6 0.791681 0.926311 0.437809 0.153216
S9    S     S_3+6 0.207882 0.075135 0.565160 0.164574
S10   S     S_3+6 0.712562 0.127590 0.627255 0.132555

loop_
_geom_bond_atom_site_label_1
_geom_bond_atom_site_label_2
_ccdc_geom_bond_type
C17   O35   A    
Cu2   O23   S    
Cu1   O37   S    
O10   S5    D    
O19   S7    S    
O27   S10   D    
H3    O6    S    
C5    C6    D    
C11   C14   A    
C6    S6    S    
Cu1   N1    S    
O32   S2    S    
O15   S6    D    
C20   S4    S    
O14   S6    D    
H6    O16   S    
C16   O34   A    
O5    S3    D    
C5    S7    S    
O18   S7    D    
Cu2   O35   S    
H2    O32   S    
C2    N2    A    
O28   S10   D    
Cu1   Cu2   S    
Cu1   O33   S    
C4    C7    T    
O16   S6    S    
H4    O9    S    
O20   S8    D    
O4    S3    D    
C11   S10   S    
Cu2   N2    S    
C12   O33   A    
O29   S10   S    
C16   O36   A    
C12   O12   A    
C3    C8    T    
C10   C14   A    
O24   S9    D    
H1    O3    S    
H8    O22   S    
O31   S2    D    
C9    S8    S    
H9    O26   S    
C4    C16   S    
C1    O23   A    
C18   N2    A    
O26   S9    S    
C9    C11   A    
C1    C15   S    
C20   N1    A    
Cu2   O12   S    
C12   C14   S    
C17   O37   A    
C18   S1    S    
C13   C15   A    
Cu1   O34   S    
C19   N1    A    
O13   S5    S    
C1    O1    A    
H5    O13   S    
O9    S4    S    
O3    S1    S    
C2    C19   A    
O25   S9    D    
H10   O29   S    
O38   S1    D    
C10   C13   A    
C5    C8    S    
C6    C7    S    
Cu1   O1    S    
C10   S9    S    
O8    S4    D    
O22   S8    S    
O6    S3    S    
C19   S3    S    
C9    C15   A    
C2    S5    S    
O7    S4    D    
O21   S8    D    
H7    O19   S    
C3    C17   S    
C18   C20   A    
O17   S7    D    
O2    S1    D    
C13   S2    S    
O30   S2    D    
O11   S5    D    
Cu2   O36   S    
