data_mof_unit_22257.cif
_audit_creation_date              2013-03-05T15:41:39-0500
_audit_creation_method            fapswitch 2.2
_symmetry_space_group_name_H-M    P1
_symmetry_Int_Tables_number       1
_space_group_crystal_system       triclinic
_cell_length_a                    17.155011
_cell_length_b                    8.693134
_cell_length_c                    7.449354
_cell_angle_alpha                 103.110942
_cell_angle_beta                  89.036178
_cell_angle_gamma                 92.860779
_cell_volume                      1080.60358348

loop_
_atom_site_label
_atom_site_type_symbol
_atom_site_description
_atom_site_fract_x
_atom_site_fract_y
_atom_site_fract_z
_atom_type_partial_charge
O1    O     O_R   0.505650 0.286040 0.618880 -0.582206
O2    O     O_R   0.494350 0.713960 0.381120 -0.582206
O3    O     O_R   0.490960 0.256910 0.309800 -0.588029
O4    O     O_R   0.509040 0.743090 0.690200 -0.588072
C1    C     C_R   0.497662 0.199801 0.453598 0.879874
C2    C     C_R   0.502339 0.800199 0.546402 0.879841
O5    O     O_R   0.394600 0.516230 0.672450 -0.587959
O6    O     O_R   0.605400 0.483770 0.327550 -0.587795
O7    O     O_R   0.379910 0.487100 0.363380 -0.572677
O8    O     O_R   0.620090 0.512900 0.636620 -0.572462
C3    C     C_R   0.351135 0.500318 0.527958 0.785967
C4    C     C_R   0.648858 0.499737 0.472046 0.785768
Cu1   Cu    Cu3+1 0.508700 0.517250 0.683000 0.961459
Cu2   Cu    Cu3+1 0.491300 0.482750 0.317000 0.961441
C5    C     C_R   0.266874 0.493568 0.550821 -0.030647
C6    C     C_R   0.733098 0.507218 0.449196 -0.030103
C7    C     C_R   0.221721 0.379312 0.428279 -0.163789
C8    C     C_R   0.777965 0.623081 0.570352 -0.163975
C9    C     C_R   0.140962 0.375293 0.444672 -0.081647
C10   C     C_R   0.858718 0.628273 0.553539 -0.081525
C11   C     C_R   0.104497 0.490225 0.578253 0.106468
C12   C     C_R   0.895466 0.513037 0.420939 0.106948
C13   C     C_R   0.149922 0.600382 0.705983 -0.056672
C14   C     C_R   0.850300 0.401050 0.294720 -0.056212
C15   C     C_R   0.231075 0.600920 0.693444 -0.193961
C16   C     C_R   0.769141 0.399306 0.307599 -0.193559
C17   C     C_2   0.019022 0.499048 0.577969 0.151157
C18   C     C_2   0.980988 0.505398 0.421322 0.150312
H1    H     H_    0.122989 0.689530 0.810571 0.189235
H2    H     H_    0.877467 0.311456 0.191129 0.188282
H3    H     H_    0.892741 0.719012 0.647841 0.167696
H4    H     H_    0.106739 0.285697 0.349346 0.167462
C19   C     C_2   0.496530 0.031814 0.427628 -0.364078
C20   C     C_2   0.503473 0.968185 0.572371 -0.364121
H5    H     H_    0.489976 0.960144 0.288196 0.179937
H6    H     H_    0.510027 0.039856 0.711803 0.179938
N1    N     N_2   0.478180 0.456750 0.041980 -0.215221
N2    N     N_2   0.521820 0.543250 0.958020 -0.215162
H7    H     H_    0.249006 0.293332 0.320277 0.145880
H8    H     H_    0.750456 0.709436 0.677531 0.145522
H9    H     H_    0.734672 0.310092 0.212275 0.151012
H10   H     H_    0.265748 0.688876 0.789868 0.151605
N3    N     N_R   0.023219 0.512225 0.254857 0.135051
O9    O     O_R   0.015818 0.395903 0.110714 -0.314645
O10   O     O_R   0.073946 0.628134 0.252309 -0.331583
N4    N     N_R   0.976747 0.492640 0.744463 0.135622
O11   O     O_R   0.926610 0.375889 0.747741 -0.330289
O12   O     O_R   0.983186 0.610374 0.887374 -0.315849
H11   H     H_    0.439132 0.379747 0.959180 0.228943
H12   H     H_    0.560868 0.620254 0.040820 0.229021

loop_
_geom_bond_atom_site_label_1
_geom_bond_atom_site_label_2
_geom_bond_distance
_ccdc_geom_bond_type
C15   H10   1.083602 S    
O7    Cu2   1.936854 S    
N1    N2    1.287834 D    
N2    H12   1.029129 S    
N1    H11   1.029128 S    
C18   N3    1.437010 S    
C20   H6    1.087662 S    
O6    C4    1.297152 A    
N3    O9    1.300310 A    
O3    C1    1.287737 A    
C13   C15   1.393582 A    
C19   C20   1.328246 D    
C11   C17   1.472204 S    
C12   C18   1.472010 S    
Cu1   Cu2   2.694463 S    
Cu2   N1    2.024687 S    
O5    C3    1.297253 A    
N3    O10   1.301353 A    
O7    C3    1.296668 A    
Cu1   N2    2.024687 S    
O2    C2    1.293614 A    
O3    Cu2   1.951510 S    
O8    C4    1.296644 A    
O1    C1    1.293614 A    
C9    H4    1.083070 S    
C13   H1    1.082035 S    
C17   N4    1.436798 S    
C6    C8    1.398231 A    
C19   H5    1.087662 S    
C10   C12   1.403508 A    
C8    C10   1.388272 A    
C11   C13   1.402399 A    
C6    C16   1.400706 A    
O2    Cu2   1.955897 S    
C12   C14   1.402183 A    
C5    C15   1.400830 A    
C14   H2    1.082026 S    
O1    Cu1   1.955898 S    
N4    O12   1.300546 A    
C4    C6    1.452246 S    
O5    Cu1   1.959780 S    
C16   H9    1.083457 S    
O4    C2    1.287737 A    
C7    H7    1.083736 S    
C17   C18   1.359746 D    
C5    C7    1.398392 A    
C8    H8    1.083731 S    
N4    O11   1.301482 A    
O6    Cu2   1.959784 S    
C7    C9    1.388141 A    
C3    C5    1.452471 S    
O8    Cu1   1.936854 S    
C2    C20   1.428102 S    
O4    Cu1   1.951510 S    
C14   C16   1.393538 A    
C9    C11   1.403626 A    
C10   H3    1.082973 S    
C1    C19   1.428104 S    
