data_mof_unit_5980.cif
_audit_creation_date              2012-12-10T20:25:41-0500
_audit_creation_method            fapswitch 2.2
_symmetry_space_group_name_H-M    P1
_symmetry_Int_Tables_number       1
_space_group_crystal_system       triclinic
_cell_length_a                    8.587048
_cell_length_b                    10.661716
_cell_length_c                    9.924222
_cell_angle_alpha                 90.055732
_cell_angle_beta                  98.248326
_cell_angle_gamma                 90.258505
_cell_volume                      899.179808658

loop_
_atom_site_label
_atom_site_type_symbol
_atom_type_description
_atom_site_fract_x
_atom_site_fract_y
_atom_site_fract_z
_atom_type_partial_charge
C1    C     C_R   0.501340 0.260535 0.500313 0.930662
C2    C     C_R   0.607090 0.937251 0.416184 0.422123
C3    C     C_R   0.521591 0.871468 0.505137 -0.158883
C4    C     C_R   0.457423 0.935852 0.606030 -0.033462
C5    C     C_3   0.303196 0.925147 0.659606 0.532957
C6    C     C_3   0.299584 0.069050 0.659178 0.029425
C7    C     C_R   0.390009 0.432784 0.057333 0.128607
C8    C     C_R   0.611971 0.562466 0.086511 -0.080107
C9    C     C_R   0.610346 0.565190 0.943286 0.335425
C10   C     C_R   0.392647 0.429768 0.915324 0.099800
C11   C     C_3   0.219387 0.446619 0.886562 -0.489735
C12   C     C_R   0.201429 0.500173 0.464292 1.019508
C13   C     C_3   0.216107 0.453360 0.038261 0.097805
C14   C     C_R   0.505989 0.739494 0.500805 0.985190
C15   C     C_R   0.798192 0.499973 0.535162 0.977585
C16   C     C_2   0.036162 0.501042 0.444288 -0.269917
C17   C     C_2   0.962620 0.499149 0.553030 -0.285239
C18   C     C_R   0.454029 0.063085 0.605587 -0.030111
C19   C     C_R   0.514486 0.129025 0.504117 -0.094018
C20   C     C_R   0.601581 0.067284 0.415471 -0.195549
H1    H     H_    0.975387 0.503378 0.340286 0.191153
H2    H     H_    0.189655 0.537153 0.834310 0.264318
H3    H     H_    0.158792 0.362342 0.837666 0.193742
H4    H     H_    0.150702 0.374556 0.077821 0.140471
H5    H     H_    0.022286 0.496253 0.655868 0.176100
H6    H     H_    0.661528 0.119439 0.344323 0.198322
H7    H     H_    0.313536 0.111235 0.762714 0.148408
H8    H     H_    0.700361 0.615148 0.152128 0.212702
N1    N     N_R   0.498950 0.499140 0.142680 -0.120679
N2    N     N_R   0.498950 0.499180 0.857030 -0.128464
O1    O     O_R   0.500020 0.316790 0.614690 -0.616776
O2    O     O_R   0.500000 0.316760 0.385350 -0.630578
O3    O     O_R   0.271760 0.500010 0.587850 -0.616410
O4    O     O_R   0.271740 0.499970 0.358500 -0.595348
O5    O     O_R   0.500000 0.683240 0.614650 -0.576824
O6    O     O_R   0.499980 0.683210 0.385310 -0.560968
O7    O     O_R   0.728260 0.500030 0.641500 -0.598141
O8    O     O_R   0.728240 0.499990 0.412150 -0.631021
Zn1   Zn    Zn3+2 0.500010 0.500020 0.653130 1.032906
Zn2   Zn    Zn3+2 0.499990 0.499980 0.346870 1.034595
Br1   Br    Br    0.758483 0.673978 0.875421 -0.334901
Br2   Br    Br    0.154840 0.620421 0.091139 -0.332396
Cl1   Cl    Cl    0.719774 0.862758 0.304448 -0.489124
Cl2   Cl    Cl    0.152839 0.846384 0.545715 -0.480697
Br3   Br    Br    0.328361 0.853763 0.841290 -0.353821
Br4   Br    Br    0.132389 0.147704 0.533412 -0.448638

loop_
_geom_bond_atom_site_label_1
_geom_bond_atom_site_label_2
_ccdc_geom_bond_type
C7    C10   A    
O5    Zn1   S    
C15   O8    A    
C16   H1    S    
C7    N1    A    
C10   N2    A    
C11   H2    S    
C9    Br1   S    
C6    H7    S    
C7    C13   S    
C2    Cl1   S    
C17   H5    S    
C19   C20   A    
C2    C3    A    
C4    C18   A    
O7    Zn1   S    
C5    Br3   S    
O8    Zn2   S    
C11   C13   S    
O3    Zn1   S    
C3    C14   S    
C20   H6    S    
C9    N2    A    
O4    Zn2   S    
C8    N1    A    
N1    Zn2   S    
C11   H3    S    
C13   Br2   S    
C5    Cl2   S    
O1    Zn1   S    
N2    Zn1   S    
O2    Zn2   S    
C14   O6    A    
C5    C6    S    
C8    H8    S    
C6    C18   S    
C1    C19   S    
C16   C17   D    
C10   C11   S    
C12   O4    A    
C3    C4    A    
C1    O1    A    
C18   C19   A    
C14   O5    A    
C15   C17   S    
C8    C9    A    
O6    Zn2   S    
C6    Br4   S    
C12   O3    A    
C2    C20   A    
C1    O2    A    
C15   O7    A    
C12   C16   S    
C13   H4    S    
C4    C5    S    
