data_mof_unit_57364.cif
_audit_creation_date              2012-12-11T15:34:09-0500
_audit_creation_method            fapswitch 2.2
_symmetry_space_group_name_H-M    P1
_symmetry_Int_Tables_number       1
_space_group_crystal_system       triclinic
_cell_length_a                    15.067842
_cell_length_b                    15.078483
_cell_length_c                    34.934939
_cell_angle_alpha                 90.493398
_cell_angle_beta                  89.975958
_cell_angle_gamma                 60.056271
_cell_volume                      6877.37593177

loop_
_atom_site_label
_atom_site_type_symbol
_atom_type_description
_atom_site_fract_x
_atom_site_fract_y
_atom_site_fract_z
_atom_type_partial_charge
C1    C     C_R   0.302565 0.608203 0.555751 0.543338
C2    C     C_R   0.657538 0.661416 0.668715 0.033537
C3    C     C_R   0.263517 0.654083 0.266207 -0.117831
C4    C     C_R   0.197916 0.635242 0.288914 0.027306
C5    C     C_R   0.127276 0.613412 0.271483 -0.118347
C6    C     C_R   0.119195 0.614839 0.231782 -0.115771
C7    C     C_R   0.182396 0.637147 0.208989 0.028215
C8    C     C_R   0.212858 0.556734 0.352633 -0.121959
C9    C     C_R   0.235219 0.551937 0.391501 -0.126571
C10   C     C_R   0.230337 0.714882 0.387584 -0.125046
C11   C     C_R   0.208735 0.719201 0.348734 -0.122375
C12   C     C_R   0.204114 0.638172 0.330763 0.031064
C13   C     C_R   0.565799 0.726382 0.649674 -0.124225
C14   C     C_R   0.248812 0.628746 0.408870 0.022912
C15   C     C_R   0.736003 0.025420 0.943313 0.544707
C16   C     C_R   0.745963 0.722901 0.945058 0.546068
C17   C     C_R   0.038207 0.734057 0.948328 0.540748
C18   C     C_R   0.722851 0.039100 0.052806 0.563317
C19   C     C_R   0.733434 0.734441 0.054700 0.542811
C20   C     C_R   0.028037 0.744381 0.057705 0.539201
C21   C     C_R   0.553047 0.707490 0.611498 -0.133288
C22   C     C_R   0.673490 0.674682 0.788058 0.345195
C23   C     C_R   0.665079 0.669220 0.710544 0.344892
C24   C     C_R   0.762526 0.599212 0.849516 -0.122586
C25   C     C_R   0.778938 0.609938 0.888087 -0.129993
C26   C     C_R   0.628122 0.778795 0.889110 -0.132005
C27   C     C_R   0.611569 0.767942 0.850521 -0.124581
C28   C     C_R   0.681075 0.679762 0.829995 0.034220
C29   C     C_R   0.610723 0.588433 0.555207 0.545853
C30   C     C_R   0.714392 0.701579 0.907806 0.023281
C31   C     C_R   0.723279 0.072345 0.905397 0.023046
C32   C     C_R   0.633147 0.101682 0.884612 -0.123987
C33   C     C_R   0.629470 0.121900 0.845677 -0.119915
C34   C     C_R   0.715388 0.114081 0.826903 0.030925
C35   C     C_R   0.802579 0.093124 0.848142 -0.120580
C36   C     C_R   0.806635 0.072155 0.887160 -0.124595
C37   C     C_R   0.747266 0.183948 0.767154 -0.114084
C38   C     C_R   0.740800 0.195173 0.727475 -0.111325
C39   C     C_R   0.703531 0.143084 0.704975 0.026902
C40   C     C_R   0.590389 0.300301 0.553498 0.544263
C41   C     C_R   0.676610 0.076645 0.722750 -0.115253
C42   C     C_R   0.682240 0.066182 0.762377 -0.113414
C43   C     C_R   0.715586 0.121350 0.784911 0.024983
C44   C     C_R   0.591729 0.180638 0.647730 -0.118163
C45   C     C_R   0.564535 0.217823 0.610687 -0.125281
C46   C     C_R   0.723568 0.219915 0.604131 -0.125387
C47   C     C_R   0.750933 0.182320 0.641169 -0.119996
C48   C     C_R   0.683622 0.165757 0.663776 0.032592
C49   C     C_R   0.628438 0.241444 0.589069 0.021473
C50   C     C_R   0.091619 0.697520 0.911231 0.021355
C51   C     C_R   0.300413 0.610197 0.446038 0.543647
C52   C     C_R   0.121756 0.758493 0.891074 -0.125005
C53   C     C_R   0.145324 0.741017 0.852225 -0.120699
C54   C     C_R   0.140305 0.661692 0.832964 0.030994
C55   C     C_R   0.119891 0.594623 0.853737 -0.117433
C56   C     C_R   0.095486 0.612505 0.892648 -0.125508
C57   C     C_R   0.210504 0.561717 0.772192 -0.109859
C58   C     C_R   0.218916 0.557657 0.732340 -0.106923
C59   C     C_R   0.163243 0.646848 0.710602 0.032611
C60   C     C_R   0.096845 0.739414 0.729413 -0.110338
C61   C     C_R   0.089275 0.743588 0.769188 -0.107814
C62   C     C_R   0.607845 0.589628 0.445232 0.542454
C63   C     C_R   0.147272 0.655172 0.790889 0.031136
C64   C     C_R   0.191076 0.723821 0.652052 -0.117174
C65   C     C_R   0.223375 0.715331 0.614157 -0.124957
C66   C     C_R   0.230455 0.551678 0.608421 -0.127228
C67   C     C_R   0.197718 0.560406 0.646337 -0.119894
C68   C     C_R   0.181245 0.644861 0.668902 0.033448
C69   C     C_R   0.247159 0.627374 0.592428 0.021308
C70   C     C_R   0.691448 0.718259 0.090413 0.020824
C71   C     C_R   0.605268 0.799933 0.108133 -0.129686
C72   C     C_R   0.578142 0.790486 0.145464 -0.123778
C73   C     C_R   0.587711 0.303259 0.443669 0.542868
C74   C     C_R   0.636568 0.699218 0.165627 0.031493
C75   C     C_R   0.718023 0.615296 0.146838 -0.118076
C76   C     C_R   0.745091 0.624669 0.109593 -0.123209
C77   C     C_R   0.632864 0.603853 0.223314 -0.120397
C78   C     C_R   0.632814 0.594023 0.262936 -0.118834
C79   C     C_R   0.619763 0.674605 0.287098 0.026524
C80   C     C_R   0.602414 0.766780 0.271065 -0.117589
C81   C     C_R   0.603282 0.776390 0.231392 -0.114983
C82   C     C_R   0.620585 0.694229 0.207151 0.027903
C83   C     C_R   0.549380 0.734917 0.352933 -0.122069
C84   C     C_R   0.631870 0.623364 0.591789 0.022525
C85   C     C_R   0.548088 0.715420 0.391861 -0.126464
C86   C     C_R   0.704238 0.552290 0.383742 -0.125466
C87   C     C_R   0.704905 0.571435 0.344840 -0.122163
C88   C     C_R   0.625613 0.661201 0.328928 0.030651
C89   C     C_R   0.623474 0.622167 0.407338 0.022481
C90   C     C_R   0.697925 0.102713 0.087903 0.034336
C91   C     C_R   0.766441 0.132292 0.103054 0.272096
C92   C     C_R   0.749118 0.175270 0.140061 -0.106433
C93   C     C_R   0.667470 0.184940 0.162410 -0.012449
C94   C     C_R   0.596018 0.162395 0.146151 -0.140417
C95   C     C_R   0.726563 0.564027 0.609860 -0.130647
C96   C     C_R   0.610638 0.122502 0.109205 -0.175917
C97   C     C_R   0.570265 0.267920 0.222493 -0.115961
C98   C     C_R   0.565557 0.273898 0.262317 -0.118628
C99   C     C_R   0.654435 0.217027 0.284109 0.027741
C100  C     C_R   0.748769 0.157596 0.265476 -0.117131
C101  C     C_R   0.753491 0.151594 0.225659 -0.115501
C102  C     C_R   0.663969 0.205120 0.203875 0.031956
C103  C     C_R   0.719115 0.233611 0.347926 -0.122620
C104  C     C_R   0.704834 0.251024 0.387261 -0.126987
C105  C     C_R   0.553317 0.233917 0.384096 -0.125591
C106  C     C_R   0.739259 0.582846 0.647978 -0.123226
C107  C     C_R   0.567635 0.216596 0.344779 -0.121904
C108  C     C_R   0.648184 0.220497 0.326204 0.032147
C109  C     C_R   0.619129 0.255950 0.405398 0.022519
C110  C     C_R   0.087184 0.705673 0.093116 0.022392
C111  C     C_R   0.099610 0.615474 0.109562 -0.126248
C112  C     C_R   0.137777 0.588851 0.146489 -0.123442
C113  C     C_R   0.163725 0.652148 0.167558 0.032922
C114  C     C_R   0.159695 0.737406 0.149901 -0.120943
C115  C     C_R   0.122237 0.763628 0.112839 -0.133360
C116  C     C_R   0.255995 0.654792 0.226500 -0.120097
Cr1   Cr    Cr6+3 0.421670 0.426920 0.499620 1.009901
Cr2   Cr    Cr6+3 0.427030 0.651190 0.500980 1.010380
Cr3   Cr    Cr6+3 0.651280 0.421870 0.499380 1.009874
Cr4   Cr    Cr6+3 0.910810 0.908010 0.001130 1.038722
Cr5   Cr    Cr6+3 0.682800 0.909890 0.998370 1.009485
Cr6   Cr    Cr6+3 0.908370 0.682300 0.002180 1.011466
H1    H     H_    0.789123 0.499327 0.595270 0.129110
H2    H     H_    0.877212 0.049666 0.902401 0.127567
H3    H     H_    0.823090 0.169644 0.652615 0.102687
H4    H     H_    0.760682 0.248082 0.714625 0.112849
H5    H     H_    0.773224 0.227079 0.784083 0.111531
H6    H     H_    0.560669 0.140113 0.829875 0.106869
H7    H     H_    0.649384 0.034231 0.706063 0.112068
H8    H     H_    0.659676 0.015575 0.775526 0.118271
H9    H     H_    0.537781 0.169519 0.664571 0.104034
H10   H     H_    0.490732 0.233623 0.599895 0.127256
H11   H     H_    0.869563 0.087073 0.834139 0.103297
H12   H     H_    0.479310 0.754934 0.598249 0.127659
H13   H     H_    0.774837 0.236586 0.588012 0.124638
H14   H     H_    0.120347 0.824088 0.904600 0.127884
H15   H     H_    0.072731 0.564079 0.907410 0.126351
H16   H     H_    0.188748 0.499408 0.658405 0.104057
H17   H     H_    0.271923 0.485514 0.718681 0.105752
H18   H     H_    0.255686 0.492695 0.788470 0.105823
H19   H     H_    0.162982 0.792354 0.836781 0.108554
H20   H     H_    0.051683 0.808895 0.713388 0.106332
H21   H     H_    0.038050 0.816064 0.783078 0.110454
H22   H     H_    0.179850 0.789456 0.668777 0.105219
H23   H     H_    0.845719 0.548773 0.901766 0.129747
H24   H     H_    0.235501 0.774970 0.602681 0.126886
H25   H     H_    0.116010 0.532719 0.839364 0.108589
H26   H     H_    0.247507 0.483257 0.592297 0.123796
H27   H     H_    0.562105 0.872926 0.094006 0.124354
H28   H     H_    0.811599 0.560206 0.096654 0.130452
H29   H     H_    0.765552 0.514451 0.326874 0.102977
H30   H     H_    0.643885 0.523033 0.274768 0.111793
H31   H     H_    0.644612 0.540000 0.205318 0.107390
H32   H     H_    0.513913 0.855788 0.159083 0.099624
H33   H     H_    0.592160 0.829822 0.289233 0.104674
H34   H     H_    0.811594 0.532581 0.661652 0.131334
H35   H     H_    0.595135 0.846418 0.219785 0.104710
H36   H     H_    0.487671 0.804846 0.341207 0.100974
H37   H     H_    0.484829 0.770713 0.409318 0.121761
H38   H     H_    0.765087 0.544226 0.161711 0.103722
H39   H     H_    0.763440 0.479745 0.394729 0.125252
H40   H     H_    0.556804 0.100714 0.098380 0.136215
H41   H     H_    0.513468 0.204021 0.328632 0.101667
H42   H     H_    0.492307 0.322427 0.276124 0.109396
H43   H     H_    0.500475 0.310634 0.206251 0.108152
H44   H     H_    0.501795 0.788329 0.664769 0.130750
H45   H     H_    0.801432 0.197650 0.151983 0.104406
H46   H     H_    0.818190 0.113010 0.281715 0.102654
H47   H     H_    0.826424 0.101209 0.211973 0.098206
H48   H     H_    0.781973 0.236689 0.334200 0.099133
H49   H     H_    0.756955 0.267675 0.402898 0.123850
H50   H     H_    0.532393 0.169044 0.162875 0.114831
H51   H     H_    0.486944 0.236594 0.397281 0.125808
H52   H     H_    0.074903 0.568208 0.094750 0.126934
H53   H     H_    0.115565 0.832298 0.100521 0.110685
H54   H     H_    0.199977 0.783726 0.332333 0.103834
H55   H     H_    0.816436 0.529509 0.834638 0.130747
H56   H     H_    0.320248 0.668726 0.279248 0.112108
H57   H     H_    0.306420 0.670819 0.209517 0.107257
H58   H     H_    0.142481 0.521417 0.159239 0.100831
H59   H     H_    0.076142 0.598704 0.288614 0.105216
H60   H     H_    0.060503 0.602802 0.219031 0.105809
H61   H     H_    0.209019 0.493734 0.339193 0.101303
H62   H     H_    0.248644 0.484821 0.407250 0.123571
H63   H     H_    0.179045 0.787696 0.165549 0.100117
H64   H     H_    0.239597 0.775600 0.400215 0.127435
H65   H     H_    0.576684 0.850163 0.903613 0.127577
H66   H     H_    0.547375 0.830879 0.836376 0.129714
H67   H     H_    0.567394 0.103205 0.897859 0.128369
N1    N     N_R   0.750460 0.597845 0.767631 -0.237787
N2    N     N_R   0.746184 0.595000 0.729675 -0.238033
N3    N     N_R   0.588069 0.746274 0.730945 -0.240006
N4    N     N_R   0.592474 0.749267 0.768950 -0.240025
O1    O     O_R   0.502070 0.323090 0.541280 -0.520404
O2    O     O_R   0.520720 0.641670 0.461580 -0.501933
O3    O     O_R   0.674120 0.502090 0.457500 -0.521718
O4    O     O_R   0.640110 0.338380 0.459630 -0.504179
O5    O     O_3   0.499990 0.499990 0.499990 -0.235082
O6    O     O_R   0.017640 0.822070 0.960410 -0.521701
O7    O     O_R   0.822000 0.989470 0.960340 -0.499611
O8    O     O_R   0.666920 0.007430 0.955290 -0.521061
O9    O     O_R   0.694410 0.812480 0.959650 -0.502497
O10   O     O_R   0.831550 0.656950 0.958960 -0.519637
O11   O     O_R   0.998590 0.685540 0.963930 -0.502777
O12   O     O_R   0.338340 0.520690 0.539540 -0.502527
O13   O     O_R   0.008220 0.831200 0.045060 -0.523254
O14   O     O_R   0.813270 0.997930 0.038810 -0.448416
O15   O     O_R   0.657500 0.016560 0.039940 -0.534649
O16   O     O_R   0.685680 0.820940 0.038120 -0.503782
O17   O     O_R   0.822130 0.666070 0.043610 -0.518728
O18   O     O_R   0.989860 0.694000 0.042400 -0.503657
O19   O     O_3   0.833990 0.833400 0.000560 -0.243110
O20   O     O_R   0.324760 0.674070 0.543580 -0.520949
O21   O     O_R   0.522400 0.640310 0.540110 -0.502936
O22   O     O_R   0.675940 0.500630 0.542210 -0.519323
O23   O     O_R   0.641790 0.337020 0.538150 -0.501769
O24   O     O_R   0.500260 0.324550 0.456580 -0.520282
O25   O     O_R   0.336660 0.522040 0.461020 -0.503042
O26   O     O_R   0.322940 0.675540 0.458880 -0.520876
O27   O     O_3   0.847802 0.121795 0.081048 -0.551941
C117  C     C_3   0.941275 0.054602 0.099071 -0.102444
H68   H     H_    0.942129 0.985392 0.110510 0.118377
H69   H     H_    0.958404 0.094794 0.122175 0.092983
H70   H     H_    0.003722 0.027978 0.077523 0.144505

loop_
_geom_bond_atom_site_label_1
_geom_bond_atom_site_label_2
_ccdc_geom_bond_type
C75   H38   S    
C58   H17   S    
C41   H7    S    
C55   C56   A    
Cr3   O22   S    
N1    N2    A    
C56   H15   S    
C111  H52   S    
C41   C42   A    
Cr3   O23   S    
C35   C36   A    
C20   O13   A    
C87   C88   A    
C35   H11   S    
C23   N2    A    
C97   C98   A    
C90   C91   A    
C78   H30   S    
C104  C109  A    
C39   C41   A    
C40   O1    A    
C77   C78   A    
C44   C45   A    
C44   H9    S    
C99   C108  S    
C105  C107  A    
C46   C49   A    
C11   H54   S    
C93   C94   A    
C114  H63   S    
C6    H60   S    
C64   C68   A    
C92   C93   A    
C36   H2    S    
C3    H56   S    
Cr5   O9    S    
C34   C35   A    
C117  H70   S    
Cr1   O12   S    
C3    C116  A    
C31   C36   A    
C5    C6    A    
C65   C69   A    
Cr5   O19   S    
C66   C69   A    
C54   C63   S    
C16   C30   S    
C40   C49   S    
Cr3   O5    S    
C62   C89   S    
Cr4   O6    S    
C18   O15   A    
Cr3   O3    S    
C20   O18   A    
Cr6   O11   S    
C91   O27   S    
C61   C63   A    
C2    C13   A    
C110  C111  A    
C112  C113  A    
C115  H53   S    
Cr1   O1    S    
C105  H51   S    
C77   H31   S    
C46   H13   S    
C46   C47   A    
C61   H21   S    
C47   C48   A    
C8    C9    A    
C67   H16   S    
C73   O4    A    
C103  H48   S    
C50   C52   A    
C107  C108  A    
Cr6   O17   S    
C22   N4    A    
Cr1   O24   S    
C103  C108  A    
Cr5   O16   S    
C22   N1    A    
C16   O10   A    
C1    O12   A    
C66   H26   S    
C97   C102  A    
C112  H58   S    
C60   H20   S    
C83   C88   A    
C59   C60   A    
C22   C28   S    
C62   O2    A    
C74   C82   S    
C16   O9    A    
C5    H59   S    
O27   C117  S    
C38   H4    S    
C103  C104  A    
C114  C115  A    
C51   O25   A    
C38   C39   A    
C47   H3    S    
C81   H35   S    
C74   C75   A    
C13   C21   A    
C67   C68   A    
C18   C90   S    
C101  C102  A    
C72   H32   S    
C24   C25   A    
C29   C84   S    
C72   C74   A    
C10   C14   A    
C91   C92   A    
C9    C14   A    
C85   C89   A    
C78   C79   A    
C4    C5    A    
C64   H22   S    
C51   O26   A    
C58   C59   A    
C53   C54   A    
C15   C31   S    
C2    C106  A    
C33   H6    S    
C1    C69   S    
C57   H18   S    
C18   O14   A    
C84   C95   A    
C7    C116  A    
C37   C43   A    
C17   O11   A    
C75   C76   A    
C117  H68   S    
C10   H64   S    
C95   C106  A    
C59   C68   S    
C26   H65   S    
C55   H25   S    
C14   C51   S    
C21   C84   A    
C45   C49   A    
C8    C12   A    
C40   O23   A    
C33   C34   A    
C26   C27   A    
C73   O24   A    
Cr1   O25   S    
Cr2   O21   S    
C86   H39   S    
C94   C96   A    
Cr2   O2    S    
C24   H55   S    
C70   C71   A    
C79   C88   S    
C104  H49   S    
C20   C110  S    
C62   O3    A    
C8    H61   S    
C83   C85   A    
C107  H41   S    
C26   C30   A    
C37   C38   A    
C106  H34   S    
C1    O20   A    
C52   H14   S    
Cr6   O19   S    
Cr6   O10   S    
C4    C12   S    
C42   C43   A    
C29   O21   A    
C3    C4    A    
Cr2   O5    S    
C21   H12   S    
C2    C23   S    
C52   C53   A    
C86   C87   A    
C80   H33   S    
C113  C114  A    
C95   H1    S    
C25   C30   A    
C105  C109  A    
C54   C55   A    
C25   H23   S    
C15   O8    A    
C111  C112  A    
C19   O16   A    
Cr3   O4    S    
Cr4   O14   S    
C31   C32   A    
C34   C43   S    
C24   C28   A    
C57   C63   A    
C80   C81   A    
C86   C89   A    
C93   C102  S    
C98   H42   S    
C11   C12   A    
C90   C96   A    
C6    C7    A    
C17   C50   S    
C94   H50   S    
C42   H8    S    
C99   C100  A    
C100  H46   S    
Cr4   O13   S    
N3    N4    A    
C7    C113  S    
Cr5   O8    S    
C71   C72   A    
C117  H69   S    
C9    H62   S    
C64   C65   A    
C70   C76   A    
C15   O7    A    
C92   H45   S    
C57   C58   A    
C71   H27   S    
C83   H36   S    
C13   H44   S    
C77   C82   A    
C97   H43   S    
C100  C101  A    
Cr4   O7    S    
C96   H40   S    
C32   H67   S    
C66   C67   A    
Cr2   O20   S    
C53   H19   S    
C73   C109  S    
C101  H47   S    
C32   C33   A    
C23   N3    A    
C50   C56   A    
C29   O22   A    
C10   C11   A    
C79   C80   A    
Cr4   O19   S    
C76   H28   S    
C45   H10   S    
C81   C82   A    
C98   C99   A    
C116  H57   S    
Cr2   O26   S    
Cr6   O18   S    
C60   C61   A    
C19   C70   S    
C87   H29   S    
C85   H37   S    
Cr5   O15   S    
C37   H5    S    
C65   H24   S    
C17   O6    A    
C27   H66   S    
C110  C115  A    
Cr1   O5    S    
C44   C48   A    
C19   O17   A    
C39   C48   S    
C27   C28   A    
