data_mof_unit_15582.cif
_audit_creation_date              2012-12-11T15:28:41-0500
_audit_creation_method            fapswitch 2.2
_symmetry_space_group_name_H-M    P1
_symmetry_Int_Tables_number       1
_space_group_crystal_system       triclinic
_cell_length_a                    6.955047
_cell_length_b                    19.605872
_cell_length_c                    23.362203
_cell_angle_alpha                 96.026405
_cell_angle_beta                  91.702192
_cell_angle_gamma                 88.128015
_cell_volume                      3165.26191235

loop_
_atom_site_label
_atom_site_type_symbol
_atom_type_description
_atom_site_fract_x
_atom_site_fract_y
_atom_site_fract_z
_atom_type_partial_charge
O1    O     O_R   0.617180 0.809390 0.808140 -0.511001
O2    O     O_R   0.382820 0.190610 0.191860 -0.513448
O3    O     O_R   0.293300 0.672410 0.795490 -0.535110
O4    O     O_R   0.706700 0.327590 0.204510 -0.536274
O5    O     O_R   0.117220 0.690610 0.691850 -0.522932
O6    O     O_R   0.882780 0.309390 0.308150 -0.523566
C1    C     C_R   0.465912 0.647727 0.805099 0.696190
C2    C     C_R   0.534088 0.352273 0.194900 0.690872
O7    O     O_R   0.287840 0.807750 0.814460 -0.526234
O8    O     O_R   0.712160 0.192250 0.185540 -0.529825
O9    O     O_R   0.111720 0.826910 0.710960 -0.543119
O10   O     O_R   0.888280 0.173090 0.289040 -0.538083
C3    C     C_R   0.456641 0.830526 0.833317 0.712770
C4    C     C_R   0.543445 0.169159 0.166891 0.737513
O11   O     O_R   0.622680 0.673080 0.789040 -0.534214
O12   O     O_R   0.377320 0.326920 0.210960 -0.535914
O13   O     O_3   0.448820 0.756130 0.716020 -0.365360
O14   O     O_3   0.551180 0.243870 0.283980 -0.359217
V1    V     V_3+5 0.176220 0.748860 0.756300 1.415887
V2    V     V_3+5 0.823780 0.251140 0.243700 1.420050
O15   O     O_R   0.781670 0.827580 0.704500 -0.526092
O16   O     O_R   0.218330 0.172420 0.295500 -0.516269
C5    C     C_R   0.945733 0.852688 0.694652 0.756568
C6    C     C_R   0.054121 0.147582 0.305548 0.746780
O17   O     O_R   0.787130 0.692240 0.685530 -0.527464
O18   O     O_R   0.212870 0.307760 0.314470 -0.528333
C7    C     C_R   0.956031 0.669227 0.666768 0.711486
C8    C     C_R   0.043969 0.330775 0.333230 0.708635
V3    V     V_3+5 0.675510 0.751130 0.743690 1.433997
V4    V     V_3+5 0.324490 0.248870 0.256310 1.454611
O19   O     O_3   0.952780 0.743870 0.783980 -0.356565
O20   O     O_3   0.047220 0.256130 0.216020 -0.361598
C9    C     C_1   0.966424 0.617170 0.614715 -0.212711
C10   C     C_1   0.033576 0.382833 0.385284 -0.212101
C11   C     C_1   0.978021 0.573659 0.571905 0.004276
C12   C     C_1   0.021979 0.426344 0.428094 0.004154
C13   C     C_1   0.993365 0.521859 0.521311 0.004291
C14   C     C_1   0.006635 0.478143 0.478688 0.004246
C15   C     C_R   0.932051 0.915706 0.664067 -0.152450
C16   C     C_R   0.066752 0.084718 0.336106 -0.154522
C17   C     C_R   0.755372 0.022048 0.650936 -0.231130
C18   C     C_R   0.248423 0.979574 0.349405 -0.209810
C19   C     C_R   0.801963 0.968534 0.684554 0.438170
C20   C     C_R   0.190390 0.030374 0.314591 0.443086
C21   C     C_R   0.014805 0.917924 0.609881 -0.289278
C22   C     C_R   0.988820 0.083451 0.390956 -0.267386
C23   C     C_R   0.963055 0.971180 0.574224 0.053301
C24   C     C_R   0.041792 0.030288 0.426539 0.049535
C25   C     C_R   0.824960 0.021855 0.595218 -0.030669
C26   C     C_R   0.180477 0.979838 0.405444 -0.039600
C27   C     C_R   0.038022 0.974750 0.517878 -0.017538
C28   C     C_R   0.968187 0.026982 0.483031 -0.018061
C29   C     C_R   0.823757 0.073426 0.505203 -0.264957
C30   C     C_R   0.183190 0.928559 0.495737 -0.264664
C31   C     C_R   0.751629 0.070823 0.559820 0.453808
C32   C     C_R   0.255573 0.931359 0.441069 0.453278
H1    H     H_    0.898861 0.127027 0.406025 0.127442
H2    H     H_    0.107841 0.875003 0.595271 0.127072
H3    H     H_    0.659353 0.063197 0.668136 0.173655
H4    H     H_    0.351787 0.940621 0.332485 0.179892
H5    H     H_    0.758959 0.112040 0.480652 0.145833
H6    H     H_    0.247909 0.889968 0.520345 0.143157
C33   C     C_R   0.489265 0.585658 0.835340 -0.048264
C34   C     C_R   0.510736 0.414344 0.164660 -0.046628
C35   C     C_R   0.609924 0.468588 0.834740 -0.157812
C36   C     C_R   0.390083 0.531416 0.165262 -0.159403
C37   C     C_R   0.568288 0.526090 0.805993 -0.164077
C38   C     C_R   0.431711 0.473911 0.194008 -0.164426
C39   C     C_R   0.452444 0.587511 0.894293 -0.215116
C40   C     C_R   0.547566 0.412494 0.105709 -0.215423
C41   C     C_R   0.498704 0.529946 0.925200 0.086486
C42   C     C_R   0.501313 0.470060 0.074803 0.086454
C43   C     C_R   0.577915 0.470139 0.893859 0.136562
C44   C     C_R   0.422101 0.529866 0.106145 0.137692
C45   C     C_R   0.472998 0.529926 0.985974 0.057600
C46   C     C_R   0.527024 0.470081 0.014030 0.057008
C47   C     C_R   0.604003 0.412204 0.980341 -0.185910
C48   C     C_R   0.396023 0.587804 0.019663 -0.186647
C49   C     C_R   0.628115 0.412385 0.921646 -0.196728
C50   C     C_R   0.371909 0.587622 0.078358 -0.198667
H7    H     H_    0.688711 0.366710 0.897731 0.128479
H8    H     H_    0.311315 0.633297 0.102273 0.125903
H9    H     H_    0.605350 0.364756 0.085211 0.097216
H10   H     H_    0.394661 0.635248 0.914790 0.097086
H11   H     H_    0.400364 0.475610 0.239306 0.110207
H12   H     H_    0.599628 0.524390 0.760695 0.110763
H13   H     H_    0.671289 0.423067 0.810841 0.120042
H14   H     H_    0.328717 0.576936 0.189162 0.118615
H15   H     H_    0.648360 0.365491 0.998009 0.125158
H16   H     H_    0.351673 0.634518 0.001995 0.124119
C51   C     C_1   0.467477 0.882551 0.885405 -0.206652
C52   C     C_1   0.532574 0.116977 0.114918 -0.210360
C53   C     C_1   0.478849 0.926058 0.928237 0.009776
C54   C     C_1   0.521131 0.073394 0.072140 -0.004359
C55   C     C_1   0.493602 0.977848 0.978877 0.002643
C56   C     C_1   0.506321 0.021563 0.021533 -0.001839
O21   O     O_3   0.607334 0.117402 0.578576 -0.551950
C57   C     C_3   0.428694 0.090436 0.558859 -0.248026
H17   H     H_    0.403917 0.040760 0.576194 0.135741
H18   H     H_    0.417418 0.083991 0.510965 0.138854
H19   H     H_    0.312122 0.127025 0.574519 0.178750
O22   O     O_3   0.400008 0.884929 0.422190 -0.553029
C58   C     C_3   0.578342 0.911573 0.442551 -0.245185
H20   H     H_    0.588750 0.917145 0.490456 0.135701
H21   H     H_    0.603496 0.961643 0.425938 0.141961
H22   H     H_    0.695152 0.875229 0.426648 0.177784
O23   O     O_3   0.273996 0.030606 0.261657 -0.554062
C59   C     C_3   0.145142 0.001697 0.218835 -0.253449
H23   H     H_    0.008684 0.032816 0.217236 0.126652
H24   H     H_    0.114549 0.947703 0.225394 0.139399
H25   H     H_    0.212791 0.001096 0.176365 0.167326
O24   O     O_3   0.726625 0.968226 0.738907 -0.557198
C60   C     C_3   0.523710 0.966020 0.734697 -0.184861
H26   H     H_    0.473728 0.925926 0.700626 0.128826
H27   H     H_    0.458523 0.016922 0.727363 0.126099
H28   H     H_    0.469980 0.952976 0.776243 0.146109

loop_
_geom_bond_atom_site_label_1
_geom_bond_atom_site_label_2
_ccdc_geom_bond_type
C36   C38   A    
O11   V3    S    
O13   V3    S    
C55   C56   T    
O4    C2    A    
V1    O19   S    
O21   C57   S    
C23   C25   A    
C48   H16   S    
C16   C22   A    
O9    V1    S    
C34   C38   A    
C11   C13   S    
O3    C1    A    
C36   H14   S    
C9    C11   T    
C48   C50   A    
O12   V4    S    
C36   C44   A    
C35   C43   A    
C59   H23   S    
C21   C23   A    
C39   C41   A    
O7    C3    A    
C6    C16   S    
O5    C7    A    
C29   H5    S    
O7    V1    S    
O6    C8    A    
C33   C39   A    
O8    V2    S    
C35   C37   A    
O23   C59   S    
O3    V1    S    
O14   V4    S    
C34   C40   A    
V4    O20   S    
C10   C12   T    
C42   C46   A    
C15   C21   A    
C60   H28   S    
C24   C26   A    
C8    C10   S    
C53   C55   S    
C44   C50   A    
C3    C51   S    
C38   H11   S    
C17   C19   A    
O10   V2    S    
C18   C20   A    
C4    C52   S    
C17   C25   A    
O24   C60   S    
C35   H13   S    
C22   C24   A    
C29   C31   A    
O17   V3    S    
C33   C37   A    
C21   H2    S    
C27   C28   A    
C46   C47   A    
C17   H3    S    
C42   C44   A    
O8    C4    A    
C18   H4    S    
C49   H7    S    
C15   C19   A    
C1    O11   A    
C30   H6    S    
C25   C31   A    
O15   V3    S    
C26   C32   A    
C45   C46   A    
C13   C14   T    
C51   C53   T    
C16   C20   A    
C47   H15   S    
C31   O21   S    
O1    V3    S    
C43   C49   A    
C47   C49   A    
C58   H21   S    
C54   C56   S    
C40   H9    S    
C1    C33   S    
C18   C26   A    
C50   H8    S    
C2    C34   S    
O18   V4    S    
C57   H18   S    
O15   C5    A    
C22   H1    S    
O16   C6    A    
O1    C3    A    
C19   O24   S    
C58   H20   S    
C28   C29   A    
C41   C43   A    
C60   H26   S    
V2    O20   S    
C20   O23   S    
C37   H12   S    
O16   V4    S    
C23   C27   A    
C30   C32   A    
O5    V1    S    
O17   C7    A    
C57   H19   S    
O6    V2    S    
O10   C6    A    
O18   C8    A    
C59   H25   S    
O2    V4    S    
C27   C30   A    
C12   C14   S    
C32   O22   S    
V3    O19   S    
C39   H10   S    
C41   C45   A    
C52   C54   T    
C5    C15   S    
O9    C5    A    
O13   V1    S    
C59   H24   S    
C58   H22   S    
O14   V2    S    
O22   C58   S    
O2    C4    A    
C45   C48   A    
O4    V2    S    
C24   C28   A    
C2    O12   A    
C57   H17   S    
C7    C9    S    
C40   C42   A    
C60   H27   S    
