data_mof_unit_37408.cif
_audit_creation_date              2012-12-11T14:50:39-0500
_audit_creation_method            fapswitch 2.2
_symmetry_space_group_name_H-M    P1
_symmetry_Int_Tables_number       1
_space_group_crystal_system       triclinic
_cell_length_a                    20.710273
_cell_length_b                    7.079755
_cell_length_c                    20.398606
_cell_angle_alpha                 90.070803
_cell_angle_beta                  101.411287
_cell_angle_gamma                 90.098893
_cell_volume                      2931.78626452

loop_
_atom_site_label
_atom_site_type_symbol
_atom_type_description
_atom_site_fract_x
_atom_site_fract_y
_atom_site_fract_z
_atom_type_partial_charge
O1    O     O_R   0.423690 0.494470 0.435930 -0.511149
O2    O     O_R   0.576310 0.994470 0.564070 -0.523981
O3    O     O_R   0.556070 0.822310 0.435760 -0.541277
O4    O     O_R   0.443930 0.322310 0.564240 -0.539047
C1    C     C_R   0.575718 0.655390 0.420658 0.702543
C2    C     C_R   0.424290 0.155336 0.579351 0.761887
O5    O     O_R   0.422940 0.824080 0.428040 -0.532972
O6    O     O_R   0.577060 0.324080 0.571960 -0.552259
O7    O     O_R   0.442240 0.995960 0.556300 -0.525434
O8    O     O_R   0.557760 0.495960 0.443700 -0.541692
C3    C     C_R   0.399050 0.655704 0.409725 0.698500
C4    C     C_R   0.600491 0.156299 0.590721 0.732062
O9    O     O_3   0.506490 0.661310 0.542090 -0.364364
O10   O     O_3   0.493510 0.161310 0.457910 -0.356307
V1    V     V_3+5 0.498800 0.935560 0.492190 1.523780
V2    V     V_3+5 0.501200 0.435560 0.507810 1.498387
C5    C     C_R   0.837185 0.074034 0.858472 -0.065410
C6    C     C_R   0.163030 0.575846 0.141257 -0.063660
C7    C     C_R   0.659163 0.156301 0.647046 -0.084138
C8    C     C_R   0.339268 0.653827 0.354547 -0.106591
C9    C     C_R   0.756078 0.329767 0.705120 -0.173272
C10   C     C_R   0.243195 0.829293 0.296143 -0.160842
C11   C     C_R   0.702451 0.311762 0.652144 -0.181949
C12   C     C_R   0.296068 0.808954 0.349867 -0.115822
C13   C     C_R   0.671186 0.014305 0.697351 -0.076369
C14   C     C_R   0.327368 0.513900 0.303415 -0.068252
C15   C     C_R   0.726606 0.032394 0.751306 0.085428
C16   C     C_R   0.273376 0.535274 0.248408 0.089550
C17   C     C_R   0.768722 0.192412 0.755083 0.155291
C18   C     C_R   0.231287 0.694558 0.245011 0.136259
C19   C     C_R   0.823215 0.213046 0.808696 -0.210219
C20   C     C_R   0.177008 0.715172 0.191191 -0.206245
C21   C     C_R   0.794696 0.917738 0.855048 -0.151284
C22   C     C_R   0.205456 0.419856 0.144581 -0.157879
C23   C     C_R   0.740298 0.897518 0.802932 -0.188914
C24   C     C_R   0.259651 0.399866 0.196842 -0.184515
H1    H     H_    0.855827 0.333706 0.810464 0.127186
H2    H     H_    0.144281 0.835135 0.189669 0.127923
H3    H     H_    0.803841 0.808693 0.892968 0.121227
H4    H     H_    0.196147 0.310240 0.106746 0.120694
H5    H     H_    0.787709 0.452622 0.707078 0.134013
H6    H     H_    0.211529 0.951601 0.294598 0.141560
H7    H     H_    0.709571 0.774305 0.803736 0.111428
H8    H     H_    0.289810 0.275170 0.196909 0.116183
H9    H     H_    0.694614 0.422087 0.614657 0.137072
H10   H     H_    0.303608 0.917509 0.388114 0.167644
C25   C     C_3   0.259933 0.257800 0.814463 -0.350538
C26   C     C_3   0.740110 0.757057 0.185509 -0.347060
C27   C     C_3   0.240668 0.915855 0.785279 -0.352662
C28   C     C_3   0.759337 0.415585 0.214823 -0.349257
C29   C     C_3   0.289527 0.927799 0.736481 -0.346113
C30   C     C_3   0.710489 0.427637 0.263627 -0.351139
H11   H     H_    0.360231 0.231018 0.796114 0.157040
H12   H     H_    0.639813 0.729617 0.203880 0.149677
H13   H     H_    0.286192 0.221939 0.865963 0.149531
H14   H     H_    0.713842 0.720434 0.134024 0.149601
H15   H     H_    0.204066 0.801787 0.768896 0.127875
H16   H     H_    0.795926 0.301997 0.231245 0.127526
H17   H     H_    0.268156 0.875542 0.835855 0.151190
H18   H     H_    0.731837 0.374510 0.164266 0.150723
H19   H     H_    0.339679 0.887294 0.763444 0.157766
H20   H     H_    0.660331 0.386415 0.236687 0.148600
H21   H     H_    0.274779 0.823993 0.695209 0.140691
H22   H     H_    0.725232 0.324397 0.304939 0.140408
C31   C     C_1   0.378571 0.146492 0.624809 -0.141885
C32   C     C_1   0.621459 0.646660 0.375214 -0.160664
C33   C     C_3   0.205589 0.108283 0.789382 0.208179
C34   C     C_3   0.794439 0.608262 0.210640 0.207192
C35   C     C_3   0.310430 0.268022 0.767339 -0.340280
C36   C     C_3   0.689620 0.767351 0.232635 -0.345447
C37   C     C_3   0.290988 0.130097 0.707311 0.199185
C38   C     C_3   0.709051 0.630232 0.292718 0.206193
C39   C     C_3   0.219618 0.176329 0.668854 -0.186510
C40   C     C_3   0.780430 0.677478 0.331147 -0.182593
C41   C     C_3   0.169661 0.169464 0.717749 -0.196237
C42   C     C_3   0.830381 0.670502 0.282247 -0.198026
C43   C     C_1   0.339612 0.139103 0.662189 -0.051734
C44   C     C_1   0.660428 0.639289 0.337843 -0.061650
C45   C     C_1   0.159004 0.097273 0.836603 -0.062414
C46   C     C_1   0.841016 0.597155 0.163414 -0.062217
C47   C     C_1   0.120998 0.089098 0.874961 -0.164252
C48   C     C_1   0.879013 0.588962 0.125049 -0.163062
H23   H     H_    0.149329 0.313575 0.722585 0.137720
H24   H     H_    0.850732 0.814727 0.277351 0.138016
H25   H     H_    0.237189 0.399237 0.817157 0.137147
H26   H     H_    0.762870 0.898656 0.182758 0.136862
H27   H     H_    0.313702 0.415327 0.749461 0.131824
H28   H     H_    0.686365 0.914819 0.250454 0.129649
H29   H     H_    0.206161 0.066103 0.629331 0.146486
H30   H     H_    0.793878 0.567794 0.370715 0.145642
O11   O     O_R   0.942280 0.741210 0.056360 -0.534712
O12   O     O_R   0.057720 0.241210 0.943640 -0.534984
O13   O     O_R   0.077070 0.409690 0.071960 -0.539764
O14   O     O_R   0.922930 0.909690 0.928040 -0.540496
C49   C     C_R   0.101744 0.577550 0.088887 0.696099
C50   C     C_R   0.898311 0.077086 0.911033 0.696476
O15   O     O_R   0.943940 0.411580 0.064250 -0.535828
O16   O     O_R   0.056060 0.911580 0.935750 -0.535994
O17   O     O_R   0.923670 0.239840 0.935920 -0.538702
O18   O     O_R   0.076330 0.739840 0.064080 -0.539179
C51   C     C_R   0.924170 0.580056 0.079004 0.725554
C52   C     C_R   0.075834 0.080109 0.920996 0.724695
O19   O     O_3   0.993540 0.572620 0.957940 -0.370652
O20   O     O_3   0.006460 0.072620 0.042060 -0.370282
V3    V     V_3+5 0.001200 0.298330 0.007800 1.428168
V4    V     V_3+5 0.998800 0.798330 0.992200 1.427241
C53   C     C_2   0.111973 0.042043 0.690031 0.433142
H31   H     H_    0.120030 0.895110 0.678829 0.051866
O21   O     O_2   0.055846 0.103592 0.679469 -0.502864
C54   C     C_2   0.888052 0.543852 0.310010 0.433675
H32   H     H_    0.879976 0.396974 0.321272 0.051797
O22   O     O_2   0.944188 0.605975 0.320539 -0.502112
C55   C     C_2   0.215992 0.365256 0.633726 0.421041
H33   H     H_    0.224457 0.495109 0.662456 0.023509
O23   O     O_2   0.202902 0.373610 0.572762 -0.505205
C56   C     C_2   0.784083 0.866815 0.366195 0.419098
H34   H     H_    0.775630 0.996284 0.337409 0.023390
O24   O     O_2   0.797183 0.875942 0.427155 -0.507974
C57   C     C_2   0.625140 0.852543 0.695675 0.366141
H35   H     H_    0.644024 0.709569 0.702530 0.040593
O25   O     O_2   0.565916 0.878488 0.688828 -0.528152
C58   C     C_2   0.372335 0.350993 0.304976 0.358465
H36   H     H_    0.401509 0.336302 0.266567 0.013559
O26   O     O_2   0.374178 0.227375 0.346916 -0.513367

loop_
_geom_bond_atom_site_label_1
_geom_bond_atom_site_label_2
_ccdc_geom_bond_type
C34   C46   S    
C41   C53   S    
C11   H9    S    
C15   C17   A    
C53   O21   D    
O1    C3    A    
C36   H28   S    
C42   H24   S    
C2    O7    A    
O20   V4    S    
C39   C55   S    
O5    C3    A    
C21   H3    S    
C5    C21   A    
C22   H4    S    
C25   H25   S    
C50   O17   A    
C27   H15   S    
C56   H34   S    
C35   C37   S    
C54   H32   S    
C25   C35   S    
C38   C44   S    
O13   V3    S    
C2    C31   S    
C8    C12   A    
C27   C29   S    
C29   H19   S    
C28   C30   S    
C53   H31   S    
C20   H2    S    
C23   H7    S    
C22   C24   A    
C35   H27   S    
O12   C52   A    
O15   V3    S    
O5    V1    S    
O2    C4    A    
O13   C49   A    
C6    C49   S    
C39   C41   S    
O11   V4    S    
C29   C37   S    
O11   C51   A    
O17   V3    S    
C13   C57   S    
C25   C33   S    
O20   V3    S    
C47   C52   S    
C57   O25   D    
C32   C44   T    
C3    C8    S    
C31   C43   T    
C28   H16   S    
C29   H21   S    
C38   C40   S    
C30   H22   S    
C5    C50   S    
C49   O18   A    
C15   C23   A    
H11   C35   S    
O16   C52   A    
C9    C17   A    
C19   H1    S    
O4    V2    S    
C7    C11   A    
C30   C38   S    
H12   C36   S    
O6    C4    A    
C40   C56   S    
C33   C45   S    
O19   V3    S    
O1    V2    S    
C26   C34   S    
O14   C50   A    
O2    V1    S    
C6    C22   A    
C40   C42   S    
C9    H5    S    
C46   C48   T    
C9    C11   A    
C13   C15   A    
C5    C19   A    
C10   C12   A    
C24   H8    S    
O4    C2    A    
C33   C41   S    
C58   O26   D    
C37   C43   S    
O3    V1    S    
C25   H13   S    
C55   H33   S    
C26   H14   S    
O14   V4    S    
C10   C18   A    
O18   V4    S    
C26   C36   S    
C1    C32   S    
O3    C1    A    
C27   H17   S    
C36   C38   S    
C57   H35   S    
C45   C47   T    
C27   C33   S    
C34   C42   S    
C14   C16   A    
O16   V4    S    
C42   C54   S    
C28   H18   S    
C40   H30   S    
C16   C18   A    
O7    V1    S    
C12   H10   S    
C1    O8    A    
C17   C19   A    
O8    V2    S    
C18   C20   A    
C41   H23   S    
C10   H6    S    
C8    C14   A    
C4    C7    S    
C21   C23   A    
C48   C51   S    
C56   O24   D    
O19   V4    S    
C26   H26   S    
C7    C13   A    
C54   O22   D    
C39   H29   S    
O12   V3    S    
C6    C20   A    
C16   C24   A    
O6    V2    S    
O9    V2    S    
C37   C39   S    
O10   V1    S    
C30   H20   S    
C14   C58   S    
C58   H36   S    
C28   C34   S    
O15   C51   A    
C55   O23   D    
