data_mof_unit_37994.cif
_audit_creation_date              2012-12-10T17:59:47-0500
_audit_creation_method            fapswitch 2.2
_symmetry_space_group_name_H-M    P1
_symmetry_Int_Tables_number       1
_space_group_crystal_system       triclinic
_cell_length_a                    10.830378
_cell_length_b                    9.519727
_cell_length_c                    15.901189
_cell_angle_alpha                 89.973273
_cell_angle_beta                  90.171607
_cell_angle_gamma                 89.995234
_cell_volume                      1639.44069655

loop_
_atom_site_label
_atom_site_type_symbol
_atom_type_description
_atom_site_fract_x
_atom_site_fract_y
_atom_site_fract_z
_atom_type_partial_charge
C1    C     C_R   0.261997 0.500030 0.499734 0.825530
C2    C     C_3   0.636759 0.492944 0.950557 -0.459750
C3    C     C_3   0.640073 0.492824 0.049275 0.371084
C4    C     C_1   0.500706 0.499906 0.824780 -0.101527
C5    C     C_1   0.501547 0.500004 0.175228 -0.007165
C6    C     C_1   0.500549 0.500051 0.250667 -0.170804
C7    C     C_R   0.062523 0.389609 0.459395 0.128194
C8    C     C_R   0.062802 0.610617 0.538662 0.116274
C9    C     C_R   0.934023 0.389784 0.461344 -0.216793
C10   C     C_R   0.934610 0.610345 0.537638 -0.243098
C11   C     C_R   0.870788 0.499975 0.499754 -0.071911
C12   C     C_R   0.127550 0.500151 0.499175 -0.045474
C13   C     C_R   0.423742 0.074439 0.447393 -0.005881
C14   C     C_R   0.423641 0.925634 0.447456 -0.008582
C15   C     C_R   0.499892 0.500022 0.340204 0.815120
C16   C     C_R   0.576397 0.925537 0.552606 -0.017480
C17   C     C_R   0.576361 0.074359 0.552628 -0.022410
C18   C     C_R   0.737580 0.499993 0.500020 0.809110
C19   C     C_R   0.500038 0.499975 0.659810 0.829150
C20   C     C_3   0.438167 0.634637 0.049427 -0.429657
C21   C     C_3   0.427751 0.372336 0.049521 -0.431113
C22   C     C_3   0.425624 0.371724 0.951702 -0.017629
C23   C     C_3   0.436068 0.635355 0.951609 -0.016141
C24   C     C_1   0.500325 0.499925 0.749336 -0.191033
C25   C     C_3   0.503321 0.499879 0.083018 0.230798
C26   C     C_3   0.501433 0.499897 0.917010 0.201538
Cu1   Cu    Cu3+1 0.500020 0.640660 0.500000 0.955900
Cu2   Cu    Cu3+1 0.500020 0.359340 0.500000 0.952838
H1    H     H_    0.637651 0.869417 0.594688 0.113347
H2    H     H_    0.637564 0.130395 0.594741 0.120323
H3    H     H_    0.341368 0.637546 0.072836 0.148867
H4    H     H_    0.331112 0.379422 0.072918 0.147981
H5    H     H_    0.463864 0.271694 0.075019 0.197222
H6    H     H_    0.482124 0.731181 0.074841 0.197259
N1    N     N_R   0.500030 0.852070 0.500020 -0.156199
N2    N     N_R   0.500030 0.147930 0.500020 -0.159714
O1    O     O_R   0.319660 0.618740 0.500000 -0.560183
O2    O     O_R   0.319660 0.381260 0.500000 -0.561311
O3    O     O_R   0.500020 0.618840 0.379440 -0.579306
O4    O     O_R   0.500020 0.381160 0.379440 -0.580305
O5    O     O_R   0.680370 0.618830 0.500010 -0.586378
O6    O     O_R   0.680370 0.381170 0.500010 -0.589243
O7    O     O_R   0.500010 0.618730 0.620560 -0.576423
O8    O     O_R   0.500010 0.381270 0.620560 -0.580554
H7    H     H_    0.337361 0.631851 0.931614 0.143463
H8    H     H_    0.327600 0.385303 0.931687 0.143216
N3    N     N_3   0.465746 0.234759 0.919042 -0.581811
H9    H     H_    0.452434 0.231566 0.853939 0.231547
H10   H     H_    0.559091 0.217314 0.931173 0.221241
N4    N     N_3   0.486830 0.767622 0.918838 -0.583614
H11   H     H_    0.473676 0.772161 0.853747 0.231408
H12   H     H_    0.581206 0.775366 0.930863 0.218953
N5    N     N_3   0.711114 0.614462 0.080633 -0.574295
H13   H     H_    0.803747 0.603526 0.063366 0.204500
H14   H     H_    0.681644 0.707345 0.052177 0.198474
N6    N     N_3   0.701195 0.364421 0.080734 -0.575274
H15   H     H_    0.664466 0.274904 0.052373 0.198998
H16   H     H_    0.794308 0.365761 0.063443 0.204611
H17   H     H_    0.691571 0.581622 0.924910 0.150095
H18   H     H_    0.684311 0.398962 0.924982 0.150984
N7    N     N_3   0.126912 0.279753 0.415519 -0.581617
H19   H     H_    0.166231 0.324412 0.361807 0.200009
H20   H     H_    0.065443 0.202515 0.394591 0.208962
N8    N     N_3   0.126674 0.721261 0.581800 -0.568078
H21   H     H_    0.100507 0.816856 0.554660 0.221699
H22   H     H_    0.097704 0.721658 0.644471 0.208817
H23   H     H_    0.883133 0.305774 0.430994 0.151979
H24   H     H_    0.885025 0.694996 0.568200 0.145833
H25   H     H_    0.362760 0.130505 0.405142 0.135187
H26   H     H_    0.362391 0.869601 0.405372 0.120241

loop_
_geom_bond_atom_site_label_1
_geom_bond_atom_site_label_2
_ccdc_geom_bond_type
C4    C26   S    
C9    H23   S    
C11   C18   S    
C7    C9    A    
C23   H7    S    
C17   N2    A    
C10   H24   S    
C9    C11   A    
C3    N6    S    
Cu1   O5    S    
N4    H12   S    
N3    H9    S    
C20   C23   S    
C1    O1    A    
C8    C12   A    
C20   H6    S    
N8    H21   S    
C18   O6    A    
C22   N3    S    
C16   H1    S    
N3    H10   S    
N5    H13   S    
Cu2   O2    S    
C17   H2    S    
C14   H26   S    
C15   O3    A    
C5    C6    T    
C1    C12   S    
C13   H25   S    
C1    O2    A    
Cu1   O1    S    
C5    C25   S    
Cu2   O6    S    
C22   H8    S    
C19   O7    A    
C19   C24   S    
C2    C3    S    
N5    H14   S    
C16   N1    A    
C22   C26   S    
N7    H19   S    
C4    C24   T    
C21   H4    S    
C2    H18   S    
C15   O4    A    
C18   O5    A    
C21   H5    S    
C10   C11   A    
Cu2   O4    S    
N6    H15   S    
C8    N8    S    
Cu1   O7    S    
C3    C25   S    
C19   O8    A    
Cu2   N2    S    
C13   N2    A    
C2    C26   S    
C20   C25   S    
C23   C26   S    
Cu1   O3    S    
C14   N1    A    
N7    H20   S    
C21   C25   S    
C2    H17   S    
C7    N7    S    
C23   N4    S    
C7    C12   A    
C3    N5    S    
N4    H11   S    
C13   C14   A    
Cu1   N1    S    
C6    C15   S    
C21   C22   S    
Cu2   O8    S    
C8    C10   A    
N6    H16   S    
C16   C17   A    
Cu1   Cu2   S    
C20   H3    S    
N8    H22   S    
