data_mof_unit_15769.cif
_audit_creation_date              2012-12-10T18:05:43-0500
_audit_creation_method            fapswitch 2.2
_symmetry_space_group_name_H-M    P1
_symmetry_Int_Tables_number       1
_space_group_crystal_system       triclinic
_cell_length_a                    10.885197
_cell_length_b                    10.782364
_cell_length_c                    9.551628
_cell_angle_alpha                 90.012591
_cell_angle_beta                  90.960576
_cell_angle_gamma                 90.491868
_cell_volume                      1120.85804475

loop_
_atom_site_label
_atom_site_type_symbol
_atom_type_description
_atom_site_fract_x
_atom_site_fract_y
_atom_site_fract_z
_atom_type_partial_charge
C1    C     C_R   0.503721 0.262524 0.499993 0.773910
C2    C     C_R   0.496281 0.737476 0.500006 0.773909
C3    C     C_R   0.871712 0.497908 0.504040 -0.086588
C4    C     C_R   0.128288 0.502094 0.495960 -0.086594
C5    C     C_R   0.941409 0.473488 0.626835 -0.000503
C6    C     C_R   0.058592 0.526514 0.373165 -0.000502
C7    C     C_R   0.583701 0.061964 0.411115 0.009822
C8    C     C_R   0.416297 0.938036 0.588876 0.009813
C9    C     C_R   0.575406 0.933026 0.411182 -0.150580
C10   C     C_R   0.424596 0.066972 0.588814 -0.150604
C11   C     C_R   0.494024 0.871429 0.499760 -0.155499
C12   C     C_R   0.505976 0.128571 0.500236 -0.155493
C13   C     C_R   0.460548 0.398440 0.073377 -0.013604
C14   C     C_R   0.539452 0.601559 0.926623 -0.013587
C15   C     C_R   0.460658 0.398442 0.925018 -0.020531
C16   C     C_R   0.539343 0.601558 0.074982 -0.020523
C17   C     C_R   0.262248 0.501419 0.498506 0.784266
C18   C     C_R   0.737752 0.498581 0.501494 0.784265
C19   C     C_R   0.201987 0.697059 0.070461 -0.118926
C20   C     C_R   0.798017 0.302952 0.929546 -0.118934
C21   C     C_R   0.152747 0.673091 0.202149 -0.129758
C22   C     C_R   0.847253 0.326917 0.797855 -0.129744
C23   C     C_R   0.113123 0.552791 0.236085 0.127866
C24   C     C_R   0.886878 0.447215 0.763916 0.127867
C25   C     C_R   0.123113 0.457036 0.137860 -0.109268
C26   C     C_R   0.876895 0.542971 0.862140 -0.109278
C27   C     C_R   0.173140 0.481118 0.007119 -0.143570
C28   C     C_R   0.826872 0.518893 0.992883 -0.143565
C29   C     C_R   0.211836 0.601187 0.972823 -0.102974
C30   C     C_R   0.788173 0.398825 0.027183 -0.102986
C31   C     C_R   0.931581 0.524041 0.379107 -0.233672
C32   C     C_R   0.068420 0.475962 0.620893 -0.233676
Cu1   Cu    Cu3+1 0.500000 0.500020 0.640660 0.941129
Cu2   Cu    Cu3+1 0.500000 0.499980 0.359340 0.941118
H1    H     H_    0.427590 0.317185 0.869381 0.129498
H2    H     H_    0.572410 0.682815 0.130619 0.129496
H3    H     H_    0.232705 0.789769 0.044187 0.166118
H4    H     H_    0.767298 0.210243 0.955822 0.166096
H5    H     H_    0.145298 0.747753 0.277325 0.122827
H6    H     H_    0.854697 0.252253 0.722681 0.122829
H7    H     H_    0.092857 0.363822 0.163005 0.132710
H8    H     H_    0.907154 0.636184 0.836994 0.132711
H9    H     H_    0.879249 0.544359 0.285160 0.156015
H10   H     H_    0.120751 0.455644 0.714841 0.156017
H11   H     H_    0.635620 0.879523 0.345432 0.176906
H12   H     H_    0.364383 0.120469 0.654565 0.176897
N1    N     N_R   0.500030 0.500030 0.852070 -0.162410
N2    N     N_R   0.499970 0.499970 0.147930 -0.162408
O1    O     O_R   0.499990 0.319660 0.618740 -0.581294
O2    O     O_R   0.500010 0.680340 0.381260 -0.581301
O3    O     O_R   0.499990 0.319630 0.381170 -0.598873
O4    O     O_R   0.500010 0.680370 0.618830 -0.598850
O5    O     O_R   0.319650 0.500020 0.618780 -0.602716
O6    O     O_R   0.680350 0.499980 0.381220 -0.602721
O7    O     O_R   0.319640 0.500000 0.381210 -0.560320
O8    O     O_R   0.680360 0.500000 0.618790 -0.560322
H13   H     H_    0.250445 0.619723 0.871241 0.152794
H14   H     H_    0.749569 0.380292 0.128767 0.152779
H15   H     H_    0.183158 0.405872 0.933591 0.124364
H16   H     H_    0.816859 0.594141 0.066410 0.124366
C33   C     C_2   0.677833 0.124329 0.323731 0.330160
H17   H     H_    0.701495 0.221188 0.339918 0.078363
O9    O     O_2   0.731676 0.067484 0.233087 -0.569155
C34   C     C_2   0.322163 0.875667 0.676255 0.330212
H18   H     H_    0.298455 0.778831 0.660004 0.078314
O10   O     O_2   0.268378 0.932488 0.766966 -0.569162
H19   H     H_    0.427438 0.317184 0.127670 0.133525
H20   H     H_    0.572562 0.682816 0.872330 0.133531

loop_
_geom_bond_atom_site_label_1
_geom_bond_atom_site_label_2
_ccdc_geom_bond_type
C10   H12   S    
C13   N2    A    
C20   C30   A    
C9    H11   S    
C14   N1    A    
C31   H9    S    
C18   O8    A    
C27   C29   A    
C20   C22   A    
C20   H4    S    
C17   O7    A    
C26   C28   A    
C21   H5    S    
C15   N1    A    
C25   C27   A    
C5    C32   A    
C22   H6    S    
C34   H18   S    
C16   N2    A    
Cu1   O8    S    
C13   C15   A    
Cu1   Cu2   S    
C32   H10   S    
C17   O5    A    
Cu2   O7    S    
C27   H15   S    
C16   H2    S    
Cu1   O4    S    
C3    C31   A    
C9    C11   A    
Cu2   O3    S    
C4    C32   A    
C1    C12   S    
C2    O4    A    
C8    C34   S    
C8    C11   A    
C2    C11   S    
C10   C12   A    
C15   H1    S    
C19   C21   A    
C29   H13   S    
Cu2   O6    S    
C14   C16   A    
C23   C25   A    
C21   C23   A    
Cu1   O5    S    
C33   H17   S    
Cu1   N1    S    
C22   C24   A    
C7    C12   A    
Cu2   O2    S    
Cu2   N2    S    
C4    C17   S    
Cu1   O1    S    
C19   C29   A    
C30   H14   S    
C28   H16   S    
C26   H8    S    
C3    C18   S    
C4    C6    A    
C13   H19   S    
C25   H7    S    
C2    O2    A    
C33   O9    D    
C18   O6    A    
C5    C24   S    
C6    C31   A    
C1    O3    A    
C19   H3    S    
C6    C23   S    
C1    O1    A    
C8    C10   A    
C7    C33   S    
C14   H20   S    
C24   C26   A    
C28   C30   A    
C3    C5    A    
C7    C9    A    
C34   O10   D    
