data_mof_unit_51307.cif
_audit_creation_date              2012-12-10T17:04:36-0500
_audit_creation_method            fapswitch 2.2
_symmetry_space_group_name_H-M    P1
_symmetry_Int_Tables_number       1
_space_group_crystal_system       triclinic
_cell_length_a                    14.942167
_cell_length_b                    10.581011
_cell_length_c                    10.067218
_cell_angle_alpha                 92.006272
_cell_angle_beta                  89.740586
_cell_angle_gamma                 89.95221
_cell_volume                      1590.66694213

loop_
_atom_site_label
_atom_site_type_symbol
_atom_type_description
_atom_site_fract_x
_atom_site_fract_y
_atom_site_fract_z
_atom_type_partial_charge
C1    C     C_R   0.499694 0.262151 0.497624 0.937916
C2    C     C_R   0.184999 0.430048 0.405685 -0.269146
C3    C     C_R   0.231555 0.501743 0.501267 -0.062106
C4    C     C_R   0.327049 0.499599 0.500288 0.891906
C5    C     C_R   0.187321 0.576869 0.597229 -0.265509
C6    C     C_2   0.571066 0.931680 0.411456 0.140977
C7    C     C_2   0.531028 0.868699 0.509759 -0.397073
C8    C     C_2   0.568975 0.070046 0.424176 -0.182428
C9    C     C_2   0.502177 0.128532 0.490514 -0.346842
C10   C     C_2   0.437386 0.545380 0.927370 -0.165067
C11   C     C_2   0.449496 0.568706 0.074212 -0.084073
C12   C     C_R   0.907550 0.598509 0.591647 0.098279
C13   C     C_R   0.508745 0.737142 0.502074 0.911850
C14   C     C_R   0.672738 0.507392 0.500053 0.865007
C15   C     C_R   0.813403 0.606892 0.585388 0.042398
C16   C     C_R   0.768306 0.519371 0.499482 -0.091257
C17   C     C_R   0.814262 0.439375 0.410069 -0.295934
C18   C     C_R   0.906344 0.439025 0.407427 0.118615
C19   C     C_R   0.953403 0.515962 0.500329 0.022916
C20   C     C_3   0.763038 0.712388 0.662555 -0.430878
C21   C     C_3   0.782872 0.842510 0.605778 -0.361500
C22   C     C_3   0.741890 0.948934 0.692486 -0.868470
C23   C     C_R   0.951849 0.360516 0.314781 -0.211670
C24   C     C_3   0.526922 0.372704 0.104099 -0.152339
C25   C     C_3   0.445151 0.284701 0.089380 -0.320432
C26   C     C_3   0.473242 0.146431 0.072616 -0.931588
C27   C     C_3   0.612776 0.864607 0.289310 -0.348288
C28   C     C_3   0.684695 0.941253 0.218026 -0.406932
C29   C     C_3   0.729035 0.862248 0.106158 -0.880935
C30   C     C_R   0.044686 0.358159 0.313231 -0.221139
C31   C     C_R   0.092322 0.432400 0.406047 0.124740
C32   C     C_R   0.046765 0.510504 0.501079 0.069492
C33   C     C_R   0.094815 0.583203 0.596537 0.125935
C34   C     C_R   0.049975 0.661338 0.689227 -0.227531
C35   C     C_R   0.957377 0.669553 0.686660 -0.232288
H1    H     H_    0.515449 0.915842 0.604671 0.145741
H2    H     H_    0.221015 0.371360 0.332757 0.144182
H3    H     H_    0.225145 0.632582 0.670043 0.145938
H4    H     H_    0.086609 0.716996 0.763247 0.146150
H5    H     H_    0.926071 0.731479 0.760703 0.159925
H6    H     H_    0.668825 0.934429 0.704738 0.267136
H7    H     H_    0.773778 0.952431 0.791983 0.256080
H8    H     H_    0.752954 0.040871 0.645106 0.253508
H9    H     H_    0.855916 0.859510 0.597784 0.232252
H10   H     H_    0.754551 0.845883 0.504184 0.226120
H11   H     H_    0.689662 0.701251 0.658621 0.224380
H12   H     H_    0.620005 0.125742 0.376143 0.140264
H13   H     H_    0.779838 0.710499 0.769788 0.199935
H14   H     H_    0.519289 0.133106 0.986300 0.265299
H15   H     H_    0.506873 0.115547 0.163829 0.273576
H16   H     H_    0.413145 0.086500 0.055544 0.255622
H17   H     H_    0.400927 0.295928 0.178009 0.240311
H18   H     H_    0.405553 0.309498 0.001034 0.218118
H19   H     H_    0.569234 0.367051 0.014548 0.124128
H20   H     H_    0.572708 0.335530 0.179553 0.200818
H21   H     H_    0.762410 0.778051 0.146567 0.264221
H22   H     H_    0.678448 0.830823 0.031507 0.263679
H23   H     H_    0.447404 0.079817 0.537772 0.136711
H24   H     H_    0.780250 0.920027 0.056043 0.246360
H25   H     H_    0.654205 0.025685 0.173886 0.223879
H26   H     H_    0.736939 0.972792 0.290119 0.222096
H27   H     H_    0.645366 0.776013 0.320747 0.213237
H28   H     H_    0.558712 0.839406 0.217675 0.215606
H29   H     H_    0.373944 0.569774 0.883055 0.160844
H30   H     H_    0.564422 0.514765 0.889292 0.177936
H31   H     H_    0.410054 0.643498 0.122111 0.141200
H32   H     H_    0.777733 0.375619 0.343059 0.150194
H33   H     H_    0.915594 0.301363 0.243336 0.143032
H34   H     H_    0.079162 0.297719 0.240427 0.145268
N1    N     N_2   0.500970 0.501330 0.852150 -0.194338
N2    N     N_2   0.500990 0.501360 0.147810 -0.104151
O1    O     O_R   0.499990 0.319060 0.613040 -0.595101
O2    O     O_R   0.500010 0.319100 0.386900 -0.629281
O3    O     O_R   0.367830 0.499950 0.613080 -0.617894
O4    O     O_R   0.367860 0.499990 0.386940 -0.621682
O5    O     O_R   0.499990 0.680900 0.613100 -0.619373
O6    O     O_R   0.500010 0.680940 0.386960 -0.616395
O7    O     O_R   0.632140 0.500010 0.613060 -0.628807
O8    O     O_R   0.632170 0.500050 0.386920 -0.634031
Zn1   Zn    Zn3+2 0.499980 0.499970 0.650990 0.929062
Zn2   Zn    Zn3+2 0.500020 0.500030 0.349010 0.911642

loop_
_geom_bond_atom_site_label_1
_geom_bond_atom_site_label_2
_ccdc_geom_bond_type
C8    C9    D    
C7    H1    S    
C24   H20   S    
C28   C29   S    
C25   H18   S    
C18   C19   A    
C26   H15   S    
C30   C31   A    
C34   C35   A    
C11   N2    D    
C22   H6    S    
C24   H19   S    
C15   C16   A    
C9    H23   S    
C4    O4    A    
C31   C32   A    
C16   C17   A    
C5    C33   A    
C12   C15   A    
C4    O3    A    
C11   H31   S    
C28   H26   S    
O3    Zn1   S    
C5    H3    S    
C19   C32   A    
O2    Zn2   S    
C33   C34   A    
C21   H10   S    
C28   H25   S    
C15   C20   S    
C13   O6    A    
C17   H32   S    
C1    O1    A    
N1    Zn1   S    
C34   H4    S    
C23   C30   A    
C29   H24   S    
C1    C9    S    
C24   C25   S    
C26   H14   S    
O8    Zn2   S    
O4    Zn2   S    
C6    C8    S    
C25   C26   S    
C18   C23   A    
C2    C31   A    
C23   H33   S    
C27   H27   S    
C21   H9    S    
C6    C27   S    
C13   O5    A    
O6    Zn2   S    
C17   C18   A    
C14   O8    A    
C12   C35   A    
C20   H13   S    
C27   H28   S    
C10   N1    D    
C29   H22   S    
C14   C16   S    
C3    C4    S    
C30   H34   S    
C10   H29   S    
O5    Zn1   S    
C3    C5    A    
C6    C7    D    
C29   H21   S    
C1    O2    A    
C32   C33   A    
C2    C3    A    
C8    H12   S    
O1    Zn1   S    
C26   H16   S    
C2    H2    S    
C22   H7    S    
C12   C19   A    
C35   H5    S    
O7    Zn1   S    
C14   O7    A    
C25   H17   S    
C10   C11   S    
C7    C13   S    
C20   C21   S    
C27   C28   S    
C21   C22   S    
C22   H8    S    
C20   H11   S    
H30   N1    S    
C24   N2    S    
N2    Zn2   S    
