data_mof_unit_18460.cif
_audit_creation_date              2012-12-10T17:19:23-0500
_audit_creation_method            fapswitch 2.2
_symmetry_space_group_name_H-M    P1
_symmetry_Int_Tables_number       1
_space_group_crystal_system       triclinic
_cell_length_a                    18.441715
_cell_length_b                    18.442111
_cell_length_c                    34.254071
_cell_angle_alpha                 90.000065
_cell_angle_beta                  90.000098
_cell_angle_gamma                 90.000059
_cell_volume                      11649.9518748

loop_
_atom_site_label
_atom_site_type_symbol
_atom_type_description
_atom_site_fract_x
_atom_site_fract_y
_atom_site_fract_z
_atom_type_partial_charge
Br1   Br    Br    0.118555 0.654242 0.656793 -0.043477
Br2   Br    Br    0.952470 0.710375 0.694484 -0.047120
Br3   Br    Br    0.288252 0.955295 0.304706 -0.049545
Br4   Br    Br    0.710409 0.047516 0.694501 -0.047120
Br5   Br    Br    0.955266 0.711691 0.304737 -0.049546
Br6   Br    Br    0.047533 0.289623 0.694483 -0.047121
Br7   Br    Br    0.711726 0.044722 0.304721 -0.049549
Br8   Br    Br    0.289579 0.952496 0.694510 -0.047116
Br9   Br    Br    0.618532 0.154249 0.156797 -0.043480
Br10  Br    Br    0.377884 0.847477 0.844267 -0.050537
Br11  Br    Br    0.845739 0.618506 0.156802 -0.043486
Br12  Br    Br    0.877890 0.347478 0.344267 -0.050540
Br13  Br    Br    0.152535 0.377914 0.844262 -0.050547
Br14  Br    Br    0.381443 0.845757 0.156792 -0.043476
Br15  Br    Br    0.622115 0.152523 0.844267 -0.050539
Br16  Br    Br    0.154256 0.381485 0.156800 -0.043489
Br17  Br    Br    0.847467 0.622090 0.844263 -0.050545
Br18  Br    Br    0.544724 0.788295 0.804728 -0.049543
Br19  Br    Br    0.452448 0.210369 0.194470 -0.047132
Br20  Br    Br    0.788262 0.455287 0.804713 -0.049546
Br21  Br    Br    0.210429 0.547503 0.194512 -0.047121
Br22  Br    Br    0.455274 0.211702 0.804731 -0.049545
Br23  Br    Br    0.345748 0.118527 0.656799 -0.043485
Br24  Br    Br    0.547559 0.789653 0.194460 -0.047132
Br25  Br    Br    0.211746 0.544708 0.804708 -0.049545
Br26  Br    Br    0.789596 0.452464 0.194489 -0.047131
Br27  Br    Br    0.652532 0.877913 0.344263 -0.050546
Br28  Br    Br    0.881454 0.345755 0.656795 -0.043479
Br29  Br    Br    0.122122 0.652522 0.344268 -0.050536
Br30  Br    Br    0.654253 0.881472 0.656799 -0.043484
Br31  Br    Br    0.347467 0.122087 0.344262 -0.050547
Br32  Br    Br    0.044732 0.288302 0.304734 -0.049546
C1    C     C_R   0.633005 0.996479 0.519968 -0.020269
C2    C     C_R   0.866904 0.494397 0.979103 -0.019633
C3    C     C_R   0.504740 0.933324 0.958502 -0.003497
C4    C     C_R   0.933257 0.502421 0.040769 -0.003255
C5    C     C_R   0.066678 0.504739 0.958502 -0.003500
C6    C     C_R   0.497578 0.933256 0.040768 -0.003252
C7    C     C_R   0.495261 0.066676 0.958502 -0.003498
C8    C     C_R   1.000000 0.500000 0.644273 0.501299
C9    C     C_R   0.000000 0.500000 0.355572 0.501803
C10   C     C_R   0.500000 1.000000 0.644274 0.501293
C11   C     C_R   0.499999 1.000000 0.355572 0.501796
C12   C     C_R   0.500000 0.999999 0.144273 0.501301
C13   C     C_R   0.503521 0.133003 0.019968 -0.020270
C14   C     C_R   0.500000 0.000000 0.855572 0.501803
C15   C     C_R   0.000001 0.500000 0.144274 0.501294
C16   C     C_R   0.000000 0.500000 0.855572 0.501796
C17   C     C_R   0.857120 0.636892 0.753052 0.515227
C18   C     C_R   0.142365 0.362526 0.247383 0.516234
C19   C     C_R   0.363106 0.857122 0.753052 0.515226
C20   C     C_R   0.637475 0.142364 0.247382 0.516234
C21   C     C_R   0.142879 0.363108 0.753052 0.515226
C22   C     C_R   0.857635 0.637474 0.247383 0.516233
C23   C     C_R   0.636894 0.142878 0.753052 0.515226
C24   C     C_R   0.505606 0.866905 0.979101 -0.019634
C25   C     C_R   0.362525 0.857636 0.247382 0.516233
C26   C     C_R   0.863107 0.357121 0.253053 0.515226
C27   C     C_R   0.137475 0.642364 0.747382 0.516234
C28   C     C_R   0.357120 0.136892 0.253053 0.515227
C29   C     C_R   0.642365 0.862526 0.747383 0.516234
C30   C     C_R   0.136894 0.642878 0.253052 0.515226
C31   C     C_R   0.862525 0.357636 0.747382 0.516235
C32   C     C_R   0.642880 0.863108 0.253053 0.515225
C33   C     C_R   0.357635 0.137474 0.747383 0.516234
C34   C     C_R   0.181665 0.728609 0.675530 0.037321
C35   C     C_R   0.866995 0.503521 0.019969 -0.020270
C36   C     C_R   0.819162 0.269917 0.325008 0.033379
C37   C     C_R   0.271414 0.181687 0.675526 0.037331
C38   C     C_R   0.730078 0.819157 0.325008 0.033379
C39   C     C_R   0.818325 0.271401 0.675528 0.037325
C40   C     C_R   0.180824 0.730098 0.325004 0.033375
C41   C     C_R   0.728589 0.818316 0.675527 0.037330
C42   C     C_R   0.269921 0.180841 0.325008 0.033380
C43   C     C_R   0.145002 0.261965 0.311575 0.037990
C44   C     C_R   0.851555 0.734448 0.688235 0.044720
C45   C     C_R   0.261922 0.855029 0.311559 0.037976
C46   C     C_R   0.133098 0.505601 0.979102 -0.019632
C47   C     C_R   0.734473 0.148427 0.688243 0.044712
C48   C     C_R   0.854996 0.738032 0.311576 0.037991
C49   C     C_R   0.148449 0.265555 0.688234 0.044721
C50   C     C_R   0.738053 0.144991 0.311568 0.037985
C51   C     C_R   0.265511 0.851586 0.688248 0.044705
C52   C     C_R   0.681695 0.228579 0.175524 0.037335
C53   C     C_R   0.319175 0.769904 0.825004 0.033375
C54   C     C_R   0.771435 0.681708 0.175521 0.037341
C55   C     C_R   0.230085 0.319166 0.825007 0.033378
C56   C     C_R   0.318331 0.771392 0.175528 0.037322
C57   C     C_R   0.496481 0.866995 0.019967 -0.020268
C58   C     C_R   0.680830 0.230091 0.825005 0.033376
C59   C     C_R   0.228567 0.318293 0.175522 0.037338
C60   C     C_R   0.769913 0.680833 0.825006 0.033377
C61   C     C_R   0.644993 0.761954 0.811571 0.037985
C62   C     C_R   0.351527 0.234419 0.188226 0.044731
C63   C     C_R   0.761933 0.355020 0.811563 0.037980
C64   C     C_R   0.234487 0.648414 0.188248 0.044705
C65   C     C_R   0.355005 0.238043 0.811572 0.037987
C66   C     C_R   0.648478 0.765590 0.188222 0.044734
C67   C     C_R   0.238075 0.644974 0.811560 0.037977
C68   C     C_R   0.494397 0.133094 0.979102 -0.019633
C69   C     C_R   0.765553 0.351548 0.188234 0.044722
C70   C     C_R   0.199788 0.774728 0.644889 -0.127802
C71   C     C_R   0.803767 0.221622 0.355157 -0.129415
C72   C     C_R   0.225323 0.199844 0.644878 -0.127799
C73   C     C_R   0.778363 0.803751 0.355161 -0.129416
C74   C     C_R   0.800187 0.225293 0.644884 -0.127801
C75   C     C_R   0.196202 0.778406 0.355149 -0.129410
C76   C     C_R   0.774682 0.800161 0.644879 -0.127800
C77   C     C_R   0.221635 0.196246 0.355160 -0.129415
C78   C     C_R   0.158890 0.233969 0.348209 -0.130233
C79   C     C_R   0.260723 0.798845 0.718816 0.000847
C80   C     C_R   0.835748 0.759653 0.651351 -0.132111
C81   C     C_R   0.233909 0.841157 0.348191 -0.130236
C82   C     C_R   0.759689 0.164223 0.651359 -0.132111
C83   C     C_R   0.841107 0.766027 0.348210 -0.130232
C84   C     C_R   0.164257 0.240352 0.651349 -0.132109
C85   C     C_R   0.766054 0.158874 0.348202 -0.130235
C86   C     C_R   0.240283 0.835800 0.651365 -0.132113
C87   C     C_R   0.699859 0.274665 0.144876 -0.127798
C88   C     C_R   0.303794 0.721599 0.855150 -0.129411
C89   C     C_R   0.725370 0.699897 0.144868 -0.127797
C90   C     C_R   0.740851 0.199254 0.281567 0.002025
C91   C     C_R   0.278375 0.303765 0.855158 -0.129415
C92   C     C_R   0.300203 0.725275 0.144888 -0.127801
C93   C     C_R   0.696216 0.278393 0.855152 -0.129413
C94   C     C_R   0.274637 0.300110 0.144870 -0.127797
C95   C     C_R   0.721621 0.696231 0.855157 -0.129415
C96   C     C_R   0.658876 0.733951 0.848204 -0.130233
C97   C     C_R   0.335702 0.259598 0.151338 -0.132106
C98   C     C_R   0.733926 0.341143 0.848196 -0.130235
C99   C     C_R   0.259709 0.664202 0.151365 -0.132115
C100  C     C_R   0.341119 0.266043 0.848206 -0.130233
C101  C     C_R   0.201172 0.260743 0.718810 0.000841
C102  C     C_R   0.664308 0.740413 0.151335 -0.132108
C103  C     C_R   0.266086 0.658848 0.848193 -0.130235
C104  C     C_R   0.740360 0.335736 0.151348 -0.132110
C105  C     C_R   0.499999 0.000000 0.520190 0.025937
C106  C     C_R   0.499999 0.000000 0.479112 0.025837
C107  C     C_R   0.999999 0.500000 0.520189 0.025938
C108  C     C_R   0.999999 0.500000 0.479112 0.025837
C109  C     C_R   0.000002 0.499999 0.020190 0.025937
C110  C     C_R   0.000001 0.500000 0.979113 0.025837
C111  C     C_R   0.500000 0.999999 0.020189 0.025938
C112  C     C_R   0.366902 0.994397 0.479102 -0.019632
C113  C     C_R   0.800739 0.740842 0.281570 0.002024
C114  C     C_R   0.500000 1.000000 0.979112 0.025837
C115  C     C_R   0.702969 0.981594 0.539786 0.040429
C116  C     C_R   0.737848 0.035854 0.561352 -0.109860
C117  C     C_R   0.806779 0.023210 0.576847 -0.114312
C118  C     C_R   0.841896 0.957438 0.570134 -0.093384
C119  C     C_R   0.807599 0.903197 0.548467 -0.118761
C120  C     C_R   0.738109 0.914991 0.533536 -0.084502
C121  C     C_R   0.296453 0.981901 0.458924 0.036999
C122  C     C_R   0.265468 0.035710 0.435226 -0.108937
C123  C     C_R   0.197039 0.024802 0.418601 -0.120766
C124  C     C_R   0.739269 0.201161 0.718814 0.000845
C125  C     C_R   0.158324 0.961351 0.426422 -0.106801
C126  C     C_R   0.188669 0.907728 0.450150 -0.119258
C127  C     C_R   0.257693 0.917638 0.466091 -0.084315
C128  C     C_R   0.018393 0.702968 0.539786 0.040431
C129  C     C_R   0.964129 0.737835 0.561354 -0.109860
C130  C     C_R   0.976765 0.806762 0.576854 -0.114320
C131  C     C_R   0.042532 0.841891 0.570139 -0.093403
C132  C     C_R   0.096777 0.807606 0.548468 -0.118766
C133  C     C_R   0.084991 0.738118 0.533534 -0.084493
C134  C     C_R   0.018105 0.296460 0.458924 0.036992
C135  C     C_R   0.259137 0.800756 0.281562 0.002027
C136  C     C_R   0.964297 0.265471 0.435225 -0.108944
C137  C     C_R   0.975211 0.197044 0.418600 -0.120756
C138  C     C_R   0.038667 0.158335 0.426421 -0.106784
C139  C     C_R   0.092288 0.188684 0.450150 -0.119267
C140  C     C_R   0.082372 0.257705 0.466091 -0.084330
C141  C     C_R   0.297029 0.018411 0.539785 0.040428
C142  C     C_R   0.262144 0.964151 0.561349 -0.109858
C143  C     C_R   0.193211 0.976798 0.576840 -0.114312
C144  C     C_R   0.158099 0.042572 0.570127 -0.093381
C145  C     C_R   0.192404 0.096815 0.548464 -0.118761
C146  C     C_R   0.798830 0.739258 0.718811 0.000842
C147  C     C_R   0.261895 0.085017 0.533536 -0.084505
C148  C     C_R   0.703545 0.018100 0.458924 0.036996
C149  C     C_R   0.734528 0.964293 0.435224 -0.108942
C150  C     C_R   0.802954 0.975203 0.418596 -0.120761
C151  C     C_R   0.841670 0.038654 0.426417 -0.106794
C152  C     C_R   0.811327 0.092275 0.450148 -0.119262
C153  C     C_R   0.742305 0.082363 0.466091 -0.084321
C154  C     C_R   0.981602 0.297034 0.539786 0.040431
C155  C     C_R   0.035866 0.262167 0.561355 -0.109862
C156  C     C_R   0.023227 0.193242 0.576858 -0.114320
C157  C     C_R   0.199260 0.259157 0.281570 0.002023
C158  C     C_R   0.957458 0.158117 0.570146 -0.093398
C159  C     C_R   0.903214 0.192401 0.548474 -0.118762
C160  C     C_R   0.915002 0.261886 0.533537 -0.084494
C161  C     C_R   0.981883 0.703541 0.458924 0.036993
C162  C     C_R   0.035688 0.734537 0.435227 -0.108942
C163  C     C_R   0.024769 0.802965 0.418605 -0.120754
C164  C     C_R   0.961310 0.841667 0.426426 -0.106779
C165  C     C_R   0.907690 0.811311 0.450153 -0.119266
C166  C     C_R   0.917612 0.742289 0.466092 -0.084332
C167  C     C_R   0.202971 0.481582 0.039786 0.040430
C168  C     C_R   0.259558 0.211442 0.286592 -0.011832
C169  C     C_R   0.237861 0.535838 0.061350 -0.109853
C170  C     C_R   0.306788 0.523183 0.076847 -0.114304
C171  C     C_R   0.341891 0.457402 0.070139 -0.093365
C172  C     C_R   0.307583 0.403163 0.048475 -0.118757
C173  C     C_R   0.238097 0.414970 0.033540 -0.084512
C174  C     C_R   0.796455 0.481898 0.958926 0.036994
C175  C     C_R   0.765467 0.535705 0.935226 -0.108942
C176  C     C_R   0.697039 0.524793 0.918601 -0.120764
C177  C     C_R   0.658326 0.461340 0.926423 -0.106799
C178  C     C_R   0.688674 0.407720 0.950153 -0.119255
C179  C     C_R   0.739043 0.787576 0.713944 -0.013502
C180  C     C_R   0.757697 0.417634 0.966094 -0.084318
C181  C     C_R   0.518396 0.202966 0.039789 0.040433
C182  C     C_R   0.464134 0.237826 0.061362 -0.109859
C183  C     C_R   0.476780 0.306738 0.076879 -0.114313
C184  C     C_R   0.542555 0.341861 0.070176 -0.093389
C185  C     C_R   0.596794 0.307586 0.048496 -0.118756
C186  C     C_R   0.584999 0.238112 0.033546 -0.084495
C187  C     C_R   0.518112 0.796459 0.958924 0.036987
C188  C     C_R   0.464307 0.765464 0.935226 -0.108949
C189  C     C_R   0.475224 0.697035 0.918605 -0.120760
C190  C     C_R   0.211431 0.740452 0.286588 -0.011833
C191  C     C_R   0.538682 0.658331 0.926427 -0.106788
C192  C     C_R   0.592302 0.688686 0.950155 -0.119258
C193  C     C_R   0.582382 0.757709 0.966093 -0.084322
C194  C     C_R   0.797032 0.518405 0.039788 0.040431
C195  C     C_R   0.762157 0.464146 0.061357 -0.109855
C196  C     C_R   0.693238 0.476798 0.076866 -0.114300
C197  C     C_R   0.658126 0.542577 0.070161 -0.093368
C198  C     C_R   0.692417 0.596815 0.048489 -0.118754
C199  C     C_R   0.761896 0.585012 0.033545 -0.084507
C200  C     C_R   0.203547 0.518099 0.958925 0.036999
C201  C     C_R   0.787582 0.260952 0.713945 -0.013501
C202  C     C_R   0.234535 0.464292 0.935226 -0.108935
C203  C     C_R   0.302963 0.475203 0.918602 -0.120765
C204  C     C_R   0.341676 0.538655 0.926424 -0.106799
C205  C     C_R   0.311330 0.592276 0.950153 -0.119258
C206  C     C_R   0.242306 0.582363 0.966093 -0.084319
C207  C     C_R   0.481611 0.797030 0.039787 0.040431
C208  C     C_R   0.535875 0.762177 0.061362 -0.109862
C209  C     C_R   0.523239 0.693259 0.076874 -0.114313
C210  C     C_R   0.457475 0.658123 0.070163 -0.093403
C211  C     C_R   0.403233 0.692391 0.048482 -0.118763
C212  C     C_R   0.740441 0.788557 0.286592 -0.011832
C213  C     C_R   0.415017 0.761871 0.033537 -0.084486
C214  C     C_R   0.481893 0.203541 0.958926 0.036990
C215  C     C_R   0.535700 0.234533 0.935227 -0.108946
C216  C     C_R   0.524783 0.302961 0.918604 -0.120760
C217  C     C_R   0.461327 0.341667 0.926426 -0.106787
C218  C     C_R   0.407706 0.311316 0.950154 -0.119262
C219  C     C_R   0.417625 0.242293 0.966094 -0.084329
C220  C     C_R   0.003517 0.633004 0.519967 -0.020268
C221  C     C_R   0.260959 0.212425 0.713944 -0.013502
C222  C     C_R   0.788560 0.259555 0.286591 -0.011833
C223  C     C_R   0.212412 0.739054 0.713946 -0.013500
C224  C     C_R   0.760743 0.298826 0.218810 0.000842
C225  C     C_R   0.240862 0.699246 0.781563 0.002026
C226  C     C_R   0.701186 0.760759 0.218805 0.000838
C227  C     C_R   0.300744 0.240848 0.781568 0.002024
C228  C     C_R   0.239276 0.701155 0.218815 0.000847
C229  C     C_R   0.759142 0.300751 0.781564 0.002026
C230  C     C_R   0.298816 0.239244 0.218806 0.000838
C231  C     C_R   0.005604 0.366907 0.479102 -0.019632
C232  C     C_R   0.699255 0.759151 0.781568 0.002024
C233  C     C_R   0.759554 0.711438 0.786591 -0.011832
C234  C     C_R   0.239030 0.287565 0.213941 -0.013504
C235  C     C_R   0.711435 0.240449 0.786590 -0.011833
C236  C     C_R   0.287586 0.760947 0.213945 -0.013502
C237  C     C_R   0.240445 0.288562 0.786591 -0.011832
C238  C     C_R   0.760970 0.712436 0.213941 -0.013506
C239  C     C_R   0.288568 0.759549 0.786589 -0.011832
C240  C     C_R   0.712428 0.239037 0.213943 -0.013505
C241  C     C_R   0.302621 0.805117 0.753416 0.009622
C242  C     C_R   0.366993 0.003522 0.519968 -0.020269
C243  C     C_R   0.698108 0.193902 0.247180 0.010100
C244  C     C_R   0.194887 0.302627 0.753415 0.009618
C245  C     C_R   0.806096 0.698105 0.247182 0.010098
C246  C     C_R   0.697378 0.194884 0.753416 0.009620
C247  C     C_R   0.301890 0.806098 0.247179 0.010103
C248  C     C_R   0.805113 0.697374 0.753415 0.009619
C249  C     C_R   0.193903 0.301894 0.247182 0.010099
C250  C     C_R   0.305111 0.197372 0.253414 0.009615
C251  C     C_R   0.693904 0.801894 0.747181 0.010101
C252  C     C_R   0.197379 0.694883 0.253416 0.009622
C253  C     C_R   0.633096 0.005604 0.479102 -0.019632
C254  C     C_R   0.801891 0.306098 0.747180 0.010103
C255  C     C_R   0.694889 0.802629 0.253414 0.009614
C256  C     C_R   0.306096 0.198106 0.747182 0.010101
C257  C     C_R   0.802624 0.305114 0.253415 0.009617
C258  C     C_R   0.198109 0.693902 0.747179 0.010104
C259  C     C_R   0.434524 0.003408 0.581742 -0.124268
C260  C     C_R   0.565089 0.008000 0.417638 -0.124296
C261  C     C_R   0.996591 0.434527 0.581742 -0.124270
C262  C     C_R   0.991999 0.565089 0.417638 -0.124295
C263  C     C_R   0.565475 0.996592 0.581742 -0.124268
C264  C     C_R   0.996480 0.366997 0.519967 -0.020268
C265  C     C_R   0.434909 0.992000 0.417638 -0.124295
C266  C     C_R   0.003409 0.565474 0.581742 -0.124271
C267  C     C_R   0.007999 0.434912 0.417638 -0.124296
C268  C     C_R   0.934527 0.503407 0.081742 -0.124269
C269  C     C_R   0.065091 0.507998 0.917638 -0.124295
C270  C     C_R   0.496589 0.934525 0.081742 -0.124274
C271  C     C_R   0.492003 0.065089 0.917638 -0.124295
C272  C     C_R   0.065477 0.496592 0.081742 -0.124269
C273  C     C_R   0.934910 0.492002 0.917638 -0.124295
C274  C     C_R   0.503410 0.065472 0.081742 -0.124272
C275  C     C_R   0.994390 0.633094 0.479102 -0.019632
C276  C     C_R   0.507998 0.934911 0.917637 -0.124294
C277  C     C_R   0.499999 1.000000 0.601856 0.025460
C278  C     C_R   0.499999 0.000000 0.397704 0.027662
C279  C     C_R   1.000000 0.500001 0.601856 0.025455
C280  C     C_R   1.000000 0.500000 0.397704 0.027663
C281  C     C_R   0.000002 0.500000 0.101856 0.025458
C282  C     C_R   0.000001 0.500000 0.897704 0.027662
C283  C     C_R   0.500000 0.999999 0.101856 0.025451
C284  C     C_R   0.500000 0.000000 0.897704 0.027662
C285  C     C_R   0.566744 0.997579 0.540768 -0.003254
C286  C     C_R   0.133008 0.496475 0.019968 -0.020270
C287  C     C_R   0.433322 0.995259 0.458502 -0.003500
C288  C     C_R   0.002420 0.566744 0.540768 -0.003254
C289  C     C_R   0.004740 0.433325 0.458502 -0.003499
C290  C     C_R   0.433254 0.002422 0.540768 -0.003254
C291  C     C_R   0.566676 0.004741 0.458502 -0.003500
C292  C     C_R   0.997578 0.433257 0.540768 -0.003253
C293  C     C_R   0.995257 0.566676 0.458502 -0.003499
C294  C     C_R   0.066747 0.497577 0.040769 -0.003254
C295  C     C_R   0.933324 0.495260 0.958502 -0.003498
C296  C     C_R   0.502422 0.066742 0.040768 -0.003253
H1    H     H_    0.260488 0.619369 0.871338 0.135464
H2    H     H_    0.731096 0.676149 0.884400 0.105283
H3    H     H_    0.435329 0.333651 0.093667 0.096962
H4    H     H_    0.550744 0.395866 0.081566 0.102154
H5    H     H_    0.647743 0.334849 0.043032 0.104172
H6    H     H_    0.626937 0.212377 0.016278 0.104300
H7    H     H_    0.413953 0.794028 0.930024 0.104462
H8    H     H_    0.434289 0.673446 0.899974 0.104764
H9    H     H_    0.546286 0.604963 0.913969 0.104830
H10   H     H_    0.641525 0.658830 0.956251 0.111412
H11   H     H_    0.624114 0.780468 0.984665 0.103851
H12   H     H_    0.787884 0.411918 0.065377 0.095031
H13   H     H_    0.320604 0.734761 0.115684 0.125693
H14   H     H_    0.666312 0.435349 0.093648 0.096936
H15   H     H_    0.604115 0.550771 0.081545 0.102167
H16   H     H_    0.665163 0.647766 0.043023 0.104183
H17   H     H_    0.787642 0.626948 0.016281 0.104300
H18   H     H_    0.205964 0.413942 0.930025 0.104461
H19   H     H_    0.326546 0.434267 0.899969 0.104771
H20   H     H_    0.395044 0.546254 0.913963 0.104824
H21   H     H_    0.341191 0.641495 0.956247 0.111404
H22   H     H_    0.219552 0.624097 0.984666 0.103848
H23   H     H_    0.588094 0.787922 0.065385 0.095029
H24   H     H_    0.676136 0.268921 0.884396 0.105282
H25   H     H_    0.564692 0.666351 0.093664 0.096963
H26   H     H_    0.449295 0.604113 0.081548 0.102151
H27   H     H_    0.352293 0.665118 0.043011 0.104181
H28   H     H_    0.373079 0.787599 0.016267 0.104301
H29   H     H_    0.586053 0.205968 0.930025 0.104463
H30   H     H_    0.565719 0.326548 0.899973 0.104766
H31   H     H_    0.453723 0.395034 0.913967 0.104830
H32   H     H_    0.358484 0.341172 0.956249 0.111416
H33   H     H_    0.375892 0.219536 0.984666 0.103847
H34   H     H_    0.734879 0.679516 0.115663 0.125677
H35   H     H_    0.268899 0.323846 0.884401 0.105282
H36   H     H_    0.679472 0.265164 0.115671 0.125684
H37   H     H_    0.323876 0.731070 0.884393 0.105282
H38   H     H_    0.760447 0.119401 0.371350 0.135464
H39   H     H_    0.249609 0.873112 0.627793 0.107491
H40   H     H_    0.880574 0.760412 0.371361 0.135467
H41   H     H_    0.749706 0.373030 0.127770 0.107474
H42   H     H_    0.126963 0.249701 0.627771 0.107479
H43   H     H_    0.239506 0.880638 0.371336 0.135465
H44   H     H_    0.750354 0.126918 0.627784 0.107485
H45   H     H_    0.119422 0.239583 0.371360 0.135464
H46   H     H_    0.873042 0.750305 0.627773 0.107480
H47   H     H_    0.765187 0.820556 0.615676 0.125687
H48   H     H_    0.231111 0.176166 0.384404 0.105282
H49   H     H_    0.820586 0.234784 0.615681 0.125691
H50   H     H_    0.176119 0.768937 0.384392 0.105281
H51   H     H_    0.234819 0.179450 0.615675 0.125687
H52   H     H_    0.380589 0.260431 0.871355 0.135465
H53   H     H_    0.768885 0.823831 0.384404 0.105283
H54   H     H_    0.179383 0.765243 0.615686 0.125694
H55   H     H_    0.823846 0.231098 0.384401 0.105282
H56   H     H_    0.384864 0.005213 0.598487 0.120291
H57   H     H_    0.614226 0.014687 0.400739 0.119558
H58   H     H_    0.994783 0.384869 0.598487 0.120298
H59   H     H_    0.985314 0.614226 0.400739 0.119553
H60   H     H_    0.615134 0.994786 0.598487 0.120294
H61   H     H_    0.385772 0.985314 0.400739 0.119558
H62   H     H_    0.005217 0.615132 0.598487 0.120295
H63   H     H_    0.627030 0.749780 0.127751 0.107464
H64   H     H_    0.014685 0.385776 0.400739 0.119556
H65   H     H_    0.884868 0.505213 0.098488 0.120301
H66   H     H_    0.114229 0.514683 0.900740 0.119557
H67   H     H_    0.494779 0.884868 0.098488 0.120302
H68   H     H_    0.485319 0.114226 0.900740 0.119555
H69   H     H_    0.115137 0.494787 0.098488 0.120293
H70   H     H_    0.885773 0.485317 0.900740 0.119557
H71   H     H_    0.505219 0.115129 0.098488 0.120305
H72   H     H_    0.514682 0.885775 0.900739 0.119555
H73   H     H_    0.712118 0.088080 0.565378 0.095046
H74   H     H_    0.739527 0.380620 0.871343 0.135465
H75   H     H_    0.833712 0.064662 0.593625 0.096926
H76   H     H_    0.895917 0.949254 0.581505 0.102160
H77   H     H_    0.834857 0.852250 0.542994 0.104193
H78   H     H_    0.712360 0.873055 0.516273 0.104301
H79   H     H_    0.294040 0.086059 0.430025 0.104461
H80   H     H_    0.173458 0.065739 0.399969 0.104774
H81   H     H_    0.104956 0.953753 0.413961 0.104824
H82   H     H_    0.158806 0.858509 0.456244 0.111403
H83   H     H_    0.280445 0.875902 0.484663 0.103848
H84   H     H_    0.911907 0.712096 0.565380 0.095043
H85   H     H_    0.250383 0.626890 0.127792 0.107489
H86   H     H_    0.935311 0.833684 0.593635 0.096944
H87   H     H_    0.050710 0.895909 0.581513 0.102150
H88   H     H_    0.147719 0.834873 0.542995 0.104186
H89   H     H_    0.126930 0.712378 0.516270 0.104303
H90   H     H_    0.913944 0.294038 0.430024 0.104463
H91   H     H_    0.934274 0.173459 0.399969 0.104771
H92   H     H_    0.046268 0.104969 0.413960 0.104830
H93   H     H_    0.141510 0.158825 0.456244 0.111411
H94   H     H_    0.124107 0.280460 0.484663 0.103849
H95   H     H_    0.287870 0.911924 0.565375 0.095051
H96   H     H_    0.619405 0.739562 0.871353 0.135467
H97   H     H_    0.166272 0.935346 0.593614 0.096917
H98   H     H_    0.104076 0.050758 0.581495 0.102162
H99   H     H_    0.165149 0.147763 0.542991 0.104189
H100  H     H_    0.287650 0.126953 0.516275 0.104303
H101  H     H_    0.705955 0.913944 0.430022 0.104462
H102  H     H_    0.826533 0.934268 0.399962 0.104778
H103  H     H_    0.895035 0.046254 0.413954 0.104825
H104  H     H_    0.841191 0.141493 0.456243 0.111409
H105  H     H_    0.719555 0.124097 0.484665 0.103848
H106  H     H_    0.088090 0.287903 0.565379 0.095042
H107  H     H_    0.372984 0.250235 0.127756 0.107468
H108  H     H_    0.064681 0.166321 0.593639 0.096947
H109  H     H_    0.949276 0.104101 0.581523 0.102151
H110  H     H_    0.852269 0.165136 0.543003 0.104184
H111  H     H_    0.873063 0.287626 0.516273 0.104302
H112  H     H_    0.086043 0.705974 0.430026 0.104461
H113  H     H_    0.065704 0.826556 0.399975 0.104761
H114  H     H_    0.953705 0.895034 0.413968 0.104833
H115  H     H_    0.858466 0.841165 0.456248 0.111408
H116  H     H_    0.875879 0.719529 0.484664 0.103851
H117  H     H_    0.212141 0.588070 0.065373 0.095045
H118  H     H_    0.265130 0.320491 0.115665 0.125681
H119  H     H_    0.333729 0.564632 0.093622 0.096913
H120  H     H_    0.395909 0.449207 0.081512 0.102172
H121  H     H_    0.334831 0.352208 0.043007 0.104181
H122  H     H_    0.212340 0.373036 0.016280 0.104302
H123  H     H_    0.794037 0.586055 0.930024 0.104463
H124  H     H_    0.673457 0.565728 0.899968 0.104771
H125  H     H_    0.604959 0.453740 0.913963 0.104826
H126  H     H_    0.658812 0.358501 0.956248 0.111411
H127  H     H_    0.780451 0.375901 0.984667 0.103847
H128  H     H_    0.411909 0.212091 0.065380 0.095028
O1    O     O_3   0.000000 0.500000 0.750000 -0.455959
O2    O     O_R   0.060740 0.500000 0.337440 -0.533330
O3    O     O_R   0.500000 0.939260 0.662560 -0.532807
O4    O     O_R   0.500000 0.060740 0.337440 -0.533331
O5    O     O_R   0.560740 0.000000 0.162560 -0.532806
O6    O     O_R   0.439260 1.000000 0.837440 -0.533329
O7    O     O_R   0.000000 0.560740 0.162560 -0.532807
O8    O     O_R   0.000000 0.439260 0.837440 -0.533330
O9    O     O_R   0.439260 0.000000 0.162560 -0.532806
O10   O     O_R   0.560740 1.000000 0.837440 -0.533330
O11   O     O_R   0.000000 0.439260 0.162560 -0.532808
O12   O     O_3   0.000000 0.500000 0.250000 -0.455958
O13   O     O_R   0.000000 0.560740 0.837440 -0.533330
O14   O     O_R   0.853850 0.585450 0.727070 -0.528779
O15   O     O_R   0.146150 0.414550 0.272930 -0.528266
O16   O     O_R   0.414550 0.853850 0.727070 -0.528775
O17   O     O_R   0.585450 0.146150 0.272930 -0.528264
O18   O     O_R   0.146150 0.414550 0.727070 -0.528778
O19   O     O_R   0.853850 0.585450 0.272930 -0.528267
O20   O     O_R   0.585450 0.146150 0.727070 -0.528775
O21   O     O_R   0.414550 0.853850 0.272930 -0.528264
O22   O     O_R   0.853850 0.414550 0.272930 -0.529952
O23   O     O_3   0.500000 0.000000 0.750000 -0.455959
O24   O     O_R   0.146150 0.585450 0.727070 -0.531255
O25   O     O_R   0.414550 0.146150 0.272930 -0.529949
O26   O     O_R   0.585450 0.853850 0.727070 -0.531252
O27   O     O_R   0.146150 0.585450 0.272930 -0.529953
O28   O     O_R   0.853850 0.414550 0.727070 -0.531255
O29   O     O_R   0.585450 0.853850 0.272930 -0.529949
O30   O     O_R   0.414550 0.146150 0.727070 -0.531253
O31   O     O_R   0.353850 0.085450 0.227070 -0.528777
O32   O     O_R   0.646150 0.914550 0.772930 -0.528267
O33   O     O_R   0.914550 0.353850 0.227070 -0.528775
O34   O     O_3   0.500000 0.000000 0.250000 -0.455958
O35   O     O_R   0.085450 0.646150 0.772930 -0.528263
O36   O     O_R   0.646150 0.914550 0.227070 -0.528779
O37   O     O_R   0.353850 0.085450 0.772930 -0.528266
O38   O     O_R   0.085450 0.646150 0.227070 -0.528775
O39   O     O_R   0.914550 0.353850 0.772930 -0.528263
O40   O     O_R   0.353850 0.914550 0.772930 -0.529952
O41   O     O_R   0.646150 0.085450 0.227070 -0.531256
O42   O     O_R   0.914550 0.646150 0.772930 -0.529949
O43   O     O_R   0.085450 0.353850 0.227070 -0.531253
O44   O     O_R   0.646150 0.085450 0.772930 -0.529953
O45   O     O_R   0.060740 0.500000 0.662560 -0.532805
O46   O     O_R   0.353850 0.914550 0.227070 -0.531255
O47   O     O_R   0.085450 0.353850 0.772930 -0.529949
O48   O     O_R   0.914550 0.646150 0.227070 -0.531253
O49   O     O_R   0.939260 0.500000 0.337440 -0.533330
O50   O     O_R   0.500000 0.060740 0.662560 -0.532807
O51   O     O_R   0.500000 0.939260 0.337440 -0.533330
O52   O     O_R   0.939260 0.500000 0.662560 -0.532806
Zn1   Zn    Zn3+2 0.000000 0.586740 0.782740 0.959954
Zn2   Zn    Zn3+2 0.500000 0.913260 0.717260 0.959526
Zn3   Zn    Zn3+2 0.913260 0.500000 0.282740 0.959954
Zn4   Zn    Zn3+2 0.086740 0.500000 0.717260 0.959528
Zn5   Zn    Zn3+2 0.500000 0.913260 0.282740 0.959953
Zn6   Zn    Zn3+2 0.500000 0.086740 0.717260 0.959525
Zn7   Zn    Zn3+2 0.086740 0.500000 0.282740 0.959955
Zn8   Zn    Zn3+2 0.913260 0.500000 0.717260 0.959527
Zn9   Zn    Zn3+2 1.000000 0.413260 0.217260 0.959525
Zn10  Zn    Zn3+2 0.413260 1.000000 0.782740 0.959955
Zn11  Zn    Zn3+2 0.586740 1.000000 0.217260 0.959526
Zn12  Zn    Zn3+2 0.000000 0.413260 0.782740 0.959954
Zn13  Zn    Zn3+2 0.000000 0.586740 0.217260 0.959526
Zn14  Zn    Zn3+2 0.586740 1.000000 0.782740 0.959955
Zn15  Zn    Zn3+2 0.413260 1.000000 0.217260 0.959529
Zn16  Zn    Zn3+2 0.500000 0.086740 0.282740 0.959953

loop_
_geom_bond_atom_site_label_1
_geom_bond_atom_site_label_2
_ccdc_geom_bond_type
Br10  C53   S    
C211  H27   S    
C125  C126  A    
C270  C283  A    
O34   Zn5   S    
C128  C220  S    
C191  C192  A    
Br32  C43   S    
C159  H110  S    
O22   Zn3   S    
C148  C149  A    
O6    Zn10  S    
O24   Zn4   S    
Br24  C66   S    
C198  H16   S    
C143  H97   S    
C130  C131  A    
C223  C258  A    
C139  H93   S    
C105  C285  A    
C123  C125  A    
C263  H60   S    
C141  C147  A    
Br11  C54   S    
C167  C173  A    
C261  H58   S    
C112  C242  A    
C89   H34   S    
C14   O6    A    
C150  C151  A    
C75   C81   A    
C1    C115  S    
C271  C284  A    
C72   C84   A    
C185  H5    S    
C25   O46   A    
C13   C181  S    
C173  H122  S    
C102  H63   S    
C110  C295  A    
O47   Zn12  S    
O3    Zn2   S    
C66   C226  A    
O10   Zn14  S    
C101  C244  A    
C151  H103  S    
C71   C85   A    
C91   H35   S    
C196  C197  A    
C228  C252  A    
C20   C243  S    
C79   C223  A    
O45   Zn4   S    
C269  C282  A    
C6    C270  A    
C168  C250  A    
C170  C171  A    
C18   C249  S    
C159  C160  A    
C10   O50   A    
C125  H81   S    
C101  C221  A    
C3    C276  A    
C52   C240  A    
C174  C175  A    
C56   C236  A    
C41   C76   A    
O48   Zn13  S    
C94   C97   A    
C149  C150  A    
Br23  C37   S    
C273  C282  A    
C151  C152  A    
C197  C198  A    
C156  H108  S    
C209  H25   S    
C143  C144  A    
C267  C289  A    
C54   C89   A    
C200  C202  A    
C26   O22   A    
C22   O19   A    
C116  C117  A    
C153  H105  S    
C54   C238  A    
C122  C123  A    
C123  H80   S    
Br19  C62   S    
C136  C137  A    
C62   C230  A    
C1    C253  A    
C32   O36   A    
C126  C127  A    
C8    O52   A    
C203  H19   S    
Br28  C39   S    
C179  C251  A    
C170  H119  S    
Br3   C45   S    
C135  C247  A    
C218  H32   S    
C28   O25   A    
C182  C183  A    
C113  C245  A    
C164  C165  A    
C38   C73   A    
C107  C108  A    
C22   O48   A    
C5    C46   A    
O12   Zn7   S    
C87   C104  A    
C266  H62   S    
C88   C103  A    
C262  H59   S    
C58   C235  A    
O1    Zn8   S    
Br14  C56   S    
C260  H57   S    
C13   C296  A    
O23   Zn2   S    
C10   O3    A    
C240  C243  A    
C85   H38   S    
C167  C286  S    
C227  C256  A    
C265  C278  A    
C163  C164  A    
C191  H9    S    
C174  C180  A    
O26   Zn2   S    
C107  C292  A    
Br16  C59   S    
C161  C162  A    
C39   C74   A    
C232  C251  A    
C154  C155  A    
C77   C78   A    
C17   O14   A    
C50   C90   A    
O29   Zn5   S    
C134  C140  A    
C158  C159  A    
C91   C100  A    
Br8   C51   S    
C6    C111  A    
C115  C116  A    
C76   H47   S    
C36   C71   A    
C88   H37   S    
C56   C92   A    
C260  C291  A    
O2    Zn7   S    
Br12  C36   S    
C236  C247  A    
C196  H14   S    
C217  C218  A    
C29   C251  S    
C238  C245  A    
C52   C87   A    
C176  H124  S    
C138  C139  A    
C261  C292  A    
C152  C153  A    
C286  C294  A    
C156  C158  A    
C209  C210  A    
C21   O18   A    
C142  C143  A    
O23   Zn14  S    
C26   C257  S    
C232  C233  A    
C145  C147  A    
C146  C179  A    
C63   C98   A    
C16   C282  S    
C31   O28   A    
O40   Zn10  S    
C228  C236  A    
C30   O38   A    
O27   Zn7   S    
C262  C293  A    
Br6   C49   S    
C140  H94   S    
C205  C206  A    
C134  C136  A    
C111  C296  A    
C150  H102  S    
C259  H56   S    
C144  H98   S    
C130  H86   S    
C224  C257  A    
C17   O42   A    
C214  C219  A    
C137  H91   S    
C263  C285  A    
O12   Zn9   S    
O11   Zn9   S    
C192  H10   S    
C190  C252  A    
C96   H96   S    
Br31  C42   S    
O5    Zn11  S    
C185  C186  A    
C2    C295  A    
C226  C255  A    
C271  H68   S    
C127  H83   S    
C135  C190  A    
C124  C246  A    
C98   H74   S    
O34   Zn16  S    
C63   C229  A    
C231  C264  A    
C273  H70   S    
Br13  C55   S    
C171  H120  S    
C184  H4    S    
C158  H109  S    
C97   H107  S    
C23   C246  S    
C64   C99   A    
C24   C57   A    
C178  C180  A    
C131  H87   S    
C172  H121  S    
C265  C287  A    
C60   C95   A    
C126  H82   S    
C205  H21   S    
C274  H71   S    
C234  C249  A    
O33   Zn9   S    
O9    Zn15  S    
C214  C215  A    
C220  C275  A    
C193  H11   S    
C237  C244  A    
C3    C24   A    
C186  H6    S    
C41   C179  A    
O38   Zn13  S    
C169  H117  S    
C182  H128  S    
C181  C186  A    
O28   Zn8   S    
C233  C248  A    
C49   C101  A    
C269  H66   S    
C45   C135  A    
C235  C246  A    
C61   C96   A    
C90   C243  A    
C55   C91   A    
C160  H111  S    
C33   O37   A    
C197  H15   S    
C49   C84   A    
C122  H79   S    
C39   C201  A    
C165  C166  A    
C68   C214  S    
C141  C242  S    
C267  C280  A    
C175  H123  S    
C172  C173  A    
C7    C68   A    
C103  H1    S    
C194  C195  A    
C273  C295  A    
Br18  C61   S    
C132  H88   S    
C118  C119  A    
C161  C275  S    
C20   O41   A    
C270  H67   S    
C206  H22   S    
C111  C114  A    
C21   O47   A    
C268  H65   S    
C217  H31   S    
C259  C277  A    
C108  C289  A    
C11   C278  S    
O13   Zn1   S    
C207  C208  A    
O1    Zn12  S    
C171  C172  A    
C192  C193  A    
C265  H61   S    
C129  C130  A    
C221  C256  A    
C188  C189  A    
C272  C281  A    
C213  H28   S    
C181  C182  A    
C276  H72   S    
O19   Zn3   S    
C199  H17   S    
C274  C283  A    
C132  C133  A    
C43   C157  A    
C30   C252  S    
C44   C146  A    
C84   H42   S    
C4    C268  A    
C67   C225  A    
C46   C200  S    
C161  C166  A    
C220  C288  A    
C239  C241  A    
C169  C170  A    
O15   Zn7   S    
C145  H99   S    
C274  C296  A    
C165  H115  S    
Br25  C67   S    
C21   C244  S    
C27   O35   A    
O30   Zn6   S    
C176  C177  A    
C43   C78   A    
C157  C249  A    
C86   H39   S    
C119  C120  A    
C23   O20   A    
C225  C239  A    
C89   C102  A    
C154  C264  S    
C227  C237  A    
C15   O7    A    
C61   C232  A    
C162  C163  A    
C106  C291  A    
C80   H46   S    
O14   Zn8   S    
C18   O15   A    
C74   H49   S    
C183  H3    S    
C12   O5    A    
C73   C83   A    
O4    Zn16  S    
C27   O24   A    
C19   C241  S    
C164  H114  S    
C175  C176  A    
C204  H20   S    
C11   O51   A    
C1    C285  A    
C5    C110  A    
C272  C294  A    
C187  C188  A    
C162  H112  S    
C259  C290  A    
C218  C219  A    
C2    C174  S    
C76   C80   A    
C77   H48   S    
C3    C114  A    
C83   H40   S    
C19   O16   A    
C4    C109  A    
C112  C287  A    
C266  C279  A    
C210  H26   S    
C28   O31   A    
C177  C178  A    
C48   C83   A    
C268  C281  A    
C64   C228  A    
C26   O33   A    
C210  C211  A    
C67   C103  A    
C72   H51   S    
C25   O21   A    
C134  C231  S    
C100  H52   S    
C20   O17   A    
C33   O30   A    
C60   C233  A    
C32   C255  S    
C48   C113  A    
C202  H18   S    
O12   Zn13  S    
O49   Zn3   S    
C22   C245  S    
C10   C277  S    
C31   O39   A    
C32   O29   A    
C208  H23   S    
C28   C250  S    
O39   Zn12  S    
C202  C203  A    
C12   C283  S    
C9    O49   A    
C95   C96   A    
C266  C288  A    
C29   O32   A    
Br2   C44   S    
C216  C217  A    
O52   Zn8   S    
C12   O9    A    
C94   H118  S    
C219  H33   S    
C57   C207  S    
C163  H113  S    
C65   C100  A    
C13   C68   A    
O8    Zn12  S    
C2    C35   A    
C90   C222  A    
O23   Zn6   S    
C19   O40   A    
O1    Zn4   S    
C71   H55   S    
C17   C248  S    
C207  C213  A    
C53   C239  A    
O12   Zn3   S    
C149  H101  S    
C155  C156  A    
Br26  C69   S    
C188  H7    S    
C117  C118  A    
O51   Zn5   S    
C230  C250  A    
C104  H41   S    
C7    C114  A    
C58   C93   A    
O32   Zn14  S    
C272  H69   S    
C178  H126  S    
O44   Zn14  S    
C195  H12   S    
C177  H125  S    
C198  C199  A    
C226  C238  A    
C138  H92   S    
C129  H84   S    
C23   O44   A    
Br9   C52   S    
C261  C279  A    
C36   C222  A    
C262  C280  A    
C113  C212  A    
O36   Zn11  S    
C18   O43   A    
C142  H95   S    
C93   H24   S    
C216  H30   S    
C167  C169  A    
C275  C293  A    
C50   C85   A    
C14   O10   A    
C189  H8    S    
O50   Zn6   S    
C24   C187  S    
C139  C140  A    
C9    C280  S    
C59   C94   A    
O31   Zn15  S    
C137  C138  A    
C34   C70   A    
C131  C132  A    
C166  H116  S    
C183  C184  A    
C8    C279  S    
C16   O8    A    
C42   C77   A    
C119  H77   S    
C4    C35   A    
C37   C221  A    
C27   C258  S    
C263  C277  A    
C141  C142  A    
C204  C205  A    
C224  C240  A    
C6    C57   A    
C35   C194  S    
C74   C82   A    
C33   C256  S    
O18   Zn4   S    
C51   C86   A    
C8    O45   A    
C229  C235  A    
C92   H13   S    
C180  H127  S    
C5    C269  A    
C194  C199  A    
C148  C253  S    
C7    C271  A    
C112  C121  S    
C195  C196  A    
C16   O13   A    
C208  C209  A    
C276  C284  A    
C31   C254  S    
C38   C212  A    
C47   C124  A    
C253  C291  A    
C93   C98   A    
C201  C254  A    
C211  C213  A    
C108  C293  A    
C136  H90   S    
C59   C234  A    
O25   Zn16  S    
C106  C287  A    
C70   C86   A    
C73   H53   S    
Br29  C40   S    
C14   C284  S    
O17   Zn16  S    
Br22  C65   S    
C200  C206  A    
Br17  C60   S    
C120  H78   S    
O21   Zn5   S    
C118  H76   S    
C225  C258  A    
C15   C281  S    
C62   C97   A    
C109  C294  A    
C215  H29   S    
C69   C224  A    
C184  C185  A    
O35   Zn1   S    
Br4   C47   S    
C133  H89   S    
C148  C153  A    
C11   O4    A    
Br30  C41   S    
C105  C290  A    
C75   H50   S    
C70   H54   S    
C9    O2    A    
C128  C133  A    
C155  H106  S    
C92   C99   A    
C81   H43   S    
C121  C127  A    
C53   C88   A    
O20   Zn6   S    
C15   O11   A    
C231  C289  A    
C45   C81   A    
C40   C75   A    
C124  C201  A    
C44   C80   A    
C40   C190  A    
Br1   C34   S    
C187  C193  A    
Br5   C48   S    
Br27  C38   S    
C25   C247  S    
C157  C168  A    
C144  C145  A    
O7    Zn13  S    
Br20  C63   S    
O41   Zn11  S    
O46   Zn15  S    
C222  C257  A    
C87   H36   S    
C65   C227  A    
C69   C104  A    
C99   H85   S    
C116  H73   S    
O34   Zn11  S    
O16   Zn2   S    
O37   Zn10  S    
C29   O26   A    
C42   C168  A    
C230  C234  A    
C215  C216  A    
Br21  C64   S    
C242  C290  A    
C105  C106  A    
C66   C102  A    
C46   C286  A    
C128  C129  A    
C115  C120  A    
C189  C191  A    
C109  C110  A    
C55   C237  A    
Br15  C58   S    
O34   Zn15  S    
C229  C254  A    
C152  H104  S    
O1    Zn1   S    
C117  H75   S    
C78   H45   S    
C147  H100  S    
C95   H2    S    
C51   C79   A    
C79   C241  A    
C154  C160  A    
C267  H64   S    
C260  C278  A    
C203  C204  A    
C146  C248  A    
Br7   C50   S    
C34   C223  A    
C212  C255  A    
C264  C292  A    
C47   C82   A    
C82   H44   S    
O42   Zn1   S    
O43   Zn9   S    
C121  C122  A    
C107  C288  A    
O23   Zn10  S    
C30   O27   A    
C37   C72   A    
