data_mof_unit_13730.cif
_audit_creation_date              2012-12-11T15:23:56-0500
_audit_creation_method            fapswitch 2.2
_symmetry_space_group_name_H-M    P1
_symmetry_Int_Tables_number       1
_space_group_crystal_system       triclinic
_cell_length_a                    17.511673
_cell_length_b                    24.450361
_cell_length_c                    15.145149
_cell_angle_alpha                 90.580414
_cell_angle_beta                  126.16257
_cell_angle_gamma                 88.990272
_cell_volume                      5234.54187705

loop_
_atom_site_label
_atom_site_type_symbol
_atom_type_description
_atom_site_fract_x
_atom_site_fract_y
_atom_site_fract_z
_atom_type_partial_charge
C1    C     C_R   0.349314 0.349793 0.909145 -0.099352
C2    C     C_R   0.525400 0.498157 0.702398 0.164280
C3    C     C_R   0.053872 0.999601 0.357457 0.162167
C4    C     C_R   0.025308 0.998152 0.702314 0.164409
C5    C     C_R   0.174697 0.498359 0.689046 0.246607
C6    C     C_R   0.797657 0.497866 0.368246 0.181684
C7    C     C_R   0.674698 0.998357 0.689031 0.246658
C8    C     C_R   0.297656 0.997866 0.368246 0.181620
C9    C     C_2   0.922839 0.457470 0.550260 0.503629
C10   C     C_2   0.022654 0.466208 0.638403 0.447925
C11   C     C_2   0.422837 0.957469 0.550254 0.503762
C12   C     C_R   0.644497 0.347032 0.090157 -0.104907
C13   C     C_2   0.522655 0.966205 0.638389 0.447919
C14   C     C_2   0.871905 0.500341 0.485661 -0.347051
C15   C     C_2   0.073100 0.497238 0.617375 -0.445743
C16   C     C_2   0.371906 0.000340 0.485658 -0.346653
C17   C     C_2   0.573101 0.997232 0.617354 -0.445830
C18   C     C_R   0.155677 0.682840 0.908731 -0.221001
C19   C     C_R   0.824464 0.688715 0.069328 -0.237325
C20   C     C_R   0.655676 0.182843 0.908725 -0.220922
C21   C     C_R   0.324541 0.188671 0.069317 -0.237242
C22   C     C_R   0.600176 0.224455 0.908163 0.479689
C23   C     C_R   0.849308 0.849795 0.909143 -0.099353
C24   C     C_R   0.376704 0.229138 0.065838 0.491506
C25   C     C_R   0.100178 0.724453 0.908169 0.479652
C26   C     C_R   0.876644 0.729160 0.065833 0.491499
C27   C     C_R   0.638776 0.256642 0.003317 0.023991
C28   C     C_R   0.327952 0.274034 0.996652 -0.030989
C29   C     C_R   0.138780 0.756641 0.003322 0.024016
C30   C     C_R   0.827912 0.774057 0.996650 -0.031014
C31   C     C_R   0.718051 0.236630 0.102998 -0.132223
C32   C     C_R   0.229521 0.278087 0.929624 -0.172328
C33   C     C_R   0.218057 0.736631 0.103005 -0.132280
C34   C     C_R   0.144497 0.847032 0.090158 -0.104907
C35   C     C_R   0.729482 0.778133 0.929644 -0.172353
C36   C     C_R   0.271036 0.694280 0.103740 -0.151120
C37   C     C_R   0.678514 0.738167 0.933363 -0.135591
C38   C     C_R   0.771031 0.194279 0.103734 -0.151140
C39   C     C_R   0.178571 0.238103 0.933329 -0.135592
C40   C     C_R   0.404199 0.625791 0.091725 -0.113219
C41   C     C_R   0.587068 0.635516 0.910887 -0.111349
C42   C     C_R   0.904200 0.125795 0.091722 -0.113239
C43   C     C_R   0.087123 0.135468 0.910879 -0.111233
C44   C     C_R   0.245576 0.671707 0.004669 0.064517
C45   C     C_R   0.316388 0.641856 0.001144 0.085330
C46   C     C_R   0.726096 0.693965 0.003352 0.049405
C47   C     C_R   0.745574 0.171709 0.004664 0.064491
C48   C     C_R   0.226169 0.193900 0.003322 0.049400
C49   C     C_R   0.479607 0.531722 0.530150 -0.199502
C50   C     C_R   0.488723 0.533326 0.447180 -0.186760
C51   C     C_R   0.979177 0.031532 0.529828 -0.199543
C52   C     C_R   0.988271 0.033136 0.446837 -0.186783
C53   C     C_R   0.558061 0.501169 0.453485 -0.096455
C54   C     C_R   0.540918 0.498691 0.620725 -0.097598
C55   C     C_R   0.057856 0.001150 0.453342 -0.096649
C56   C     C_R   0.670817 0.653051 0.003786 0.088262
C57   C     C_R   0.040741 0.998665 0.620586 -0.097798
C58   C     C_R   0.621932 0.468472 0.544869 0.387138
C59   C     C_R   0.613463 0.467366 0.630513 0.393463
C60   C     C_R   0.121936 0.968599 0.544877 0.387226
C61   C     C_R   0.113478 0.967490 0.630525 0.393541
C62   C     C_R   0.541427 0.453627 0.298089 -0.080779
C63   C     C_R   0.505543 0.452429 0.737558 -0.074499
C64   C     C_R   0.041380 0.953624 0.298059 -0.080738
C65   C     C_R   0.005507 0.952425 0.737526 -0.074476
C66   C     C_R   0.230160 0.544415 0.722708 -0.149634
C67   C     C_R   0.816387 0.141858 0.001140 0.085328
C68   C     C_R   0.752599 0.543888 0.304792 -0.150253
C69   C     C_R   0.730160 0.044414 0.722698 -0.149659
C70   C     C_R   0.252597 0.043888 0.304793 -0.150237
C71   C     C_R   0.543920 0.545121 0.299351 -0.163814
C72   C     C_R   0.503381 0.544523 0.735676 -0.138713
C73   C     C_R   0.043849 0.045121 0.299319 -0.163735
C74   C     C_R   0.003294 0.044521 0.735583 -0.138756
C75   C     C_R   0.232866 0.452827 0.731461 -0.055321
C76   C     C_R   0.752315 0.452910 0.302268 -0.059608
C77   C     C_R   0.732867 0.952826 0.731450 -0.055357
C78   C     C_R   0.170895 0.152984 0.003772 0.088253
C79   C     C_R   0.252318 0.952910 0.302267 -0.059607
C80   C     C_R   0.312960 0.629141 0.908960 -0.099654
C81   C     C_R   0.681895 0.632830 0.095207 -0.122052
C82   C     C_R   0.812959 0.129140 0.908957 -0.099595
C83   C     C_R   0.181941 0.132791 0.095198 -0.122019
C84   C     C_R   0.438825 0.350274 0.092205 -0.085144
C85   C     C_R   0.556005 0.347327 0.908644 -0.067321
C86   C     C_R   0.938819 0.850276 0.092204 -0.085176
C87   C     C_R   0.056005 0.847326 0.908646 -0.067434
C88   C     C_R   0.375412 0.320789 0.000038 0.123131
C89   C     C_R   0.553976 0.499605 0.357521 0.162077
C90   C     C_R   0.613306 0.314451 0.999727 0.087921
C91   C     C_R   0.875400 0.820793 0.000035 0.123183
C92   C     C_R   0.113307 0.814450 0.999729 0.087929
Cl1   Cl    Cl    0.483917 0.232650 0.788990 -0.662503
Cl2   Cl    Cl    0.074344 0.430654 0.763165 -0.574884
Cl3   Cl    Cl    0.384885 0.889079 0.525452 -0.549199
Cl4   Cl    Cl    0.574346 0.930658 0.763157 -0.574858
Cl5   Cl    Cl    0.500799 0.221857 0.145366 -0.653604
Cl6   Cl    Cl    0.983918 0.732648 0.788997 -0.662594
Cl7   Cl    Cl    0.000734 0.721849 0.145333 -0.653617
Cl8   Cl    Cl    0.712628 0.430520 0.553304 -0.511217
Cl9   Cl    Cl    0.694103 0.428465 0.749388 -0.545274
Cl10  Cl    Cl    0.212858 0.930839 0.553473 -0.511285
Cl11  Cl    Cl    0.194350 0.928773 0.749588 -0.545135
Cl12  Cl    Cl    0.884910 0.389074 0.525446 -0.549084
H1    H     H_    0.306496 0.335962 0.825137 0.123121
H2    H     H_    0.859701 0.653348 0.121686 0.168887
H3    H     H_    0.630321 0.161178 0.833599 0.161661
H4    H     H_    0.359793 0.153308 0.121684 0.168887
H5    H     H_    0.746737 0.257097 0.179880 0.145501
H6    H     H_    0.192118 0.313416 0.877927 0.193181
H7    H     H_    0.246745 0.757099 0.179889 0.145477
H8    H     H_    0.692098 0.813464 0.877950 0.193209
H9    H     H_    0.336688 0.684075 0.181221 0.124051
H10   H     H_    0.602129 0.742450 0.883610 0.154767
H11   H     H_    0.836680 0.184072 0.181214 0.124078
H12   H     H_    0.680308 0.333867 0.173836 0.120357
H13   H     H_    0.102184 0.242376 0.883569 0.154759
H14   H     H_    0.422724 0.555242 0.522104 0.155687
H15   H     H_    0.438604 0.557824 0.375530 0.154612
H16   H     H_    0.922154 0.054932 0.521695 0.155763
H17   H     H_    0.937995 0.057510 0.375053 0.154724
H18   H     H_    0.432515 0.629907 0.176645 0.093346
H19   H     H_    0.553629 0.649502 0.828319 0.103800
H20   H     H_    0.932519 0.129921 0.176640 0.093354
H21   H     H_    0.053710 0.149440 0.828307 0.103804
H22   H     H_    0.550621 0.411354 0.323297 0.141122
H23   H     H_    0.806483 0.835965 0.825133 0.123115
H24   H     H_    0.508003 0.410067 0.718163 0.135017
H25   H     H_    0.050578 0.911352 0.323278 0.140947
H26   H     H_    0.007967 0.910062 0.718133 0.134831
H27   H     H_    0.205903 0.585542 0.693109 0.113247
H28   H     H_    0.762089 0.585395 0.334722 0.114869
H29   H     H_    0.705903 0.085541 0.693096 0.113269
H30   H     H_    0.262085 0.085395 0.334723 0.114891
H31   H     H_    0.558616 0.586918 0.328309 0.114500
H32   H     H_    0.500604 0.585907 0.710200 0.109356
H33   H     H_    0.058517 0.086918 0.328281 0.114553
H34   H     H_    0.180306 0.833868 0.173837 0.120324
H35   H     H_    0.000443 0.085899 0.710027 0.109431
H36   H     H_    0.212673 0.410401 0.714982 0.129862
H37   H     H_    0.759633 0.410747 0.325617 0.169080
H38   H     H_    0.712675 0.910400 0.714967 0.129844
H39   H     H_    0.259646 0.910745 0.325612 0.169040
H40   H     H_    0.257626 0.640583 0.826084 0.102742
H41   H     H_    0.736112 0.642119 0.180211 0.112108
H42   H     H_    0.757623 0.140579 0.826081 0.102763
H43   H     H_    0.236173 0.142077 0.180201 0.112117
H44   H     H_    0.476824 0.337896 0.176762 0.141927
H45   H     H_    0.898477 0.541263 0.516293 0.130583
H46   H     H_    0.513755 0.335594 0.823917 0.160451
H47   H     H_    0.976809 0.837900 0.176761 0.141879
H48   H     H_    0.013755 0.835592 0.823918 0.160431
H49   H     H_    0.039611 0.519972 0.541467 0.140441
H50   H     H_    0.398482 0.041262 0.516286 0.130540
H51   H     H_    0.539614 0.019965 0.541446 0.140432
H52   H     H_    0.130321 0.661174 0.833606 0.161657
N1    N     N_R   0.395440 0.396300 0.944370 -0.048588
N2    N     N_R   0.474910 0.470990 0.794360 -0.059847
N3    N     N_R   0.025090 0.970990 0.205640 -0.054369
N4    N     N_R   0.974910 0.970990 0.794360 -0.059838
N5    N     N_R   0.320240 0.527820 0.794510 -0.051796
N6    N     N_R   0.679760 0.527820 0.205490 -0.047033
N7    N     N_R   0.820240 0.027820 0.794510 -0.051804
N8    N     N_R   0.179760 0.027820 0.205490 -0.047032
N9    N     N_R   0.524580 0.527810 0.205160 -0.045755
N10   N     N_R   0.475420 0.527810 0.794840 -0.049187
N11   N     N_R   0.024580 0.027810 0.205160 -0.045781
N12   N     N_R   0.604560 0.396300 0.055630 -0.049061
N13   N     N_R   0.975420 0.027810 0.794840 -0.049189
N14   N     N_R   0.320750 0.470990 0.794990 -0.063353
N15   N     N_R   0.679250 0.470990 0.205010 -0.061230
N16   N     N_R   0.820750 0.970990 0.794990 -0.063353
N17   N     N_R   0.179250 0.970990 0.205010 -0.061219
N18   N     N_R   0.393580 0.602500 0.942610 -0.044825
N19   N     N_R   0.606420 0.602500 0.057390 -0.044420
N20   N     N_R   0.893580 0.102500 0.942610 -0.044831
N21   N     N_R   0.106420 0.102500 0.057390 -0.044430
N22   N     N_R   0.451750 0.396300 0.057540 -0.053747
N23   N     N_R   0.895440 0.896300 0.944370 -0.048586
N24   N     N_R   0.548250 0.396300 0.942460 -0.053380
N25   N     N_R   0.951750 0.896300 0.057540 -0.053748
N26   N     N_R   0.048250 0.896300 0.942460 -0.053358
N27   N     N_R   0.104560 0.896300 0.055630 -0.049051
N28   N     N_R   0.449890 0.602500 0.055780 -0.045486
N29   N     N_R   0.550110 0.602500 0.944220 -0.043647
N30   N     N_R   0.949890 0.102500 0.055780 -0.045488
N31   N     N_R   0.050110 0.102500 0.944220 -0.043658
N32   N     N_R   0.525090 0.470990 0.205640 -0.054362
Ni1   Ni    Ni4+2 0.435420 0.434250 0.870220 0.236657
Ni2   Ni    Ni4+2 0.564580 0.434250 0.129780 0.245621
Ni3   Ni    Ni4+2 0.935420 0.934250 0.870220 0.236649
Ni4   Ni    Ni4+2 0.064580 0.934250 0.129780 0.245610
Ni5   Ni    Ni4+2 0.563400 0.564580 0.128670 0.228697
Ni6   Ni    Ni4+2 0.436600 0.564580 0.871330 0.235669
Ni7   Ni    Ni4+2 0.063400 0.064580 0.128670 0.228733
Ni8   Ni    Ni4+2 0.936600 0.064580 0.871330 0.235694

loop_
_geom_bond_atom_site_label_1
_geom_bond_atom_site_label_2
_ccdc_geom_bond_type
N31   Ni8   S    
C79   N17   A    
C6    C76   A    
N29   Ni6   S    
C73   N11   A    
N27   Ni4   S    
C43   H21   S    
C87   N26   A    
C65   H26   S    
N8    Ni7   S    
C42   H20   S    
C56   C81   A    
C3    C64   A    
C2    C63   A    
C43   C78   A    
N14   Ni1   S    
C32   H6    S    
C30   C35   A    
C81   N19   A    
C12   C90   A    
C35   C37   A    
C77   N16   A    
C86   C91   A    
C85   N24   A    
C71   H31   S    
C4    C65   A    
N22   Ni2   S    
N25   Ni4   S    
C60   Cl10  S    
C72   H32   S    
C6    C14   S    
C10   Cl2   S    
C49   C54   A    
C62   C89   A    
C29   C33   A    
C33   C36   A    
N12   Ni2   S    
N6    Ni5   S    
C27   C90   S    
N32   Ni2   S    
C11   C16   D    
C32   C39   A    
C48   C78   S    
C68   H28   S    
C19   C26   A    
N26   N27   A    
C74   N13   A    
C77   H38   S    
C3    C55   S    
C78   C83   A    
C79   H39   S    
N6    N15   A    
C7    C17   S    
C4    C57   S    
C28   C88   S    
C86   N25   A    
N4    N13   A    
C33   H7    S    
C9    C10   S    
C4    C74   A    
C63   H24   S    
C52   C55   A    
C26   Cl7   S    
C7    C77   A    
C20   H3    S    
C40   N28   A    
C76   H37   S    
C42   N30   A    
C1    C88   A    
C6    C68   A    
C8    C16   S    
C87   C92   A    
C18   C25   A    
N11   Ni7   S    
C65   N4    A    
C2    C72   A    
C36   H9    S    
C47   C67   S    
C82   H42   S    
C75   H36   S    
N13   Ni8   S    
N1    Ni1   S    
C54   C59   A    
C84   H44   S    
N16   Ni3   S    
C25   C29   A    
C40   C45   A    
C19   C46   A    
C50   C53   A    
C15   H49   S    
C83   N21   A    
C13   Cl4   S    
C27   C31   A    
C24   Cl5   S    
C59   Cl9   S    
C24   C28   A    
N30   Ni7   S    
C28   C32   A    
C58   Cl8   S    
C23   H23   S    
C2    C54   S    
N2    Ni1   S    
N18   N28   A    
C62   H22   S    
C9    C14   D    
C5    C66   A    
C37   H10   S    
C80   H40   S    
C58   C59   A    
C39   H13   S    
C34   H34   S    
C51   C52   A    
N15   Ni2   S    
C70   N8    A    
C60   C61   A    
C84   C88   A    
C5    C75   A    
C76   N15   A    
C23   N23   A    
C41   C56   A    
C7    C69   A    
C18   C44   A    
N19   N29   A    
C52   H17   S    
C25   Cl6   S    
C49   H14   S    
C71   C89   A    
C43   N31   A    
C53   C58   A    
C75   N14   A    
C51   H16   S    
C31   H5    S    
C41   N29   A    
C34   N27   A    
N20   Ni8   S    
C84   N22   A    
N7    N16   A    
C38   C47   A    
C83   H43   S    
N5    N14   A    
C82   N20   A    
N18   Ni6   S    
C81   H41   S    
C87   H48   S    
C16   H50   S    
C22   C27   A    
C22   Cl1   S    
C23   C91   A    
C36   C44   A    
N10   Ni6   S    
N26   Ni3   S    
C17   H51   S    
C18   H52   S    
C44   C45   S    
N2    N10   A    
C62   N32   A    
C66   H27   S    
C11   Cl3   S    
C69   H29   S    
N21   Ni7   S    
C61   Cl11  S    
C10   C15   D    
C72   N10   A    
N3    Ni4   S    
C69   N7    A    
N4    Ni3   S    
C20   C22   A    
C30   C91   S    
N9    Ni5   S    
C12   N12   A    
C85   C90   A    
C57   C61   A    
N20   N30   A    
C68   N6    A    
C40   H18   S    
C74   H35   S    
N17   Ni4   S    
C8    C70   A    
N21   N31   A    
C31   C38   A    
C13   C17   D    
N24   Ni1   S    
C21   C48   A    
C1    N1    A    
C80   N18   A    
C8    C79   A    
N12   N24   A    
C86   H47   S    
C53   C89   S    
C38   H11   S    
C11   C13   S    
C41   H19   S    
C42   C67   A    
C73   H33   S    
N7    Ni8   S    
C9    Cl12  S    
C64   N3    A    
N3    N11   A    
N5    Ni6   S    
C45   C80   A    
N1    N22   A    
C21   H4    S    
C3    C73   A    
N8    N17   A    
C34   C92   A    
C5    C15   S    
C20   C47   A    
C50   H15   S    
C14   H45   S    
C19   H2    S    
C51   C57   A    
N23   Ni3   S    
C64   H25   S    
C66   N5    A    
C67   C82   A    
N9    N32   A    
C49   C50   A    
C71   N9    A    
C21   C24   A    
C46   C56   S    
C70   H30   S    
C85   H46   S    
C63   N2    A    
N23   N25   A    
C37   C46   A    
C55   C60   A    
N19   Ni5   S    
C29   C92   S    
C35   H8    S    
N28   Ni5   S    
C1    H1    S    
C39   C48   A    
C12   H12   S    
C26   C30   A    
