data_mof_unit_39341.cif
_audit_creation_date              2012-12-10T17:22:06-0500
_audit_creation_method            fapswitch 2.2
_symmetry_space_group_name_H-M    P1
_symmetry_Int_Tables_number       1
_space_group_crystal_system       triclinic
_cell_length_a                    10.195279
_cell_length_b                    10.51695
_cell_length_c                    15.748507
_cell_angle_alpha                 90.009153
_cell_angle_beta                  82.075838
_cell_angle_gamma                 94.627884
_cell_volume                      1666.92659429

loop_
_atom_site_label
_atom_site_type_symbol
_atom_type_description
_atom_site_fract_x
_atom_site_fract_y
_atom_site_fract_z
_atom_type_partial_charge
C1    C     C_R   0.554961 0.734275 0.498008 0.914344
C2    C     C_3   0.411937 0.615453 0.055656 0.166980
C3    C     C_3   0.486175 0.500267 0.084155 -0.023515
C4    C     C_3   0.422532 0.368487 0.056395 -0.353201
C5    C     C_3   0.432918 0.362562 0.955232 0.244234
C6    C     C_1   0.490965 0.501429 0.175510 0.025399
C7    C     C_1   0.498392 0.501664 0.825237 0.091968
C8    C     C_1   0.502546 0.503042 0.749757 -0.037394
C9    C     C_2   0.582825 0.869124 0.512700 -0.298397
C10   C     C_2   0.493629 0.926722 0.566540 -0.061069
C11   C     C_2   0.417779 0.128367 0.526859 0.053222
C12   C     C_R   0.501518 0.502826 0.661249 0.926435
C13   C     C_2   0.499184 0.064241 0.570200 0.320475
C14   C     C_2   0.927665 0.515891 0.504845 -0.025489
C15   C     C_2   0.073944 0.500636 0.486372 -0.054189
C16   C     C_R   0.445442 0.265443 0.510735 0.894315
C17   C     C_R   0.499030 0.500315 0.338617 0.908661
C18   C     C_3   0.401562 0.605221 0.958064 0.111952
C19   C     C_3   0.634057 0.528681 0.940295 -0.477668
C20   C     C_3   0.633031 0.520319 0.038271 -0.252457
C21   C     C_1   0.495864 0.500944 0.250232 -0.086537
C22   C     C_3   0.490665 0.499503 0.917372 -0.051215
H1    H     H_    0.476622 0.702763 0.066047 0.160596
H2    H     H_    0.298431 0.574074 0.950190 0.195704
H3    H     H_    0.480502 0.293227 0.079425 0.144549
H4    H     H_    0.408095 0.873395 0.602565 0.192836
H5    H     H_    0.671050 0.921364 0.479032 0.180387
H6    H     H_    0.120047 0.598992 0.588361 0.186580
H7    H     H_    0.876606 0.380957 0.422751 0.183739
H8    H     H_    0.703494 0.463453 0.905614 0.201690
H9    H     H_    0.675435 0.625472 0.918036 0.254089
H10   H     H_    0.679641 0.612210 0.059552 0.176942
N1    N     N_2   0.842720 0.448890 0.465540 -0.185496
N2    N     N_2   0.157250 0.551040 0.534500 -0.194494
O1    O     O_R   0.431050 0.692470 0.506940 -0.578822
O2    O     O_R   0.651130 0.659650 0.484820 -0.611765
O3    O     O_R   0.389910 0.516410 0.633920 -0.619288
O4    O     O_R   0.609990 0.483590 0.611800 -0.579299
O5    O     O_R   0.348870 0.340350 0.515180 -0.592849
O6    O     O_R   0.568950 0.307530 0.493060 -0.571344
O7    O     O_R   0.390010 0.516410 0.388200 -0.585250
O8    O     O_R   0.610090 0.483590 0.366080 -0.611345
Zn1   Zn    Zn3+2 0.353060 0.521920 0.514770 1.034731
Zn2   Zn    Zn3+2 0.646940 0.478080 0.485230 1.039966
S1    S     S_3+6 0.252043 0.642968 0.117351 0.061944
O9    O     O_2   0.246414 0.607340 0.210179 -0.262789
O10   O     O_2   0.232467 0.782829 0.112663 -0.211533
O11   O     O_3   0.125257 0.560507 0.078575 -0.520175
H11   H     H_    0.089952 0.621201 0.041089 0.385400
S2    S     S_3+6 0.610905 0.135101 0.636854 0.054922
O12   O     O_2   0.732548 0.197902 0.583607 -0.294141
O13   O     O_2   0.542771 0.231636 0.693359 -0.307919
O14   O     O_3   0.657628 0.021407 0.698859 -0.480301
H12   H     H_    0.718020 0.067248 0.734854 0.399890
S3    S     S_3+6 0.288615 0.046409 0.477847 0.048221
O15   O     O_2   0.349607 0.974850 0.401783 -0.234183
O16   O     O_2   0.207916 0.952547 0.540161 -0.292621
O17   O     O_3   0.187455 0.148372 0.444493 -0.511396
H13   H     H_    0.128325 0.170196 0.496871 0.370218
C23   C     C_1   0.122760 0.431235 0.411044 0.344524
N3    N     N_1   0.159528 0.375905 0.349962 -0.109514
C24   C     C_1   0.880146 0.609157 0.566516 0.310334
N4    N     N_1   0.843002 0.684099 0.616076 -0.148312
S4    S     S_3+6 0.428501 0.760374 0.903870 0.064190
O18   O     O_2   0.415090 0.866718 0.967427 -0.179355
O19   O     O_2   0.562911 0.780135 0.850767 -0.294220
O20   O     O_3   0.311489 0.770411 0.839111 -0.483820
H14   H     H_    0.338200 0.715493 0.789697 0.349260
C25   C     C_1   0.717769 0.420658 0.060283 0.252542
N5    N     N_1   0.784087 0.342880 0.077475 -0.116203
S5    S     S_3+6 0.278198 0.301179 0.917286 0.036311
O21   O     O_2   0.165144 0.381757 0.944841 -0.295847
O22   O     O_2   0.297257 0.292232 0.821176 -0.262847
O23   O     O_3   0.236914 0.153216 0.958149 -0.490927
H15   H     H_    0.156211 0.122448 0.933268 0.409111
C26   C     C_1   0.527182 0.266409 0.924591 0.314390
N6    N     N_1   0.600463 0.191354 0.900758 -0.099509
C27   C     C_1   0.287843 0.336880 0.103292 0.491370
N7    N     N_1   0.183091 0.310613 0.140499 -0.055723

loop_
_geom_bond_atom_site_label_1
_geom_bond_atom_site_label_2
_ccdc_geom_bond_type
S3    O15   D    
C2    C18   S    
C15   C23   S    
C19   C20   S    
C3    C6    S    
C19   H9    S    
C14   N1    D    
C4    H3    S    
C7    C8    T    
O14   H12   S    
O4    Zn2   S    
C1    O1    A    
C18   H2    S    
C14   C24   S    
H7    N1    S    
C12   O3    A    
C17   O8    A    
C5    C22   S    
S2    O13   D    
O1    Zn1   S    
C9    C10   D    
C15   N2    D    
C10   H4    S    
H6    N2    S    
O7    Zn1   S    
O8    Zn2   S    
S1    O10   D    
C2    S1    S    
S2    O14   S    
O23   H15   S    
O20   H14   S    
S4    O20   S    
C19   C22   S    
C1    C9    S    
C26   N6    T    
S5    O22   D    
C27   N7    T    
O5    Zn1   S    
O17   H13   S    
S1    O9    D    
C6    C21   T    
C17   C21   S    
C23   N3    T    
S4    O19   D    
O3    Zn1   S    
C4    C27   S    
C24   N4    T    
C11   C16   S    
C8    C12   S    
S2    O12   D    
C3    C20   S    
C16   O6    A    
O11   H11   S    
S3    O16   D    
C20   C25   S    
O2    Zn2   S    
C3    C4    S    
C11   S3    S    
C9    H5    S    
C20   H10   S    
S1    O11   S    
C18   C22   S    
N1    Zn2   S    
N2    Zn1   S    
C4    C5    S    
C10   C13   S    
S5    O23   S    
C7    C22   S    
S4    O18   D    
C5    C26   S    
C2    C3    S    
S5    O21   D    
C5    S5    S    
C11   C13   D    
C18   S4    S    
C12   O4    A    
C25   N5    T    
C17   O7    A    
C16   O5    A    
C13   S2    S    
O6    Zn2   S    
S3    O17   S    
C2    H1    S    
C14   C15   S    
C19   H8    S    
C1    O2    A    
