data_mof_unit_47259.cif
_audit_creation_date              2012-12-10T18:21:23-0500
_audit_creation_method            fapswitch 2.2
_symmetry_space_group_name_H-M    P1
_symmetry_Int_Tables_number       1
_space_group_crystal_system       triclinic
_cell_length_a                    14.889482
_cell_length_b                    14.018395
_cell_length_c                    10.612317
_cell_angle_alpha                 89.787219
_cell_angle_beta                  90.037788
_cell_angle_gamma                 90.007432
_cell_volume                      2215.05749568

loop_
_atom_site_label
_atom_site_type_symbol
_atom_type_description
_atom_site_fract_x
_atom_site_fract_y
_atom_site_fract_z
_atom_type_partial_charge
C1    C     C_R   0.326948 0.499937 0.500130 0.857731
C2    C     C_3   0.587396 0.522848 0.929336 -0.431293
C3    C     C_R   0.813862 0.464065 0.398302 -0.267182
C4    C     C_R   0.768262 0.499768 0.501801 -0.045533
C5    C     C_R   0.812616 0.533579 0.607953 -0.249071
C6    C     C_R   0.906106 0.531446 0.612849 0.041207
C7    C     C_R   0.953240 0.497180 0.506375 0.027106
C8    C     C_R   0.906666 0.463601 0.398833 0.156703
C9    C     C_R   0.953341 0.561376 0.721468 0.019487
C10   C     C_R   0.047608 0.558627 0.722489 0.206942
C11   C     C_R   0.094113 0.529207 0.613643 0.038100
C12   C     C_R   0.495448 0.499937 0.257896 0.798157
C13   C     C_R   0.046733 0.496620 0.506543 0.003303
C14   C     C_R   0.093163 0.463386 0.398877 0.159440
C15   C     C_R   0.046423 0.430371 0.293376 -0.220783
C16   C     C_R   0.953320 0.430298 0.293462 -0.222208
C17   C     C_R   0.187511 0.531954 0.608744 -0.237416
C18   C     C_R   0.231756 0.499409 0.501969 -0.052753
C19   C     C_R   0.185938 0.463959 0.398345 -0.261122
C20   C     C_R   0.543094 0.798466 0.405803 -0.062012
C21   C     C_R   0.542903 0.202088 0.405627 -0.065074
C22   C     C_R   0.456709 0.797919 0.594019 -0.059007
C23   C     C_R   0.456870 0.201564 0.594174 -0.059060
C24   C     C_R   0.455697 0.898557 0.596331 0.014822
C25   C     C_R   0.455766 0.100919 0.596403 0.015144
C26   C     C_R   0.673061 0.499993 0.500081 0.892568
C27   C     C_R   0.499741 0.949414 0.499790 0.085274
C28   C     C_R   0.499723 0.050616 0.499776 0.086398
C29   C     C_R   0.543827 0.899116 0.403279 0.014585
C30   C     C_R   0.543703 0.101467 0.403167 0.013775
C31   C     C_R   0.411924 0.949324 0.692399 -0.206621
C32   C     C_R   0.411993 0.049606 0.692469 -0.206983
C33   C     C_R   0.587305 0.050710 0.306964 -0.209090
C34   C     C_R   0.587406 0.950438 0.307053 -0.206307
C35   C     C_R   0.496452 0.499778 0.742300 0.852704
C36   C     C_3   0.427125 0.580871 0.070391 0.084054
C37   C     C_3   0.459274 0.398641 0.071389 0.087242
C38   C     C_3   0.423787 0.574120 0.925417 -0.403644
C39   C     C_3   0.463030 0.399583 0.927115 -0.395549
C40   C     C_3   0.586631 0.518685 0.073317 -0.500240
C41   C     C_3   0.489810 0.499245 0.121494 0.035349
C42   C     C_3   0.492835 0.499219 0.878557 0.098834
H1    H     H_    0.458718 0.650450 0.095625 0.146805
H2    H     H_    0.508616 0.344330 0.105346 0.141585
H3    H     H_    0.226613 0.558235 0.687594 0.158446
H4    H     H_    0.222570 0.438385 0.316997 0.127558
H5    H     H_    0.081895 0.404930 0.210885 0.149893
H6    H     H_    0.917780 0.404703 0.211063 0.143029
H7    H     H_    0.576815 0.758543 0.332631 0.131091
H8    H     H_    0.576483 0.242422 0.332320 0.129009
H9    H     H_    0.422888 0.757581 0.667103 0.128108
H10   H     H_    0.423255 0.241503 0.667439 0.128680
H11   H     H_    0.377710 0.911495 0.767528 0.139270
H12   H     H_    0.377851 0.087007 0.767667 0.138345
H13   H     H_    0.621400 0.088539 0.231734 0.138399
H14   H     H_    0.621586 0.913052 0.231891 0.139205
H15   H     H_    0.355517 0.553200 0.892541 0.182870
H16   H     H_    0.396336 0.381776 0.885737 0.182548
H17   H     H_    0.438329 0.645941 0.885238 0.155833
H18   H     H_    0.511154 0.343620 0.895804 0.160212
H19   H     H_    0.612752 0.587346 0.111157 0.183813
H20   H     H_    0.633035 0.461382 0.106118 0.172425
H21   H     H_    0.608175 0.595411 0.897739 0.183139
H22   H     H_    0.637632 0.471159 0.892406 0.169131
H23   H     H_    0.776835 0.438160 0.317147 0.125044
H24   H     H_    0.773127 0.559581 0.686348 0.128840
N1    N     N_R   0.500070 0.750030 0.500050 -0.100596
N2    N     N_R   0.500070 0.249970 0.500050 -0.099249
O1    O     O_R   0.367860 0.580280 0.500020 -0.615637
O2    O     O_R   0.367860 0.419720 0.500020 -0.616307
O3    O     O_R   0.500000 0.580270 0.314790 -0.628725
O4    O     O_R   0.500000 0.419730 0.314790 -0.636208
O5    O     O_R   0.632160 0.580270 0.499960 -0.612198
O6    O     O_R   0.632160 0.419730 0.499960 -0.610433
O7    O     O_R   0.500030 0.580270 0.685200 -0.632901
O8    O     O_R   0.500030 0.419730 0.685200 -0.632323
Zn1   Zn    Zn3+2 0.500020 0.607200 0.499990 0.937171
Zn2   Zn    Zn3+2 0.500020 0.392800 0.499990 0.935874
N3    N     N_2   0.095743 0.583445 0.833918 -0.312638
H25   H     H_    0.068173 0.639125 0.883988 0.248721
C43   C     C_3   0.117607 0.502607 0.913467 -0.794424
H26   H     H_    0.055201 0.468826 0.949853 0.244855
H27   H     H_    0.158498 0.526596 0.994717 0.258380
H28   H     H_    0.157251 0.449065 0.860243 0.248173
N4    N     N_2   0.336714 0.578385 0.123894 -0.293635
H29   H     H_    0.334133 0.559133 0.217548 0.220954
C44   C     C_3   0.282855 0.662901 0.101727 -0.814665
H30   H     H_    0.214957 0.652470 0.142807 0.245945
H31   H     H_    0.274968 0.676784 0.999276 0.249896
H32   H     H_    0.314365 0.725822 0.147336 0.240111
N5    N     N_2   0.369675 0.371198 0.114623 -0.279597
H33   H     H_    0.352607 0.395701 0.202631 0.232643
C45   C     C_3   0.347887 0.270888 0.102768 -0.813211
H34   H     H_    0.276238 0.259563 0.127675 0.243236
H35   H     H_    0.390264 0.227884 0.167906 0.241145
H36   H     H_    0.358216 0.245875 0.004726 0.238032
N6    N     N_3   0.907147 0.592337 0.832792 -0.472955
H37   H     H_    0.868010 0.651906 0.810224 0.184663
H38   H     H_    0.865387 0.537231 0.864271 0.184648

loop_
_geom_bond_atom_site_label_1
_geom_bond_atom_site_label_2
_ccdc_geom_bond_type
C33   H13   S    
C44   H30   S    
C34   H14   S    
C45   H34   S    
C27   C29   A    
C20   N1    A    
O1    Zn1   S    
N1    Zn1   S    
C24   C27   A    
C15   H5    S    
C16   H6    S    
C6    C9    A    
N6    H37   S    
C19   H4    S    
C7    C8    A    
N4    H29   S    
C25   C28   A    
C35   O7    A    
C1    C18   S    
C12   C41   S    
C17   H3    S    
C38   C42   S    
C5    C6    A    
O2    Zn2   S    
C15   C16   A    
C26   O5    A    
C40   H20   S    
C18   C19   A    
C35   C42   S    
O4    Zn2   S    
C43   H27   S    
C9    C10   A    
C25   C32   A    
C12   O4    A    
C8    C16   A    
C13   C14   A    
C36   C41   S    
C3    H23   S    
C32   H12   S    
C21   H8    S    
N6    H38   S    
C2    H22   S    
C43   H26   S    
C39   C42   S    
C20   C29   A    
N4    C44   S    
N2    Zn2   S    
C35   O8    A    
C37   N5    S    
C3    C8    A    
N5    H33   S    
N3    C43   S    
C5    H24   S    
C39   H16   S    
C29   C34   A    
C1    O1    A    
C40   H19   S    
C38   H17   S    
C23   N2    A    
C20   H7    S    
N5    C45   S    
C38   H15   S    
C31   C32   A    
C17   C18   A    
C31   H11   S    
O7    Zn1   S    
C40   C41   S    
C12   O3    A    
C45   H36   S    
C44   H31   S    
C21   N2    A    
C22   C24   A    
C3    C4    A    
O3    Zn1   S    
C43   H28   S    
C2    H21   S    
C11   C17   A    
C9    N6    S    
C30   C33   A    
C14   C19   A    
O8    Zn2   S    
C4    C5    A    
C4    C26   S    
C10   N3    S    
C6    C7    A    
C36   N4    S    
C21   C30   A    
C1    O2    A    
C37   H2    S    
C28   C30   A    
C24   C31   A    
C37   C39   S    
C11   C13   A    
C23   H10   S    
C2    C42   S    
C39   H18   S    
C36   C38   S    
C26   O6    A    
C33   C34   A    
C23   C25   A    
C37   C41   S    
C22   N1    A    
C10   C11   A    
N3    H25   S    
C2    C40   S    
C7    C13   A    
C45   H35   S    
O6    Zn2   S    
C44   H32   S    
C27   C28   A    
O5    Zn1   S    
C14   C15   A    
C36   H1    S    
C22   H9    S    
