data_mof_unit_8108.cif
_audit_creation_date              2013-03-05T16:31:07-0500
_audit_creation_method            fapswitch 2.2
_symmetry_space_group_name_H-M    P1
_symmetry_Int_Tables_number       1
_space_group_crystal_system       triclinic
_cell_length_a                    10.852787
_cell_length_b                    10.937813
_cell_length_c                    9.57303
_cell_angle_alpha                 92.506293
_cell_angle_beta                  90.262079
_cell_angle_gamma                 92.516834
_cell_volume                      1134.16757335

loop_
_atom_site_label
_atom_site_type_symbol
_atom_site_description
_atom_site_fract_x
_atom_site_fract_y
_atom_site_fract_z
_atom_type_partial_charge
O1    O     O_R   0.500000 0.319640 0.618810 -0.625733
O2    O     O_R   0.500010 0.319680 0.381230 -0.599697
C1    C     C_R   0.497579 0.262670 0.497066 0.790689
O3    O     O_R   0.319640 0.499980 0.618820 -0.606024
O4    O     O_R   0.319650 0.500020 0.381230 -0.563680
C2    C     C_R   0.262126 0.505308 0.500726 0.835293
Cu1   Cu    Cu3+1 0.499990 0.499980 0.640670 0.997660
Cu2   Cu    Cu3+1 0.500010 0.500020 0.359330 1.040292
O5    O     O_R   0.499990 0.680320 0.618770 -0.568373
O6    O     O_R   0.500000 0.680360 0.381190 -0.551607
O7    O     O_R   0.680350 0.499980 0.618770 -0.561710
O8    O     O_R   0.680360 0.500020 0.381180 -0.536598
C3    C     C_R   0.494963 0.737980 0.502796 0.907161
C4    C     C_R   0.736328 0.484844 0.500477 0.866678
H1    H     H_    0.112850 0.444801 0.284998 0.195058
C5    C     C_R   0.115644 0.571246 0.755677 -0.099817
H2    H     H_    0.201367 0.625128 0.754041 0.218761
C6    C     C_R   0.057644 0.558008 0.885006 0.403016
C7    C     C_R   0.944116 0.493097 0.888881 -0.149277
H3    H     H_    0.900088 0.475458 0.987598 0.219774
C8    C     C_R   0.883836 0.454456 0.764960 -0.140654
H4    H     H_    0.797670 0.402166 0.773992 0.175440
C9    C     C_R   0.936461 0.479066 0.633597 0.074151
C10   C     C_R   0.061260 0.519343 0.630544 0.021654
C11   C     C_R   0.126904 0.503930 0.503388 -0.155496
C12   C     C_R   0.063327 0.464223 0.380898 -0.083961
C13   C     C_R   0.936210 0.444566 0.379902 0.455891
C14   C     C_R   0.869968 0.463550 0.505177 -0.230751
C15   C     C_R   0.532274 0.073582 0.611884 0.022001
C16   C     C_R   0.498559 0.129925 0.492338 -0.119154
C17   C     C_R   0.451775 0.057740 0.378760 -0.184472
H5    H     H_    0.416219 0.101932 0.288838 0.199301
C18   C     C_R   0.435136 0.929972 0.388839 0.330931
C19   C     C_R   0.484178 0.872191 0.506758 -0.199659
C20   C     C_R   0.534833 0.946825 0.619195 0.024004
C21   C     C_3   0.489440 0.964157 0.769556 0.514666
C22   C     C_3   0.479464 0.098713 0.751716 -0.443738
H6    H     H_    0.383048 0.128731 0.746797 0.214449
H7    H     H_    0.542408 0.159253 0.819029 0.215123
C23   C     C_R   0.593285 0.559044 0.077204 0.130626
N1    N     N_R   0.500790 0.500930 0.147930 -0.239257
C24   C     C_R   0.413239 0.434759 0.072419 0.041454
H8    H     H_    0.341807 0.383789 0.126554 0.154533
C25   C     C_R   0.411658 0.434432 0.924854 0.496609
N2    N     N_R   0.500790 0.500890 0.852020 -0.248058
C26   C     C_R   0.596605 0.554890 0.928953 -0.010550
C27   C     C_3   0.633035 0.687269 0.926389 0.111483
C28   C     C_3   0.620325 0.694154 0.085983 0.085716
H9    H     H_    0.560937 0.733213 0.870769 0.168086
H10   H     H_    0.538711 0.744552 0.121853 0.178524
N3    N     N_R   0.583506 0.948293 0.877150 0.085472
O9    O     O_R   0.699605 0.959477 0.844204 -0.280640
O10   O     O_R   0.554233 0.965553 0.007957 -0.311482
O11   O     O_3   0.314328 0.369546 0.860642 -0.740536
H11   H     H_    0.339334 0.342657 0.766690 0.366004
N4    N     N_R   0.755900 0.709543 0.865407 0.166499
O12   O     O_R   0.848962 0.755210 0.939454 -0.213908
O13   O     O_R   0.763877 0.713514 0.730266 -0.310571
N5    N     N_R   0.730971 0.731233 0.167573 0.197864
O14   O     O_R   0.747961 0.845125 0.211095 -0.251088
O15   O     O_R   0.808081 0.651344 0.206131 -0.258502
N6    N     N_R   0.114825 0.608167 0.011876 0.152239
O16   O     O_R   0.232143 0.637466 0.016454 -0.297677
O17   O     O_R   0.049666 0.626754 0.123724 -0.243690
O18   O     O_3   0.881272 0.401616 0.256081 -0.688500
H12   H     H_    0.808065 0.348962 0.278598 0.332450
N7    N     N_R   0.355936 0.863233 0.288153 0.143923
O19   O     O_R   0.281185 0.775499 0.328388 -0.286747
O20   O     O_R   0.336613 0.907889 0.166730 -0.239408
N8    N     N_R   0.370330 0.899620 0.794625 0.118088
O21   O     O_R   0.358959 0.821788 0.892756 -0.273301
O22   O     O_R   0.275950 0.914738 0.713679 -0.337250

loop_
_geom_bond_atom_site_label_1
_geom_bond_atom_site_label_2
_geom_bond_distance
_ccdc_geom_bond_type
O1    C1    1.296932 A    
O4    Cu2   1.969557 S    
C23   C26   1.418632 A    
C9    C10   1.406574 A    
C17   C18   1.408800 A    
O2    Cu2   1.992732 S    
N6    O16   1.299284 A    
C13   O18   1.378932 S    
C19   C20   1.416158 A    
N4    O13   1.299492 A    
C1    C16   1.451174 S    
N1    C24   1.355278 A    
C15   C20   1.392746 A    
C17   H5    1.083195 S    
C16   C17   1.395720 A    
Cu2   O8    1.967495 S    
C7    H3    1.081932 S    
C28   H10   1.111498 S    
C18   C19   1.429490 A    
N5    O14   1.301210 A    
C27   H9    1.096546 S    
C5    C6    1.401710 A    
O1    Cu1   1.974479 S    
C8    H4    1.080365 S    
C10   C11   1.420647 A    
Cu1   O7    1.969557 S    
N7    O20   1.300046 A    
C12   C13   1.386786 A    
C15   C16   1.378773 A    
C21   N3    1.467918 S    
C24   C25   1.412510 A    
O3    Cu1   1.967493 S    
Cu1   N2    2.022827 S    
O3    C2    1.293670 A    
C23   N1    1.363062 A    
C7    C8    1.392359 A    
C22   H6    1.111761 S    
O8    C4    1.311427 A    
O6    C3    1.301860 A    
O2    C1    1.295567 A    
Cu1   O5    1.992731 S    
C8    C9    1.415180 A    
O4    C2    1.305983 A    
C22   H7    1.113229 S    
O7    C4    1.295218 A    
C5    C10   1.417834 A    
N5    O15   1.299895 A    
C2    C11   1.467301 S    
C9    C14   1.422602 A    
C24   H8    1.082286 S    
N3    O9    1.302112 A    
C27   C28   1.533500 S    
C25   O11   1.373819 S    
C3    C19   1.476600 S    
N8    O21   1.297777 A    
C6    C7    1.396213 A    
Cu2   N1    2.024252 S    
C18   N7    1.441011 S    
C28   N5    1.462004 S    
Cu2   O6    1.974479 S    
O18   H12   0.990762 S    
C26   C27   1.485389 S    
C15   C22   1.478046 S    
C13   C14   1.413294 A    
N4    O12   1.300083 A    
Cu1   Cu2   2.693296 S    
O5    C3    1.302702 A    
O11   H11   0.977337 S    
C21   C22   1.497580 S    
H1    C12   1.083656 S    
N6    O17   1.299379 A    
C4    C14   1.479801 S    
C11   C12   1.400511 A    
N2    C26   1.368785 A    
C23   C28   1.492617 S    
N8    O22   1.302231 A    
C6    N6    1.437400 S    
C25   N2    1.392486 A    
N7    O19   1.301598 A    
C5    H2    1.079766 S    
C21   N8    1.471187 S    
C27   N4    1.472824 S    
N3    O10   1.301094 A    
C20   C21   1.530143 S    
