data_mof_unit_16223.cif
_audit_creation_date              2012-12-10T16:38:06-0500
_audit_creation_method            fapswitch 2.2
_symmetry_space_group_name_H-M    P1
_symmetry_Int_Tables_number       1
_space_group_crystal_system       triclinic
_cell_length_a                    28.162544
_cell_length_b                    18.450345
_cell_length_c                    17.007372
_cell_angle_alpha                 90.159082
_cell_angle_beta                  60.938874
_cell_angle_gamma                 90.223334
_cell_volume                      7724.53195154

loop_
_atom_site_label
_atom_site_type_symbol
_atom_type_description
_atom_site_fract_x
_atom_site_fract_y
_atom_site_fract_z
_atom_type_partial_charge
C1    C     C_R   0.701276 0.266820 0.676895 0.874395
C2    C     C_R   0.094662 0.497887 0.516582 0.072129
C3    C     C_R   0.197252 0.202834 0.903172 0.075755
C4    C     C_R   0.618028 0.330103 0.047936 -0.180414
C5    C     C_R   0.382112 0.670139 0.951998 -0.180411
C6    C     C_R   0.389781 0.316087 0.948292 -0.190603
C7    C     C_R   0.620515 0.673165 0.044011 -0.183035
C8    C     C_R   0.116444 0.827937 0.048961 -0.185199
C9    C     C_R   0.883683 0.172276 0.950981 -0.185791
C10   C     C_R   0.890940 0.815050 0.947099 -0.187767
C11   C     C_R   0.119198 0.173433 0.045875 -0.179088
C12   C     C_R   0.648648 0.318666 0.090844 -0.219250
C13   C     C_R   0.408678 0.998864 0.474668 0.072221
C14   C     C_R   0.351529 0.681676 0.909044 -0.218246
C15   C     C_R   0.363372 0.294139 0.901029 -0.216296
C16   C     C_R   0.650960 0.684541 0.087542 -0.224684
C17   C     C_R   0.146714 0.815666 0.092360 -0.227598
C18   C     C_R   0.853447 0.184640 0.907541 -0.226882
C19   C     C_R   0.865051 0.792321 0.899115 -0.214602
C20   C     C_R   0.149621 0.184537 0.089632 -0.217424
C21   C     C_R   0.748153 0.199663 0.789741 -0.198330
C22   C     C_R   0.251980 0.800572 0.210207 -0.199121
C23   C     C_R   0.253107 0.195525 0.211206 -0.178683
C24   C     C_R   0.596195 0.001295 0.512764 0.070220
C25   C     C_R   0.779191 0.721905 0.758109 -0.181635
C26   C     C_R   0.246711 0.697698 0.790601 -0.177623
C27   C     C_R   0.753431 0.302547 0.209339 -0.179444
C28   C     C_R   0.753229 0.695863 0.210437 -0.200087
C29   C     C_R   0.277221 0.226164 0.761456 -0.186244
C30   C     C_R   0.779500 0.187805 0.831418 -0.236481
C31   C     C_R   0.220656 0.812494 0.168501 -0.237547
C32   C     C_R   0.222078 0.183068 0.169112 -0.226409
C33   C     C_R   0.809087 0.738134 0.801445 -0.219002
C34   C     C_R   0.277778 0.685217 0.832644 -0.221490
C35   C     C_R   0.070817 0.378713 0.584865 -0.209059
C36   C     C_R   0.722401 0.315120 0.167248 -0.223147
C37   C     C_R   0.722819 0.682776 0.167460 -0.242822
C38   C     C_R   0.306978 0.240635 0.805087 -0.217652
C39   C     C_R   0.072008 0.102896 0.936680 0.908853
C40   C     C_R   0.928196 0.896834 0.063312 0.911282
C41   C     C_R   0.927444 0.102165 0.064063 0.912965
C42   C     C_R   0.072568 0.897851 0.935930 0.914211
C43   C     C_R   0.572375 0.602576 0.936306 0.908401
C44   C     C_R   0.428003 0.396990 0.063527 0.911331
C45   C     C_R   0.427221 0.601949 0.064235 0.913981
C46   C     C_R   0.929030 0.621337 0.415620 -0.214542
C47   C     C_R   0.572797 0.398076 0.935752 0.913886
C48   C     C_R   0.528898 0.124190 0.562777 0.041089
C49   C     C_R   0.478555 0.878464 0.416603 0.058737
C50   C     C_R   0.435626 0.122453 0.543377 0.052610
C51   C     C_R   0.574991 0.881828 0.429570 0.038416
C52   C     C_R   0.074976 0.615412 0.429923 0.037739
C53   C     C_R   0.924817 0.384681 0.570664 0.038175
C54   C     C_R   0.978195 0.619448 0.418428 0.056704
C55   C     C_R   0.021597 0.380663 0.582210 0.058211
C56   C     C_R   0.496759 0.187277 0.582320 0.052833
C57   C     C_R   0.878394 0.386381 0.560127 -0.235662
C58   C     C_R   0.515658 0.820485 0.382283 0.099635
C59   C     C_R   0.450981 0.186834 0.570078 0.088888
C60   C     C_R   0.564038 0.822341 0.387687 0.048906
C61   C     C_R   0.065257 0.673537 0.385230 0.047348
C62   C     C_R   0.934523 0.326585 0.615411 0.047468
C63   C     C_R   0.016777 0.675694 0.380370 0.098915
C64   C     C_R   0.982998 0.324439 0.620304 0.099936
C65   C     C_R   0.469517 0.061535 0.517333 -0.011247
C66   C     C_R   0.538454 0.940401 0.462208 0.003773
C67   C     C_R   0.516285 0.062419 0.526754 -0.000029
C68   C     C_R   0.121452 0.613635 0.440279 -0.235180
C69   C     C_R   0.490922 0.939188 0.454307 -0.016789
C70   C     C_R   0.989054 0.559961 0.459571 -0.019662
C71   C     C_R   0.010714 0.440171 0.541122 -0.019154
C72   C     C_R   0.036971 0.558295 0.466240 0.004710
C73   C     C_R   0.962798 0.441832 0.534439 0.005187
C74   C     C_R   0.952252 0.501519 0.493080 -0.005957
C75   C     C_R   0.047526 0.498598 0.507581 -0.005778
C76   C     C_R   0.456191 0.999545 0.482757 -0.006019
C77   C     C_R   0.550182 0.001254 0.500829 -0.005430
C78   C     C_R   0.870783 0.441495 0.509987 0.048269
C79   C     C_R   0.621389 0.883880 0.440259 -0.233865
C80   C     C_R   0.129078 0.558531 0.490410 0.048829
C81   C     C_R   0.108193 0.436367 0.550663 0.044361
C82   C     C_R   0.891672 0.563666 0.449766 0.041595
C83   C     C_R   0.393206 0.936116 0.445146 0.045237
C84   C     C_R   0.609760 0.063085 0.546752 0.062141
C85   C     C_R   0.629624 0.940082 0.489098 0.046734
C86   C     C_R   0.375553 0.060559 0.498540 0.034445
C87   C     C_R   0.829763 0.438539 0.484381 -0.109779
C88   C     C_R   0.170163 0.561462 0.515856 -0.108898
C89   C     C_R   0.158988 0.435722 0.549963 -0.126341
C90   C     C_R   0.387404 0.118827 0.540024 -0.207189
C91   C     C_R   0.840940 0.564271 0.450282 -0.116648
C92   C     C_R   0.341726 0.935465 0.448058 -0.122566
C93   C     C_R   0.659551 0.063786 0.548638 -0.124716
C94   C     C_R   0.670426 0.937935 0.515350 -0.113571
C95   C     C_R   0.332060 0.061991 0.478636 -0.102384
C96   C     C_R   0.814669 0.500093 0.456718 -0.296295
C97   C     C_R   0.185276 0.499904 0.543481 -0.293784
C98   C     C_R   0.315562 0.999622 0.454458 -0.294477
C99   C     C_R   0.685395 0.999771 0.543316 -0.293722
C100  C     C_R   0.429402 0.877128 0.413534 -0.210240
C101  C     C_R   0.298739 0.733210 0.323103 0.873196
C102  C     C_R   0.574407 0.122520 0.575410 -0.233073
C103  C     C_R   0.719130 0.263041 0.956149 0.020453
C104  C     C_R   0.281036 0.737290 0.043738 0.020543
C105  C     C_R   0.288844 0.246433 0.037833 0.020837
C106  C     C_R   0.730097 0.714088 0.945372 0.019696
C107  C     C_R   0.217319 0.760196 0.957647 0.019865
C108  C     C_R   0.782846 0.240131 0.042242 0.019703
C109  C     C_R   0.790128 0.745293 0.035843 0.022238
C110  C     C_R   0.228230 0.216163 0.948132 0.021308
C111  C     C_R   0.767786 0.222744 0.912393 0.049641
C112  C     C_R   0.298944 0.266361 0.323151 0.919586
C113  C     C_R   0.232383 0.777595 0.087494 0.050458
C114  C     C_R   0.237563 0.211878 0.083884 0.050605
C115  C     C_R   0.784827 0.737896 0.895899 0.048589
C116  C     C_R   0.265903 0.719767 0.913954 0.049120
C117  C     C_R   0.734278 0.280592 0.085921 0.050042
C118  C     C_R   0.738823 0.710987 0.081751 0.053006
C119  C     C_R   0.282814 0.240100 0.898970 0.047966
C120  C     C_R   0.800958 0.214210 0.953766 0.053647
C121  C     C_R   0.199212 0.786131 0.046118 0.053820
C122  C     C_R   0.205059 0.203363 0.041404 0.047581
C123  C     C_R   0.706347 0.722340 0.672839 0.925574
C124  C     C_R   0.813522 0.758859 0.942451 0.048137
C125  C     C_R   0.299027 0.711133 0.955390 0.049389
C126  C     C_R   0.701153 0.289230 0.044483 0.049617
C127  C     C_R   0.706593 0.702297 0.038981 0.050193
C128  C     C_R   0.311834 0.260607 0.944857 0.049922
C129  C     C_R   0.639533 0.317132 0.954865 0.071398
C130  C     C_R   0.360578 0.683065 0.045079 0.071078
C131  C     C_R   0.365627 0.307538 0.042304 0.072824
C132  C     C_R   0.644659 0.676228 0.949564 0.078740
C133  C     C_R   0.138288 0.815414 0.955717 0.074596
C134  C     C_R   0.201125 0.766566 0.676949 0.919336
C135  C     C_R   0.861813 0.184762 0.044234 0.074297
C136  C     C_R   0.866388 0.806904 0.041320 0.070548
C137  C     C_R   0.143227 0.177647 0.951419 0.075179
C138  C     C_R   0.614020 0.341187 0.904097 -0.136884
C139  C     C_R   0.386037 0.658900 0.095882 -0.138399
C140  C     C_R   0.388107 0.337739 0.094960 -0.139338
C141  C     C_R   0.616724 0.655173 0.901566 -0.139474
C142  C     C_R   0.113368 0.840432 0.904466 -0.136959
C143  C     C_R   0.886677 0.159636 0.095521 -0.137403
C144  C     C_R   0.888434 0.837488 0.094487 -0.140076
C145  C     C_R   0.798888 0.233462 0.323051 0.920331
C146  C     C_R   0.115667 0.156445 0.902797 -0.140064
C147  C     C_R   0.633007 0.318391 0.816736 -0.314124
C148  C     C_R   0.367030 0.681659 0.183264 -0.310860
C149  C     C_R   0.367691 0.317625 0.183576 -0.304339
C150  C     C_R   0.637205 0.673994 0.812993 -0.303181
C151  C     C_R   0.132619 0.818067 0.816835 -0.307387
C152  C     C_R   0.867401 0.181958 0.183176 -0.307782
C153  C     C_R   0.867699 0.817735 0.183318 -0.306844
C154  C     C_R   0.136073 0.175910 0.814336 -0.305385
C155  C     C_R   0.678436 0.275314 0.774684 -0.115375
C156  C     C_R   0.798869 0.766588 0.323057 0.877869
C157  C     C_R   0.321623 0.724785 0.225300 -0.115656
C158  C     C_R   0.322769 0.273126 0.225279 -0.126678
C159  C     C_R   0.688948 0.701432 0.765265 -0.122628
C160  C     C_R   0.177841 0.774567 0.774958 -0.127576
C161  C     C_R   0.822209 0.225517 0.225031 -0.127978
C162  C     C_R   0.822732 0.773361 0.224981 -0.117028
C163  C     C_R   0.187660 0.203939 0.766934 -0.111377
C164  C     C_R   0.705425 0.250759 0.823509 0.073255
C165  C     C_R   0.294687 0.749443 0.176438 0.073783
C166  C     C_R   0.297267 0.245035 0.175603 0.071763
C167  C     C_R   0.205683 0.223536 0.673643 0.881229
C168  C     C_R   0.722669 0.708806 0.806773 0.065000
C169  C     C_R   0.204239 0.749113 0.824290 0.072889
C170  C     C_R   0.795869 0.251081 0.175659 0.073828
C171  C     C_R   0.797523 0.745077 0.174862 0.073929
C172  C     C_R   0.220918 0.212073 0.809268 0.066979
C173  C     C_R   0.691290 0.129435 0.535370 0.901625
C174  C     C_R   0.309056 0.870262 0.463651 0.898016
C175  C     C_R   0.303973 0.127723 0.480632 0.887802
C176  C     C_R   0.697035 0.872146 0.516666 0.926848
C177  C     C_R   0.196933 0.627745 0.516772 0.909510
C178  C     C_R   0.905162 0.502180 0.483946 0.070221
C179  C     C_R   0.803035 0.372253 0.483327 0.911093
C180  C     C_R   0.808941 0.629575 0.463950 0.882432
C181  C     C_R   0.191032 0.370407 0.536151 0.913638
C182  C     C_R   0.688122 0.277145 0.911355 0.073772
C183  C     C_R   0.312013 0.723111 0.088565 0.073742
C184  C     C_R   0.317258 0.266409 0.085285 0.076177
C185  C     C_R   0.699015 0.700471 0.900744 0.076651
C186  C     C_R   0.186660 0.774983 0.912456 0.074610
C187  C     C_R   0.813470 0.225260 0.087469 0.074535
C188  C     C_R   0.818051 0.765793 0.084020 0.076380
H1    H     H_    0.779820 0.499169 0.445716 0.193867
H2    H     H_    0.358649 0.161039 0.573887 0.185154
H3    H     H_    0.420404 0.831292 0.383159 0.187494
H4    H     H_    0.581713 0.166906 0.609668 0.163244
H5    H     H_    0.613736 0.337986 0.779047 0.190989
H6    H     H_    0.386258 0.661986 0.220985 0.193196
H7    H     H_    0.385224 0.340660 0.222483 0.193099
H8    H     H_    0.613532 0.663319 0.779412 0.190773
H9    H     H_    0.113794 0.838407 0.778790 0.192035
H10   H     H_    0.886179 0.161533 0.221255 0.192363
H11   H     H_    0.885038 0.840968 0.222414 0.194126
H12   H     H_    0.220170 0.500820 0.554364 0.194761
H13   H     H_    0.112676 0.164785 0.780381 0.190695
H14   H     H_    0.576620 0.346779 0.090802 0.171097
H15   H     H_    0.423510 0.653399 0.909176 0.171011
H16   H     H_    0.430217 0.337671 0.908468 0.168303
H17   H     H_    0.577455 0.663874 0.086004 0.161893
H18   H     H_    0.075098 0.845115 0.091388 0.169822
H19   H     H_    0.925016 0.155031 0.908594 0.169516
H20   H     H_    0.931337 0.836902 0.907735 0.168603
H21   H     H_    0.076243 0.163312 0.087749 0.163042
H22   H     H_    0.629305 0.330636 0.161911 0.140122
H23   H     H_    0.279601 0.000061 0.446529 0.193392
H24   H     H_    0.370886 0.669735 0.837970 0.140903
H25   H     H_    0.383946 0.306254 0.830091 0.139913
H26   H     H_    0.629633 0.681774 0.160172 0.146289
H27   H     H_    0.127233 0.827322 0.163531 0.144645
H28   H     H_    0.872937 0.172998 0.836366 0.145016
H29   H     H_    0.885946 0.803664 0.827983 0.138792
H30   H     H_    0.128436 0.180595 0.162163 0.142558
H31   H     H_    0.757320 0.165218 0.732930 0.181955
H32   H     H_    0.242810 0.834972 0.267058 0.180729
H33   H     H_    0.241850 0.163422 0.270429 0.178419
H34   H     H_    0.719878 0.999194 0.555293 0.194923
H35   H     H_    0.802130 0.717510 0.685836 0.181863
H36   H     H_    0.255898 0.663651 0.733440 0.177139
H37   H     H_    0.744239 0.336542 0.266545 0.176077
H38   H     H_    0.741325 0.664419 0.270323 0.183338
H39   H     H_    0.300415 0.223947 0.689650 0.176791
H40   H     H_    0.811692 0.148416 0.800545 0.149995
H41   H     H_    0.188470 0.851892 0.199379 0.148370
H42   H     H_    0.187587 0.147002 0.202190 0.140507
H43   H     H_    0.851916 0.748032 0.758851 0.140981
H44   H     H_    0.309813 0.645610 0.801847 0.141174
H45   H     H_    0.078895 0.333809 0.617382 0.187579
H46   H     H_    0.690384 0.354753 0.198036 0.139405
H47   H     H_    0.688220 0.646873 0.200517 0.149194
H48   H     H_    0.349759 0.248930 0.763576 0.143739
H49   H     H_    0.961571 0.262955 0.731109 0.200190
H50   H     H_    0.992159 0.216905 0.632454 0.193399
H51   H     H_    0.007582 0.783233 0.368313 0.192371
H52   H     H_    0.038185 0.737241 0.269616 0.200940
H53   H     H_    0.890305 0.242960 0.606162 0.185989
H54   H     H_    0.859272 0.290336 0.704658 0.201996
H55   H     H_    0.140487 0.709858 0.295916 0.202387
H56   H     H_    0.921007 0.666186 0.382963 0.189077
H57   H     H_    0.109503 0.757116 0.394509 0.185226
H58   H     H_    0.605974 0.738962 0.402454 0.185710
H59   H     H_    0.638361 0.781988 0.301093 0.199164
H60   H     H_    0.449637 0.285639 0.520935 0.194198
H61   H     H_    0.416093 0.281383 0.633484 0.186751
H62   H     H_    0.503653 0.712743 0.376423 0.194447
H63   H     H_    0.535771 0.754725 0.275158 0.196362
H64   H     H_    0.509178 0.243880 0.673383 0.178978
H65   H     H_    0.550132 0.268474 0.563996 0.190257
H66   H     H_    0.847522 0.345494 0.592840 0.173925
H67   H     H_    0.152365 0.654441 0.407391 0.174160
H68   H     H_    0.651664 0.842362 0.408555 0.174817
N1    N     N_3   0.992991 0.264952 0.664511 -0.476740
N2    N     N_3   0.006766 0.735204 0.336214 -0.477000
N3    N     N_3   0.896113 0.268560 0.655767 -0.487949
N4    N     N_3   0.103655 0.731583 0.344907 -0.488135
N5    N     N_3   0.600920 0.762513 0.351174 -0.490728
N6    N     N_3   0.423291 0.253438 0.575372 -0.475732
N7    N     N_3   0.504256 0.759531 0.341401 -0.476344
N8    N     N_3   0.510711 0.253162 0.611584 -0.488749
O1    O     O_R   0.746490 0.236330 0.638080 -0.658812
O2    O     O_R   0.325830 0.813840 0.483730 -0.625401
O3    O     O_R   0.325830 0.186160 0.483730 -0.643776
O4    O     O_R   0.674170 0.813840 0.516270 -0.636116
O5    O     O_R   0.174170 0.686160 0.516270 -0.638656
O6    O     O_R   0.825830 0.313840 0.483730 -0.637742
O7    O     O_R   0.825830 0.686160 0.483730 -0.643868
O8    O     O_R   0.174170 0.313840 0.516270 -0.625498
O9    O     O_R   0.739960 0.127620 0.525000 -0.626613
O10   O     O_R   0.260040 0.872380 0.475000 -0.628227
O11   O     O_R   0.260040 0.127620 0.475000 -0.639123
O12   O     O_R   0.253510 0.763670 0.361920 -0.659866
O13   O     O_R   0.739960 0.872380 0.525000 -0.625012
O14   O     O_R   0.239960 0.627620 0.525000 -0.635253
O15   O     O_R   0.760040 0.372380 0.475000 -0.636072
O16   O     O_R   0.760040 0.627620 0.475000 -0.632880
O17   O     O_R   0.239960 0.372380 0.525000 -0.619746
O18   O     O_R   0.680700 0.294870 0.629350 -0.631642
O19   O     O_R   0.319300 0.705130 0.370650 -0.627806
O20   O     O_R   0.319300 0.294870 0.370650 -0.616714
O21   O     O_R   0.680700 0.705130 0.629350 -0.618667
O22   O     O_R   0.180700 0.794870 0.629350 -0.615387
O23   O     O_R   0.253510 0.236330 0.361920 -0.640636
O24   O     O_R   0.819300 0.205130 0.370650 -0.614921
O25   O     O_R   0.819300 0.794870 0.370650 -0.628548
O26   O     O_R   0.180700 0.205130 0.629350 -0.631434
O27   O     O_R   0.062020 0.072840 0.007170 -0.622279
O28   O     O_R   0.937980 0.927160 0.992830 -0.623905
O29   O     O_R   0.937980 0.072840 0.992830 -0.627051
O30   O     O_R   0.062020 0.927160 0.007170 -0.626901
O31   O     O_R   0.562020 0.572840 0.007170 -0.622217
O32   O     O_R   0.437980 0.427160 0.992830 -0.624299
O33   O     O_R   0.437980 0.572840 0.992830 -0.627933
O34   O     O_R   0.746490 0.763670 0.638080 -0.637581
O35   O     O_R   0.562020 0.427160 0.007170 -0.627984
O36   O     O_R   0.947860 0.073950 0.109290 -0.620020
O37   O     O_R   0.052140 0.926050 0.890710 -0.620623
O38   O     O_R   0.052140 0.073950 0.890710 -0.617732
O39   O     O_R   0.947860 0.926050 0.109290 -0.619982
O40   O     O_R   0.447860 0.573950 0.109290 -0.619457
O41   O     O_R   0.552140 0.426050 0.890710 -0.621074
O42   O     O_R   0.552140 0.573950 0.890710 -0.617483
O43   O     O_R   0.447860 0.426050 0.109290 -0.619540
O44   O     O_R   0.246490 0.736330 0.638080 -0.637141
O45   O     O_R   0.753510 0.263670 0.361920 -0.637699
O46   O     O_R   0.753510 0.736330 0.361920 -0.661749
O47   O     O_R   0.246490 0.263670 0.638080 -0.649228
O48   O     O_R   0.674170 0.186160 0.516270 -0.631366
Zn1   Zn    Zn3+2 0.792340 0.208750 0.507670 0.927567
Zn2   Zn    Zn3+2 0.494040 0.500000 0.919480 0.926652
Zn3   Zn    Zn3+2 0.005960 0.000000 0.080520 0.927357
Zn4   Zn    Zn3+2 0.994040 0.000000 0.919480 0.926816
Zn5   Zn    Zn3+2 0.207660 0.791250 0.492330 0.924893
Zn6   Zn    Zn3+2 0.207660 0.208750 0.492330 0.940930
Zn7   Zn    Zn3+2 0.792340 0.791250 0.507670 0.942385
Zn8   Zn    Zn3+2 0.292340 0.708750 0.507670 0.945202
Zn9   Zn    Zn3+2 0.707660 0.291250 0.492330 0.929066
Zn10  Zn    Zn3+2 0.707660 0.708750 0.492330 0.922822
Zn11  Zn    Zn3+2 0.292340 0.291250 0.507670 0.949110
Zn12  Zn    Zn3+2 0.505960 0.500000 0.080520 0.927697

loop_
_geom_bond_atom_site_label_1
_geom_bond_atom_site_label_2
_ccdc_geom_bond_type
C43   O31   A    
C58   N7    S    
C108  C120  A    
C59   N6    S    
C88   C177  S    
C112  C158  S    
C50   C59   A    
C41   C143  S    
C52   C61   A    
C12   C126  A    
C54   C63   A    
C58   C60   A    
O48   Zn9   S    
O26   Zn6   S    
O27   Zn3   S    
C73   C74   A    
C45   O40   A    
C57   H66   S    
C61   C63   A    
C103  C126  A    
C95   C175  S    
C62   C64   A    
C131  C140  A    
C91   C96   A    
C50   C90   A    
C162  C171  A    
C170  C187  A    
C70   C74   A    
C19   H29   S    
C4    C12   A    
C147  C155  A    
C24   C85   A    
C88   C97   A    
O16   Zn10  S    
C181  O8    A    
C119  C128  A    
C99   H34   S    
C49   C69   A    
C97   H12   S    
C109  C118  A    
O42   Zn2   S    
H60   N6    S    
C32   H42   S    
C11   C20   A    
C150  C159  A    
C39   O27   A    
C165  C183  A    
C30   H40   S    
C137  C146  A    
C166  C184  A    
C86   C90   A    
C63   N2    S    
C71   C73   A    
C106  C127  A    
C82   C91   A    
C51   C66   A    
C89   C181  S    
C142  C151  A    
C52   C72   A    
C131  C184  A    
C105  C114  A    
C74   C178  A    
C82   C178  A    
C163  C172  A    
C7    C132  A    
H58   N5    S    
C38   C119  A    
C5    C130  A    
C83   C100  A    
C26   H36   S    
C79   C85   A    
C154  H13   S    
C179  O6    A    
C66   C77   A    
C57   C78   A    
C18   H28   S    
O33   Zn2   S    
O47   Zn11  S    
C98   H23   S    
C8    C17   A    
C56   C59   A    
C106  C115  A    
C80   C88   A    
C174  O10   A    
C145  C161  S    
C31   H41   S    
C93   C173  S    
C134  O22   A    
C84   C93   A    
C105  C184  A    
C175  O11   A    
C180  O7    A    
C86   C95   A    
C176  O4    A    
O21   Zn10  S    
C24   C77   A    
C104  C183  A    
O5    Zn5   S    
C44   O32   A    
O7    Zn7   S    
C2    C81   A    
C61   N4    S    
O34   Zn7   S    
C55   C71   A    
C2    C75   A    
O9    Zn1   S    
C41   O29   A    
C78   C87   A    
C134  C160  S    
O37   Zn4   S    
C84   C102  A    
C67   C77   A    
C45   C139  S    
C15   H25   S    
C167  O26   A    
C133  C142  A    
C123  C159  S    
C44   O43   A    
C130  C183  A    
C41   O36   A    
O11   Zn6   S    
C36   H46   S    
C69   C76   A    
C112  O20   A    
H57   N4    S    
C10   H20   S    
C134  O44   A    
C46   C82   A    
C42   O30   A    
C29   C38   A    
C149  C158  A    
C20   C122  A    
C152  C161  A    
H55   N4    S    
C135  C143  A    
C48   C67   A    
C136  C188  A    
O23   Zn6   S    
O8    Zn6   S    
O24   Zn1   S    
C72   C75   A    
C135  C187  A    
O3    Zn11  S    
C141  C150  A    
C37   H47   S    
C25   C168  A    
C139  C148  A    
O32   Zn2   S    
O29   Zn4   S    
O20   Zn11  S    
C157  C165  A    
C27   H37   S    
C92   C174  S    
O4    Zn10  S    
O30   Zn3   S    
C40   O39   A    
C79   H68   S    
C91   C180  S    
C47   O41   A    
C16   H26   S    
H59   N5    S    
C177  O14   A    
C3    C137  A    
C9    C135  A    
C116  C125  A    
C118  C127  A    
C64   N1    S    
C90   H2    S    
C132  C141  A    
O6    Zn1   S    
O38   Zn4   S    
O18   Zn9   S    
C108  C117  A    
O28   Zn4   S    
C177  O5    A    
C132  C185  A    
C5    H15   S    
O10   Zn5   S    
C149  H7    S    
O44   Zn8   S    
C68   H67   S    
C28   C37   A    
C47   C138  S    
O1    Zn1   S    
C151  H9    S    
C16   C127  A    
C51   C79   A    
C107  C116  A    
H64   N8    S    
O39   Zn3   S    
C104  C113  A    
C179  O15   A    
C9    C18   A    
C113  C121  A    
C21   H31   S    
O22   Zn5   S    
H63   N7    S    
C51   C60   A    
H52   N2    S    
C33   H43   S    
C140  C149  A    
C31   C113  A    
C25   C33   A    
C42   O37   A    
C129  C182  A    
H54   N3    S    
O17   Zn11  S    
C46   H56   S    
C7    H17   S    
C9    H19   S    
C107  C186  A    
C65   C76   A    
C171  C188  A    
C39   O38   A    
C169  C186  A    
C38   H48   S    
C3    C172  A    
H50   N1    S    
C103  C111  A    
O12   Zn5   S    
C108  C187  A    
C104  C125  A    
C23   H33   S    
O35   Zn12  S    
C65   C67   A    
C102  H4    S    
C160  C169  A    
C101  O12   A    
C35   H45   S    
C112  O23   A    
H61   N6    S    
C93   C99   A    
C180  O16   A    
C81   C89   A    
C101  C157  S    
C44   C140  S    
C21   C164  A    
C130  C139  A    
C53   C73   A    
C33   C115  A    
C101  O19   A    
C175  O3    A    
C53   C57   A    
C167  O47   A    
C45   O33   A    
C110  C119  A    
C47   O35   A    
C6    H16   S    
C4    H14   S    
C10   C19   A    
C48   C102  A    
C46   C54   A    
C8    H18   S    
C27   C170  A    
C5    C14   A    
C17   C121  A    
C143  C152  A    
C15   C128  A    
H49   N1    S    
C43   C141  S    
C107  C121  A    
C158  C166  A    
C22   H32   S    
C115  C124  A    
C78   C178  A    
C20   H30   S    
C34   H44   S    
C106  C185  A    
C6    C131  A    
C4    C129  A    
O46   Zn10  S    
C27   C36   A    
C21   C30   A    
C13   C83   A    
C14   H24   S    
C153  C162  A    
C23   C32   A    
O15   Zn9   S    
C11   C137  A    
C12   H22   S    
C136  C144  A    
C110  C122  A    
C39   C146  S    
C40   O28   A    
H62   N7    S    
C164  C182  A    
O19   Zn8   S    
O41   Zn2   S    
C145  O45   A    
C3    C110  A    
C94   C176  S    
C68   C80   A    
C103  C182  A    
O31   Zn12  S    
H51   N2    S    
C35   C81   A    
C95   C98   A    
C92   C98   A    
C83   C92   A    
C14   C125  A    
C56   N8    S    
C10   C136  A    
C1    O18   A    
C66   C69   A    
O36   Zn3   S    
C34   C116  A    
C159  C168  A    
C1    C155  S    
C144  C153  A    
C145  O24   A    
C123  O21   A    
C6    C15   A    
C22   C165  A    
C26   C34   A    
C37   C118  A    
C26   C169  A    
C54   C70   A    
C13   C86   A    
C42   C142  S    
C43   O42   A    
C25   H35   S    
O45   Zn9   S    
C52   C68   A    
C148  C157  A    
C156  C162  S    
C123  O34   A    
C50   C65   A    
C109  C188  A    
C19   C124  A    
C22   C31   A    
C129  C138  A    
C35   C55   A    
C154  C163  A    
C28   H38   S    
C87   C179  S    
C49   C58   A    
C173  O48   A    
C89   C97   A    
C111  C120  A    
C96   H1    S    
C163  C167  S    
C146  C154  A    
C181  O17   A    
C36   C117  A    
C23   C166  A    
C85   C94   A    
C28   C171  A    
C13   C76   A    
C138  C147  A    
O25   Zn7   S    
C87   C96   A    
C152  H10   S    
O40   Zn12  S    
C150  H8    S    
C133  C186  A    
C173  O9    A    
C161  C170  A    
H65   N8    S    
C40   C144  S    
C100  H3    S    
C29   H39   S    
C18   C120  A    
C148  H6    S    
C48   C56   A    
C156  O46   A    
C7    C16   A    
C168  C185  A    
H53   N3    S    
C105  C128  A    
C8    C133  A    
C60   N5    S    
O2    Zn8   S    
C109  C124  A    
C153  H11   S    
C55   C64   A    
C155  C164  A    
C174  O2    A    
C30   C111  A    
C151  C160  A    
C24   C84   A    
C176  O13   A    
C11   H21   S    
C49   C100  A    
C71   C75   A    
C94   C99   A    
C62   N3    S    
C156  O25   A    
C147  H5    S    
C29   C172  A    
O13   Zn7   S    
C2    C80   A    
O14   Zn8   S    
C114  C122  A    
C1    O1    A    
O43   Zn12  S    
C53   C62   A    
C117  C126  A    
C70   C72   A    
C32   C114  A    
C17   H27   S    
