data_mof_unit_65207.cif
_audit_creation_date              2012-10-26T19:16:20-0400
_audit_creation_method            fapswitch 2.2
_symmetry_space_group_name_H-M    P1
_symmetry_Int_Tables_number       1
_space_group_crystal_system       triclinic
_cell_length_a                    14.759022
_cell_length_b                    15.828051
_cell_length_c                    15.99622
_cell_angle_alpha                 90.020052
_cell_angle_beta                  90.016941
_cell_angle_gamma                 69.460614
_cell_volume                      3499.27637376

loop_
_atom_site_label
_atom_site_type_symbol
_atom_type_description
_atom_site_fract_x
_atom_site_fract_y
_atom_site_fract_z
_atom_type_partial_charge
C1    C     C_R   0.499955 0.500044 0.340830 0.553512
C2    C     C_R   0.499959 0.500043 0.087213 0.038407
C3    C     C_R   0.425378 0.483994 0.956338 -0.091774
C4    C     C_R   0.574622 0.516007 0.043662 -0.091773
C5    C     C_1   0.500066 0.499938 0.823333 -0.035704
C6    C     C_1   0.499933 0.500062 0.176667 -0.035698
C7    C     C_1   0.499930 0.500062 0.251714 0.003228
C8    C     C_1   0.500070 0.499939 0.748286 0.003216
C9    C     C_R   0.925403 0.572989 0.535127 0.105242
C10   C     C_R   0.074598 0.427007 0.464876 0.105241
C11   C     C_R   0.902510 0.500827 0.500436 -0.006709
C12   C     C_R   0.500045 0.499956 0.659170 0.553503
C13   C     C_R   0.097491 0.499171 0.499565 -0.006707
C14   C     C_R   0.978326 0.428228 0.465539 -0.098725
C15   C     C_R   0.021675 0.571769 0.534463 -0.098723
C16   C     C_R   0.558940 0.326671 0.499739 0.554792
C17   C     C_R   0.441060 0.673329 0.500254 0.554795
C18   C     C_1   0.802581 0.500283 0.500172 0.203264
C19   C     C_1   0.197419 0.499716 0.499829 0.203259
C20   C     C_R   0.596062 0.226895 0.499560 0.002022
C21   C     C_R   0.403939 0.773103 0.500429 0.002029
C22   C     C_R   0.723067 0.079699 0.491130 -0.091137
C23   C     C_R   0.610072 0.908292 0.458662 0.086432
C24   C     C_R   0.276932 0.920302 0.508819 -0.091137
C25   C     C_R   0.695793 0.173283 0.498016 0.090634
C26   C     C_R   0.304209 0.826718 0.501921 0.090636
C27   C     C_R   0.527703 0.183871 0.499711 -0.116005
C28   C     C_R   0.472300 0.816125 0.500319 -0.116005
C29   C     C_R   0.554977 0.089944 0.503783 0.029131
C30   C     C_R   0.445028 0.910050 0.496237 0.029131
C31   C     C_R   0.653397 0.038271 0.490734 0.002486
C32   C     C_R   0.346605 0.961727 0.509258 0.002485
C33   C     C_R   0.485915 0.046471 0.511484 0.027792
C34   C     C_R   0.389931 0.091699 0.541360 0.086423
C35   C     C_R   0.514092 0.953521 0.488545 0.027791
C36   C     C_R   0.679961 0.947848 0.468526 -0.078627
C37   C     C_R   0.320039 0.052148 0.531472 -0.078628
C38   C     C_R   0.574663 0.515963 0.956415 -0.092887
C39   C     C_R   0.425337 0.484037 0.043585 -0.092886
C40   C     C_R   0.500041 0.499957 0.912787 0.038406
Cu1   Cu    Cu3+1 0.589210 0.500030 0.500000 1.067312
Cu2   Cu    Cu3+1 0.410790 0.499970 0.500000 1.067307
H1    H     H_    0.753788 0.910772 0.449504 0.158412
H2    H     H_    0.367349 0.471637 0.076952 0.131635
H3    H     H_    0.037245 0.627964 0.561454 0.160479
H4    H     H_    0.962756 0.372033 0.438549 0.160494
H5    H     H_    0.246208 0.089227 0.550478 0.158416
H6    H     H_    0.547555 0.775856 0.508719 0.181792
H7    H     H_    0.452443 0.224142 0.491340 0.181799
H8    H     H_    0.798970 0.039327 0.483697 0.150193
H9    H     H_    0.201027 0.960678 0.516215 0.150195
H10   H     H_    0.632581 0.528435 0.077090 0.132612
H11   H     H_    0.367419 0.471566 0.922910 0.132611
H12   H     H_    0.632651 0.528363 0.923048 0.131633
I1    I     I_    0.187750 0.776647 0.500716 -0.318210
I2    I     I_    0.812254 0.223357 0.499098 -0.318234
I3    I     I_    0.653704 0.795311 0.375172 -0.330386
I4    I     I_    0.346287 0.204672 0.624859 -0.330405
I5    I     I_    0.817367 0.685774 0.589803 -0.327805
I6    I     I_    0.182637 0.314218 0.410210 -0.327793
N1    N     N_1   0.276700 0.500030 0.499980 -0.160355
N2    N     N_1   0.723300 0.499970 0.500020 -0.160351
O1    O     O_R   0.575310 0.500040 0.380310 -0.484537
O2    O     O_R   0.424690 0.499960 0.619690 -0.484547
O3    O     O_R   0.424640 0.500000 0.380310 -0.485849
O4    O     O_R   0.575360 0.500000 0.619690 -0.485857
O5    O     O_R   0.617590 0.370200 0.500000 -0.467726
O6    O     O_R   0.382410 0.629800 0.500000 -0.467730
O7    O     O_R   0.466910 0.370160 0.500000 -0.492921
O8    O     O_R   0.533090 0.629840 0.500000 -0.492915

loop_
_geom_bond_atom_site_label_1
_geom_bond_atom_site_label_2
_ccdc_geom_bond_type
Cu2   O3    S    
C10   I6    S    
C21   C26   A    
C24   C32   A    
C11   C18   S    
Cu1   O4    S    
C20   C27   A    
C29   C33   A    
C37   H5    S    
C34   C37   A    
C9    C11   A    
Cu1   Cu2   S    
C2    C39   A    
C2    C4    A    
C38   H12   S    
C25   I2    S    
C8    C12   S    
C22   H8    S    
C26   I1    S    
C24   H9    S    
C28   C30   A    
C33   C34   A    
C9    C15   A    
C3    C39   A    
C17   O8    A    
C29   C31   A    
C16   O5    A    
C32   C37   A    
C38   C40   A    
C3    H11   S    
Cu2   N1    S    
C2    C6    S    
C22   C31   A    
Cu1   N2    S    
C4    H10   S    
C1    O1    A    
C16   C20   S    
C33   C35   A    
C21   C28   A    
C24   C26   A    
C3    C40   A    
C6    C7    T    
C23   C35   A    
Cu2   O6    S    
C13   C15   A    
C12   O2    A    
C11   C14   A    
C5    C8    T    
C27   C29   A    
C20   C25   A    
C15   H3    S    
C39   H2    S    
C34   I4    S    
C30   C32   A    
C19   N1    T    
Cu2   O2    S    
Cu1   O5    S    
C23   C36   A    
C10   C14   A    
C5    C40   S    
C30   C35   A    
C23   I3    S    
C13   C19   S    
Cu1   O1    S    
C31   C36   A    
C28   H6    S    
C17   O6    A    
C18   N2    T    
C14   H4    S    
C9    I5    S    
C1    C7    S    
C12   O4    A    
C1    O3    A    
C10   C13   A    
Cu2   O7    S    
C17   C21   S    
C16   O7    A    
C27   H7    S    
C4    C38   A    
Cu1   O8    S    
C36   H1    S    
C22   C25   A    
