data_mof_unit_64312.cif
_audit_creation_date              2012-12-10T17:04:24-0500
_audit_creation_method            fapswitch 2.2
_symmetry_space_group_name_H-M    P1
_symmetry_Int_Tables_number       1
_space_group_crystal_system       triclinic
_cell_length_a                    15.144675
_cell_length_b                    15.149137
_cell_length_c                    16.023426
_cell_angle_alpha                 89.429001
_cell_angle_beta                  90.361673
_cell_angle_gamma                 90.200247
_cell_volume                      3675.95725393

loop_
_atom_site_label
_atom_site_type_symbol
_atom_type_description
_atom_site_fract_x
_atom_site_fract_y
_atom_site_fract_z
_atom_type_partial_charge
C1    C     C_R   0.259893 0.485192 0.488321 0.515429
C2    C     C_R   0.979402 0.456681 0.485064 0.094869
C3    C     C_R   0.018973 0.534469 0.516797 -0.001399
C4    C     C_R   0.739606 0.514673 0.512292 0.486206
C5    C     C_R   0.110699 0.543265 0.517652 -0.117469
C6    C     C_R   0.124653 0.399684 0.453606 -0.149526
C7    C     C_R   0.033340 0.389713 0.453545 -0.098559
C8    C     C_R   0.521504 0.163641 0.516889 0.026325
C9    C     C_R   0.482613 0.835143 0.482700 0.076503
C10   C     C_R   0.405650 0.966742 0.436245 -0.141293
C11   C     C_R   0.412019 0.874619 0.439112 0.212805
C12   C     C_1   0.478438 0.519289 0.886669 -0.036617
C13   C     C_R   0.546931 0.887043 0.524322 0.190366
C14   C     C_R   0.538931 0.979286 0.521725 0.082505
C15   C     C_R   0.468161 0.018927 0.477246 -0.033370
C16   C     C_R   0.513419 0.259781 0.513168 0.509449
C17   C     C_R   0.460324 0.110670 0.474720 -0.118604
C18   C     C_R   0.591142 0.124410 0.561625 -0.143691
C19   C     C_R   0.600092 0.033103 0.563754 -0.086270
C20   C     C_R   0.486580 0.739439 0.486169 0.551742
C21   C     C_R   0.512820 0.488534 0.277343 0.511053
C22   C     C_R   0.487408 0.511207 0.722683 0.503633
C23   C     C_1   0.522630 0.479556 0.113454 -0.034992
C24   C     C_1   0.518206 0.483599 0.188320 0.026924
C25   C     C_2   0.527563 0.475056 0.023980 -0.116282
C26   C     C_2   0.473590 0.523677 0.976151 -0.116497
C27   C     C_1   0.482586 0.515545 0.811771 0.024837
C28   C     C_R   0.163753 0.476164 0.486020 0.024277
C29   C     C_R   0.835279 0.518097 0.514518 0.039482
C30   C     C_R   0.966494 0.602815 0.546604 -0.143073
C31   C     C_R   0.875203 0.594883 0.544755 -0.150498
C32   C     C_R   0.887032 0.447714 0.484273 0.240793
H1    H     H_    0.425325 0.567188 0.003963 0.142681
H2    H     H_    0.305424 0.859555 0.372010 0.325461
H3    H     H_    0.613262 0.785606 0.569743 0.326941
H4    H     H_    0.575840 0.431540 0.996197 0.142301
H5    H     H_    0.005403 0.329549 0.428527 0.177228
H6    H     H_    0.785479 0.374998 0.450073 0.334840
H7    H     H_    0.639370 0.164356 0.594365 0.147241
H8    H     H_    0.351555 0.997664 0.402460 0.108453
H9    H     H_    0.654916 0.005091 0.598587 0.179599
H10   H     H_    0.140736 0.602754 0.542254 0.140554
H11   H     H_    0.164751 0.346896 0.429241 0.140452
H12   H     H_    0.996051 0.662726 0.570669 0.129172
H13   H     H_    0.835315 0.648817 0.567292 0.131176
H14   H     H_    0.406114 0.140790 0.440408 0.134404
O1    O     O_3   0.500000 0.500000 0.500000 -0.449438
O2    O     O_R   0.461330 0.435620 0.316920 -0.535528
O3    O     O_R   0.434750 0.558200 0.677930 -0.537630
O4    O     O_R   0.559650 0.545720 0.316320 -0.526841
O5    O     O_R   0.544270 0.460460 0.688830 -0.536104
O6    O     O_3   0.350456 0.821664 0.399578 -0.688845
O7    O     O_3   0.616894 0.850720 0.568946 -0.716878
O8    O     O_3   0.850553 0.371074 0.452164 -0.716526
O9    O     O_R   0.559890 0.307360 0.561630 -0.542824
O10   O     O_R   0.434610 0.697530 0.534530 -0.519034
O11   O     O_R   0.307380 0.433810 0.444990 -0.544925
O12   O     O_R   0.698130 0.561300 0.458860 -0.536930
O13   O     O_R   0.296270 0.542620 0.535390 -0.536622
O14   O     O_R   0.698230 0.462280 0.560770 -0.539984
O15   O     O_R   0.461480 0.296280 0.460320 -0.547934
O16   O     O_R   0.544020 0.698820 0.443520 -0.538503
Zn1   Zn    Zn3+2 0.574310 0.433680 0.576480 0.944128
Zn2   Zn    Zn3+2 0.433700 0.417860 0.431740 0.947735
Zn3   Zn    Zn3+2 0.574160 0.575160 0.430870 0.965925
Zn4   Zn    Zn3+2 0.417840 0.573310 0.560900 0.967197

loop_
_geom_bond_atom_site_label_1
_geom_bond_atom_site_label_2
_ccdc_geom_bond_type
C16   O15   A    
C1    C28   S    
C23   C24   T    
C6    C7    A    
C1    O11   A    
O1    Zn4   S    
H3    O7    S    
C5    C28   A    
O12   Zn3   S    
H2    O6    S    
C8    C17   A    
H6    O8    S    
C20   O10   A    
C21   O2    A    
C4    O14   A    
C8    C16   S    
C23   C25   S    
C2    C3    A    
C7    H5    S    
C16   O9    A    
C29   C31   A    
C25   C26   D    
C13   C14   A    
O15   Zn2   S    
O1    Zn1   S    
C9    C11   A    
C30   H12   S    
C30   C31   A    
C22   O3    A    
O10   Zn4   S    
C9    C20   S    
C3    C30   A    
C32   O8    S    
C21   O4    A    
O16   Zn3   S    
C29   C32   A    
C13   O7    S    
C6    H11   S    
C1    O13   A    
O13   Zn4   S    
C20   O16   A    
C22   C27   S    
O4    Zn3   S    
O14   Zn1   S    
O2    Zn2   S    
C10   C11   A    
C8    C18   A    
C25   H4    S    
C31   H13   S    
O1    Zn2   S    
O5    Zn1   S    
C17   H14   S    
O11   Zn2   S    
C2    C32   A    
C18   C19   A    
O3    Zn4   S    
C21   C24   S    
C4    O12   A    
C5    H10   S    
C15   C17   A    
C18   H7    S    
C9    C13   A    
C14   C15   A    
C22   O5    A    
C10   H8    S    
C11   O6    S    
C12   C27   T    
C2    C7    A    
C10   C15   A    
C14   C19   A    
O1    Zn3   S    
C6    C28   A    
C19   H9    S    
C26   H1    S    
C12   C26   S    
C4    C29   S    
C3    C5    A    
O9    Zn1   S    
