data_mof_unit_25795.cif
_audit_creation_date              2013-03-05T15:48:51-0500
_audit_creation_method            fapswitch 2.2
_symmetry_space_group_name_H-M    P1
_symmetry_Int_Tables_number       1
_space_group_crystal_system       triclinic
_cell_length_a                    10.184982
_cell_length_b                    10.553461
_cell_length_c                    27.667647
_cell_angle_alpha                 90.927746
_cell_angle_beta                  81.722434
_cell_angle_gamma                 94.307524
_cell_volume                      2934.56913231

loop_
_atom_site_label
_atom_site_type_symbol
_atom_site_description
_atom_site_fract_x
_atom_site_fract_y
_atom_site_fract_z
_atom_type_partial_charge
O1    O     O_R   0.431060 0.692470 0.504020 -0.601066
O2    O     O_R   0.568940 0.307530 0.495980 -0.599326
O3    O     O_R   0.651120 0.659650 0.491200 -0.553778
O4    O     O_R   0.348880 0.340350 0.508800 -0.545817
C1    C     C_R   0.554288 0.734179 0.499396 0.962551
C2    C     C_R   0.445944 0.266006 0.505674 0.971067
O5    O     O_R   0.389980 0.516390 0.577660 -0.604418
O6    O     O_R   0.610020 0.483610 0.422340 -0.622663
O7    O     O_R   0.610040 0.483570 0.564830 -0.557593
O8    O     O_R   0.389960 0.516430 0.435170 -0.576630
C3    C     C_R   0.500914 0.500955 0.593958 1.019483
C4    C     C_R   0.499130 0.499767 0.406084 0.917697
Zn1   Zn    Zn3+2 0.353060 0.521910 0.508560 1.080307
Zn2   Zn    Zn3+2 0.646940 0.478090 0.491440 1.075988
C5    C     C_R   0.536225 0.630120 0.821822 0.706030
C6    C     C_R   0.400639 0.420311 0.181420 0.699321
O9    O     O_2   0.575656 0.733933 0.794260 -0.418623
O10   O     O_2   0.325600 0.333096 0.210419 -0.434662
N1    N     N_R   0.505479 0.518045 0.799109 -0.339517
N2    N     N_R   0.488807 0.502401 0.201316 -0.337742
C7    C     C_R   0.469700 0.407773 0.824170 0.674861
C8    C     C_R   0.573660 0.588020 0.173759 0.667567
C9    C     C_R   0.618144 0.475794 0.716304 0.313323
C10   C     C_R   0.598201 0.448847 0.271247 0.324244
C11   C     C_R   0.614793 0.471001 0.666013 -0.150443
C12   C     C_R   0.600710 0.451424 0.321570 -0.233072
C13   C     C_R   0.393661 0.546689 0.677824 -0.167418
C14   C     C_R   0.389463 0.547228 0.334988 -0.213028
C15   C     C_R   0.393590 0.552868 0.728178 0.307658
C16   C     C_R   0.386360 0.550228 0.284820 0.316741
C17   C     C_R   0.506391 0.516591 0.747492 0.043305
C18   C     C_R   0.490988 0.499979 0.252802 0.048987
C19   C     C_R   0.492443 0.521240 0.899366 -0.093773
C20   C     C_R   0.481636 0.511165 0.102110 -0.093854
C21   C     C_R   0.529309 0.635453 0.873154 -0.157431
C22   C     C_R   0.391041 0.425492 0.131135 -0.157241
C23   C     C_R   0.552977 0.749879 0.899395 0.376743
C24   C     C_R   0.292510 0.352409 0.109090 0.368552
C25   C     C_R   0.461209 0.407300 0.874835 -0.070205
C26   C     C_R   0.573232 0.592867 0.123508 -0.064172
C27   C     C_R   0.503109 0.505623 0.646709 -0.141050
C28   C     C_R   0.496624 0.499545 0.353433 -0.149303
H1    H     H_    0.307161 0.573607 0.662914 0.232361
H2    H     H_    0.309664 0.585913 0.359641 0.217429
C29   C     C_R   0.560861 0.611064 0.023186 0.031133
C30   C     C_R   0.430739 0.411391 0.977324 0.028380
C31   C     C_R   0.403371 0.423118 0.028749 -0.063603
C32   C     C_R   0.538215 0.627079 0.974460 -0.067820
C33   C     C_R   0.481424 0.515424 0.051442 0.028765
C34   C     C_R   0.486604 0.520189 0.950350 0.028947
C35   C     C_R   0.662040 0.681841 0.044221 0.400358
C36   C     C_R   0.411089 0.295600 0.951942 0.405887
C37   C     C_R   0.665346 0.674414 0.094171 -0.102431
C38   C     C_R   0.425172 0.294835 0.901195 -0.089503
O11   O     O_2   0.658012 0.668014 0.195170 -0.489102
O12   O     O_2   0.440973 0.299505 0.799903 -0.469470
C39   C     C_R   0.558023 0.745658 0.950099 0.237010
C40   C     C_R   0.298090 0.351818 0.057776 0.232265
H3    H     H_    0.682463 0.412538 0.335998 0.214941
H4    H     H_    0.700014 0.440452 0.641823 0.238733
H5    H     H_    0.742795 0.730285 0.109708 0.235686
H6    H     H_    0.409638 0.205196 0.882439 0.243623
C41   C     C_2   0.580467 0.869586 0.507186 -0.393424
C42   C     C_2   0.420648 0.131411 0.516532 -0.411711
C43   C     C_2   0.496216 0.932941 0.539343 0.253853
C44   C     C_2   0.507549 0.070535 0.538605 0.244871
H7    H     H_    0.336854 0.079330 0.503144 0.182709
H8    H     H_    0.662362 0.919981 0.483960 0.171165
N3    N     N_2   0.842700 0.448890 0.480020 -0.196450
N4    N     N_2   0.157300 0.551110 0.519980 -0.198570
C45   C     C_2   0.927255 0.511274 0.504094 0.337566
C46   C     C_2   0.072676 0.488563 0.495986 0.330132
H9    H     H_    0.123331 0.618113 0.545173 0.219686
H10   H     H_    0.876734 0.382014 0.454788 0.205555
Cl1   Cl    Cl    0.130329 0.373519 0.452690 -0.548987
Cl2   Cl    Cl    0.869551 0.626165 0.547458 -0.521582
N5    N     N_R   0.278786 0.596216 0.758948 0.245340
O13   O     O_R   0.201143 0.670464 0.741302 -0.256841
O14   O     O_R   0.244470 0.554416 0.803279 -0.322668
N6    N     N_R   0.277519 0.605433 0.266954 0.240219
O15   O     O_R   0.161785 0.604867 0.293987 -0.298392
O16   O     O_R   0.296148 0.667394 0.225967 -0.327631
Cl3   Cl    Cl    0.561582 0.900830 0.871359 -0.329759
Cl4   Cl    Cl    0.151812 0.274620 0.144793 -0.294400
N7    N     N_R   0.704150 0.393815 0.239506 0.241722
O17   O     O_R   0.821149 0.390563 0.252966 -0.269568
O18   O     O_R   0.681796 0.336311 0.199217 -0.319865
N8    N     N_R   0.734554 0.438270 0.734966 0.247249
O19   O     O_R   0.814897 0.364551 0.709150 -0.276151
O20   O     O_R   0.766913 0.484223 0.775902 -0.310240
Cl5   Cl    Cl    0.802242 0.759295 0.008840 -0.406520
Cl6   Cl    Cl    0.396091 0.146233 0.980595 -0.379828
N9    N     N_R   0.562397 0.862202 0.977907 0.260110
O21   O     O_R   0.479765 0.874359 0.017929 -0.285816
O22   O     O_R   0.649413 0.955859 0.963905 -0.202724
N10   N     N_R   0.186850 0.296185 0.035921 0.250191
O23   O     O_R   0.137284 0.359548 0.003743 -0.307724
O24   O     O_R   0.134397 0.182744 0.047897 -0.196448
N11   N     N_R   0.608240 0.136180 0.563156 0.246014
O25   O     O_R   0.722466 0.088344 0.562782 -0.308012
O26   O     O_R   0.575484 0.225311 0.594574 -0.370207
N12   N     N_R   0.398765 0.870122 0.575726 0.242318
O27   O     O_R   0.433592 0.781012 0.602094 -0.362938
O28   O     O_R   0.286480 0.920093 0.589774 -0.307431

loop_
_geom_bond_atom_site_label_1
_geom_bond_atom_site_label_2
_geom_bond_distance
_ccdc_geom_bond_type
C41   C43   1.349827 D    
N9    O21   1.301614 A    
C13   C15   1.393554 A    
N1    C17   1.426673 S    
C32   C39   1.418192 A    
C31   C33   1.408092 A    
N5    O13   1.301670 A    
C5    N1    1.367075 A    
C19   C25   1.409282 A    
O1    C1    1.287614 A    
N1    C7    1.362911 A    
C10   C12   1.396009 A    
C45   Cl2   1.764079 S    
C25   C38   1.400302 A    
Zn1   N4    2.019365 S    
C29   C35   1.414756 A    
C30   C36   1.415075 A    
C1    C41   1.452218 S    
C2    C42   1.452872 S    
O4    Zn1   1.913458 S    
N3    C45   1.297895 D    
C40   N10   1.442148 S    
C4    C28   1.460586 S    
C35   Cl5   1.764531 S    
C41   H8    1.087026 S    
C37   H5    1.083616 S    
N10   O24   1.301643 A    
C11   H4    1.083075 S    
C12   H3    1.083255 S    
C6    N2    1.367470 A    
C16   N6    1.441092 S    
C32   C34   1.407595 A    
N9    O22   1.301705 A    
C39   N9    1.441403 S    
O2    C2    1.287575 A    
C43   N12   1.439806 S    
C46   Cl1   1.763882 S    
C5    C21   1.412215 A    
C36   C38   1.390627 A    
N5    O14   1.300797 A    
N7    O18   1.301181 A    
C42   H7    1.087038 S    
N6    O16   1.301161 A    
C11   C27   1.398706 A    
C10   N7    1.441438 S    
C38   H6    1.083752 S    
C19   C34   1.403469 A    
N7    O17   1.301619 A    
C14   H2    1.083380 S    
C35   C37   1.390869 A    
C42   C44   1.350138 D    
C44   N11   1.439325 S    
O5    C3    1.297382 A    
O7    Zn2   2.011809 S    
C10   C18   1.414891 A    
C13   C27   1.398483 A    
N11   O25   1.301160 A    
C7    C25   1.392021 A    
C29   C33   1.416079 A    
O6    C4    1.297917 A    
C8    C26   1.392738 A    
N10   O23   1.301551 A    
N4    H9    1.028055 S    
N3    H10   1.027980 S    
C24   C40   1.412624 A    
N12   O28   1.301162 A    
O7    C3    1.298611 A    
O3    Zn2   1.913458 S    
O8    C4    1.296913 A    
O4    C2    1.300030 A    
N11   O26   1.299578 A    
N8    O20   1.300880 A    
C43   C44   1.448249 S    
C9    N8    1.443116 S    
Zn2   N3    2.019365 S    
C20   C26   1.409230 A    
C36   Cl6   1.762401 S    
O1    Zn1   1.910674 S    
C22   C24   1.420814 A    
C12   C28   1.398641 A    
N2    C18   1.428545 S    
C29   C32   1.414935 A    
C5    O9    1.347558 S    
C30   C31   1.415157 A    
C20   C33   1.403616 A    
O6    Zn2   2.003447 S    
C21   C23   1.421896 A    
N2    C8    1.363789 A    
N6    O15   1.301587 A    
O3    C1    1.299643 A    
O8    Zn1   2.011807 S    
C7    O12   1.350348 S    
C8    O11   1.350233 S    
C30   C34   1.416477 A    
C14   C16   1.393832 A    
C24   Cl4   1.773469 S    
C45   C46   1.502458 S    
C15   C17   1.414742 A    
C6    C22   1.410872 A    
C31   C40   1.418233 A    
C16   C18   1.414011 A    
C14   C28   1.398614 A    
C19   C21   1.414814 A    
C3    C27   1.462837 S    
C20   C22   1.413734 A    
C9    C11   1.396743 A    
N12   O27   1.299730 A    
O2    Zn2   1.910672 S    
C13   H1    1.083085 S    
O5    Zn1   2.003450 S    
C15   N5    1.443034 S    
N8    O19   1.301680 A    
C6    O10   1.347848 S    
C26   C37   1.400606 A    
C23   Cl3   1.773889 S    
N4    C46   1.297835 D    
C23   C39   1.412733 A    
C9    C17   1.415718 A    
