data_mof_unit_13047.cif
_audit_creation_date              2012-12-10T18:16:27-0500
_audit_creation_method            fapswitch 2.2
_symmetry_space_group_name_H-M    P1
_symmetry_Int_Tables_number       1
_space_group_crystal_system       triclinic
_cell_length_a                    12.578209
_cell_length_b                    13.034588
_cell_length_c                    27.724608
_cell_angle_alpha                 90.456612
_cell_angle_beta                  102.680633
_cell_angle_gamma                 83.247715
_cell_volume                      4403.12210863

loop_
_atom_site_label
_atom_site_type_symbol
_atom_type_description
_atom_site_fract_x
_atom_site_fract_y
_atom_site_fract_z
_atom_type_partial_charge
C1    C     C_R   0.440349 0.691018 0.489297 0.867409
C2    C     C_R   0.456086 0.587982 0.021774 0.043762
C3    C     C_R   0.527465 0.402890 0.027599 0.052444
C4    C     C_R   0.500344 0.501225 0.593804 0.912968
C5    C     C_R   0.491708 0.495051 0.049934 0.071959
C6    C     C_R   0.413108 0.675642 0.044838 -0.214516
C7    C     C_R   0.411241 0.673502 0.094642 -0.134459
C8    C     C_R   0.451823 0.583988 0.123215 -0.022374
C9    C     C_R   0.491891 0.494367 0.101021 -0.052696
C10   C     C_R   0.532440 0.404162 0.130039 -0.022857
C11   C     C_R   0.532770 0.405498 0.180527 0.506044
C12   C     C_R   0.597249 0.500699 0.731808 -0.187556
C13   C     C_R   0.453014 0.581681 0.173753 0.505245
C14   C     C_R   0.593195 0.503318 0.286632 -0.103484
C15   C     C_R   0.594716 0.505319 0.336881 -0.222673
C16   C     C_R   0.560287 0.308733 0.502387 0.878363
C17   C     C_R   0.400028 0.486354 0.318800 -0.193606
C18   C     C_R   0.398758 0.484773 0.268575 -0.102532
C19   C     C_R   0.495222 0.493395 0.252576 0.322998
C20   C     C_R   0.464005 0.590222 0.971634 0.048484
C21   C     C_R   0.492901 0.496565 0.948462 0.075006
C22   C     C_R   0.520401 0.402320 0.975872 0.032705
C23   C     C_R   0.497389 0.505469 0.746542 0.249668
C24   C     C_R   0.445362 0.683556 0.943927 -0.212355
C25   C     C_R   0.537622 0.309753 0.900274 0.006329
C26   C     C_R   0.570651 0.314531 0.058086 -0.214472
C27   C     C_R   0.572721 0.315297 0.108307 -0.136567
C28   C     C_R   0.499337 0.499304 0.406116 0.853171
C29   C     C_R   0.538587 0.309938 0.950551 -0.254942
C30   C     C_R   0.733651 0.052651 0.501492 -0.201757
C31   C     C_R   0.595660 0.201143 0.493515 -0.105896
C32   C     C_R   0.297207 0.841274 0.470628 -0.184073
C33   C     C_R   0.266691 0.946944 0.463740 -0.139196
C34   C     C_R   0.494414 0.497429 0.897460 -0.061371
C35   C     C_R   0.345216 0.012373 0.461367 -0.169456
C36   C     C_R   0.455187 0.972055 0.462305 0.086359
C37   C     C_R   0.483832 0.864022 0.464148 0.088539
C38   C     C_R   0.540553 0.035870 0.467694 0.041900
C39   C     C_R   0.651321 0.991445 0.480611 0.159751
C40   C     C_R   0.475133 0.593005 0.820752 0.564121
C41   C     C_R   0.676342 0.887128 0.472152 -0.261517
C42   C     C_R   0.591763 0.825474 0.460020 -0.190790
C43   C     C_R   0.519753 0.142835 0.464623 -0.067714
C44   C     C_R   0.704268 0.156169 0.511289 -0.218677
C45   C     C_R   0.472682 0.592162 0.870798 -0.029848
C46   C     C_R   0.406236 0.799291 0.473062 -0.120833
C47   C     C_R   0.085102 0.346327 0.431529 -0.305874
C48   C     C_R   0.799156 0.633820 0.556699 -0.171087
C49   C     C_R   0.904960 0.665657 0.568385 0.459069
C50   C     C_R   0.985123 0.614503 0.546103 -0.267887
C51   C     C_R   0.962412 0.531839 0.513685 -0.062305
C52   C     C_R   0.518517 0.409637 0.822343 0.510023
C53   C     C_R   0.854431 0.503703 0.503545 0.216919
C54   C     C_R   0.041602 0.477625 0.490119 0.018918
C55   C     C_R   0.009857 0.398831 0.456092 0.191174
C56   C     C_R   0.449641 0.684280 0.894493 -0.135481
C57   C     C_R   0.903221 0.373235 0.446670 -0.290661
C58   C     C_R   0.827044 0.424600 0.470222 -0.191604
C59   C     C_R   0.151657 0.497801 0.498733 -0.054360
C60   C     C_R   0.191526 0.371356 0.441072 0.004034
C61   C     C_R   0.397753 0.509009 0.711599 0.546232
C62   C     C_R   0.399720 0.510958 0.661304 -0.331947
C63   C     C_R   0.598721 0.499931 0.681883 -0.219673
C64   C     C_3   0.228748 0.447653 0.705727 0.074120
C65   C     C_3   0.122404 0.505549 0.675353 -0.326818
C66   C     C_3   0.043232 0.430849 0.650520 -0.951534
C67   C     C_R   0.517605 0.404128 0.873112 -0.071105
C68   C     C_1   0.557118 0.209995 0.878441 0.270723
C69   C     C_1   0.444468 0.189166 0.420940 0.163505
C70   C     C_3   0.869920 0.774012 0.633278 0.077522
C71   C     C_3   0.781120 0.864552 0.614642 -0.369595
C72   C     C_3   0.705814 0.887406 0.650628 -0.901105
C73   C     C_R   0.499966 0.504168 0.646393 -0.096007
C74   C     C_R   0.497981 0.497099 0.353293 -0.034766
H1    H     H_    0.676866 0.495079 0.671108 0.169603
H2    H     H_    0.673679 0.496901 0.759216 0.157396
H3    H     H_    0.236277 0.792957 0.476123 0.159820
H4    H     H_    0.319437 0.094410 0.461303 0.143331
H5    H     H_    0.183031 0.978987 0.463234 0.145893
H6    H     H_    0.613625 0.746914 0.449929 0.192034
H7    H     H_    0.250142 0.332361 0.422222 0.154800
H8    H     H_    0.878320 0.313105 0.420825 0.163560
H9    H     H_    0.061797 0.286670 0.405175 0.153323
H10   H     H_    0.184043 0.554264 0.524693 0.125957
H11   H     H_    0.732584 0.672164 0.571326 0.161405
H12   H     H_    0.606753 0.244078 0.044583 0.146031
H13   H     H_    0.434670 0.757940 0.874862 0.191848
H14   H     H_    0.064454 0.642175 0.554618 0.159445
H15   H     H_    0.746737 0.401326 0.460989 0.214300
H16   H     H_    0.671399 0.513154 0.362743 0.167540
H17   H     H_    0.667760 0.510042 0.274042 0.138520
H18   H     H_    0.377950 0.742733 0.110689 0.191272
H19   H     H_    0.377621 0.746743 0.025126 0.145018
H20   H     H_    0.430193 0.758182 0.959716 0.144276
H21   H     H_    0.323169 0.518215 0.633934 0.163603
H22   H     H_    0.208283 0.403678 0.735962 0.173234
H23   H     H_    0.324422 0.479712 0.330521 0.167439
H24   H     H_    0.265062 0.388791 0.682598 0.132198
H25   H     H_    0.082101 0.556787 0.700014 0.235736
H26   H     H_    0.141182 0.554670 0.646487 0.225834
H27   H     H_    0.079294 0.383219 0.623364 0.269475
H28   H     H_    0.965196 0.474995 0.630718 0.266613
H29   H     H_    0.024730 0.379408 0.678586 0.265996
H30   H     H_    0.925424 0.799248 0.667044 0.175986
H31   H     H_    0.835658 0.706202 0.645563 0.118483
H32   H     H_    0.820955 0.934512 0.610075 0.233673
H33   H     H_    0.730735 0.847337 0.578028 0.229570
H34   H     H_    0.606445 0.245663 0.130086 0.191258
H35   H     H_    0.662793 0.819265 0.654596 0.267106
H36   H     H_    0.643451 0.953930 0.636338 0.272231
H37   H     H_    0.753926 0.907092 0.687420 0.268450
H38   H     H_    0.323027 0.477054 0.242031 0.139331
H39   H     H_    0.550620 0.235419 0.968870 0.141679
H40   H     H_    0.766225 0.201386 0.531181 0.170098
H41   H     H_    0.760635 0.852977 0.475856 0.162536
H42   H     H_    0.818514 0.019197 0.512893 0.149399
N1    N     N_R   0.497578 0.502796 0.797912 -0.337867
N2    N     N_R   0.493409 0.493411 0.201077 -0.358147
N3    N     N_R   0.222180 0.444690 0.474320 -0.103813
N4    N     N_R   0.776980 0.554780 0.525420 -0.146892
N5    N     N_1   0.572733 0.129975 0.861199 -0.168112
N6    N     N_1   0.386389 0.224731 0.385237 -0.213606
O1    O     O_R   0.366730 0.627160 0.487740 -0.614667
O2    O     O_R   0.410930 0.482330 0.420550 -0.616038
O3    O     O_R   0.589030 0.517690 0.436960 -0.650352
O4    O     O_2   0.455185 0.683165 0.794879 -0.548137
O5    O     O_3   0.300204 0.519563 0.727902 -0.638031
O6    O     O_3   0.933894 0.749907 0.597700 -0.645200
O7    O     O_2   0.414978 0.666947 0.195610 -0.554527
O8    O     O_2   0.539834 0.323461 0.797171 -0.559092
O9    O     O_2   0.571617 0.319802 0.208910 -0.554629
O10   O     O_R   0.544830 0.662520 0.504140 -0.625107
O11   O     O_R   0.410970 0.482310 0.563040 -0.618234
O12   O     O_R   0.589070 0.517670 0.579450 -0.616425
O13   O     O_R   0.455170 0.337480 0.495860 -0.605675
O14   O     O_R   0.633270 0.372840 0.512260 -0.635308
Zn1   Zn    Zn3+2 0.381080 0.476390 0.489050 0.952356
Zn2   Zn    Zn3+2 0.618920 0.523610 0.510950 0.920762

loop_
_geom_bond_atom_site_label_1
_geom_bond_atom_site_label_2
_ccdc_geom_bond_type
C10   C27   A    
C42   H6    S    
C8    C13   A    
C22   C29   A    
C71   H33   S    
C41   C42   A    
C66   H28   S    
C35   C36   A    
C25   C67   A    
C1    O10   A    
C28   C74   S    
C13   N2    A    
C53   N4    A    
C7    C8    A    
C39   C41   A    
C30   H42   S    
C16   C31   S    
O11   Zn1   S    
C12   C23   A    
C26   C27   A    
C31   C43   A    
C27   H34   S    
C47   C55   A    
C36   C37   A    
C18   H38   S    
C38   C39   A    
C70   H30   S    
C1    C46   S    
O10   Zn2   S    
C60   N3    A    
C18   C19   A    
C37   C42   A    
C47   C60   A    
C72   H35   S    
C20   C24   A    
C45   C56   A    
C8    C9    A    
C62   C73   A    
C70   C71   S    
C47   H9    S    
C9    C10   A    
C50   H14   S    
C52   N1    A    
C6    H19   S    
C64   H24   S    
C40   N1    A    
C32   H3    S    
C72   H37   S    
C44   H40   S    
C43   C69   S    
C62   H21   S    
C66   H27   S    
C30   C44   A    
C2    C6    A    
C25   C68   S    
C41   H41   S    
C66   H29   S    
C50   C51   A    
C54   C59   A    
C25   C29   A    
C40   C45   A    
C72   H36   S    
C31   C44   A    
C2    C20   A    
N3    Zn1   S    
O2    Zn1   S    
C59   H10   S    
C64   H22   S    
O14   Zn2   S    
C12   C63   A    
C33   H5    S    
C56   H13   S    
C21   C34   A    
C63   C73   A    
C51   C53   A    
C23   N1    S    
C68   N5    T    
C1    O1    A    
C5    C9    A    
C24   H20   S    
C60   H7    S    
C14   C15   A    
C26   H12   S    
C64   O5    S    
C40   O4    S    
C17   C18   A    
C61   O5    S    
C34   C45   A    
C65   H25   S    
C4    C73   S    
C52   C67   A    
C48   C49   A    
C49   C50   A    
C55   C57   A    
C17   C74   A    
C38   C43   A    
C2    C5    A    
N4    Zn2   S    
C16   O14   A    
C28   O3    A    
C48   N4    A    
C4    O12   A    
C70   O6    S    
O13   Zn1   S    
C49   O6    S    
C29   H39   S    
C54   C55   A    
C59   N3    A    
C48   H11   S    
C32   C46   A    
C14   C19   A    
C3    C26   A    
C65   H26   S    
C3    C5    A    
C70   H31   S    
C11   O9    S    
C34   C67   A    
O12   Zn2   S    
C53   C58   A    
C28   O2    A    
C6    C7    A    
O3    Zn2   S    
C24   C56   A    
O1    Zn1   S    
C35   H4    S    
C51   C54   A    
C52   O8    S    
C64   C65   S    
C12   H2    S    
C71   C72   S    
C32   C33   A    
C15   H16   S    
C11   N2    A    
C57   C58   A    
C63   H1    S    
C69   N6    T    
C7    H18   S    
C36   C38   A    
C33   C35   A    
C30   C39   A    
C61   C62   A    
C58   H15   S    
C14   H17   S    
C10   C11   A    
C23   C61   A    
C15   C74   A    
C20   C21   A    
C65   C66   S    
C71   H32   S    
C19   N2    S    
C13   O7    S    
C57   H8    S    
C3    C22   A    
C37   C46   A    
C21   C22   A    
C16   O13   A    
C17   H23   S    
C4    O11   A    
