data_mof_unit_44404.cif
_audit_creation_date              2012-10-26T18:26:14-0400
_audit_creation_method            fapswitch 2.2
_symmetry_space_group_name_H-M    P1
_symmetry_Int_Tables_number       1
_space_group_crystal_system       triclinic
_cell_length_a                    13.828876
_cell_length_b                    8.706971
_cell_length_c                    7.615358
_cell_angle_alpha                 103.816729
_cell_angle_beta                  90.335572
_cell_angle_gamma                 95.4558
_cell_volume                      885.994162539

loop_
_atom_site_label
_atom_site_type_symbol
_atom_type_description
_atom_site_fract_x
_atom_site_fract_y
_atom_site_fract_z
_atom_type_partial_charge
C1    C     C_R   0.497107 0.199912 0.453108 0.540391
C2    C     C_1   0.867614 0.475465 0.439409 0.105676
C3    C     C_2   0.495576 0.030954 0.428222 -0.095797
C4    C     C_2   0.504417 0.969044 0.571779 -0.096062
C5    C     C_R   0.502890 0.800087 0.546892 0.539787
C6    C     C_R   0.319364 0.503955 0.529423 0.557172
C7    C     C_R   0.680637 0.496128 0.470587 0.554195
C8    C     C_1   0.782090 0.485835 0.452212 0.102008
C9    C     C_1   0.217979 0.515093 0.547848 0.090253
C10   C     C_2   0.970095 0.463483 0.429295 0.239669
C11   C     C_2   0.030169 0.539827 0.570188 0.188271
C12   C     C_1   0.132544 0.526493 0.560467 0.062407
Cu1   Cu    Cu3+1 0.510540 0.517220 0.682700 1.218605
Cu2   Cu    Cu3+1 0.489460 0.482780 0.317300 1.221814
H1    H     H_    0.487110 0.957308 0.290953 0.168206
H2    H     H_    0.512882 0.042691 0.709048 0.168574
H3    H     H_    0.111599 0.664871 0.947808 0.382558
H4    H     H_    0.948815 0.211120 0.970099 0.399121
H5    H     H_    0.249321 0.216314 0.068252 0.393187
H6    H     H_    0.750380 0.784963 0.932873 0.393943
N1    N     N_2   0.473570 0.456830 0.042740 0.025048
N2    N     N_2   0.526430 0.543170 0.957260 0.021900
O1    O     O_R   0.506850 0.286020 0.618680 -0.491636
O2    O     O_2   0.922688 0.559812 0.865280 -0.220513
O3    O     O_3   0.081966 0.751560 0.910201 -0.442980
O4    O     O_2   0.086182 0.440989 0.146110 -0.262840
O5    O     O_2   0.058889 0.207561 0.273081 -0.246721
O6    O     O_3   0.918913 0.271099 0.080076 -0.453128
O7    O     O_2   0.288972 0.489577 0.978284 -0.266485
O8    O     O_2   0.355384 0.260268 0.778699 -0.278378
O9    O     O_3   0.319382 0.245013 0.099856 -0.473474
O10   O     O_2   0.644623 0.739696 0.221330 -0.279804
O11   O     O_2   0.711122 0.510567 0.021532 -0.229568
O12   O     O_R   0.493150 0.713980 0.381320 -0.492449
O13   O     O_3   0.680512 0.755141 0.900198 -0.476763
O14   O     O_R   0.489050 0.256940 0.310110 -0.476845
O15   O     O_R   0.510950 0.743060 0.689890 -0.477203
O16   O     O_R   0.372320 0.516630 0.676100 -0.457387
O17   O     O_R   0.627680 0.483370 0.323900 -0.454288
O18   O     O_R   0.354510 0.487550 0.367530 -0.453473
O19   O     O_R   0.645490 0.512450 0.632470 -0.457457
O20   O     O_2   0.931136 0.784853 0.723832 -0.241579
S1    S     S_3+6 0.987924 0.660627 0.770912 0.058065
S2    S     S_3+6 0.012331 0.343229 0.228446 0.057528
S3    S     S_3+6 0.358489 0.364960 0.966069 0.164991
S4    S     S_3+6 0.641511 0.635083 0.033916 0.171461

loop_
_geom_bond_atom_site_label_1
_geom_bond_atom_site_label_2
_ccdc_geom_bond_type
Cu2   O12   S    
C11   C12   S    
C6    O16   A    
C11   S1    S    
C5    O15   A    
O20   S1    D    
O8    S3    D    
Cu1   O15   S    
H5    O9    S    
C5    O12   A    
O3    S1    S    
C6    C9    S    
Cu1   O19   S    
H3    O3    S    
C7    C8    S    
N1    N2    D    
O11   S4    D    
H6    O13   S    
Cu1   O16   S    
O10   S4    D    
Cu2   N1    S    
C4    H2    S    
N2    S4    S    
Cu2   O18   S    
Cu1   N2    S    
C1    O1    A    
N1    S3    S    
C7    O19   A    
Cu2   O14   S    
C9    C12   T    
C6    O18   A    
C10   C11   D    
O4    S2    D    
C3    C4    D    
C2    C10   S    
H4    O6    S    
Cu1   O1    S    
O9    S3    S    
O2    S1    D    
C7    O17   A    
C3    H1    S    
Cu2   O17   S    
Cu1   Cu2   S    
O13   S4    S    
C10   S2    S    
O5    S2    D    
O6    S2    S    
C2    C8    T    
C1    O14   A    
O7    S3    D    
C4    C5    S    
C1    C3    S    
