data_mof_unit_13654.cif
_audit_creation_date              2012-12-10T16:38:04-0500
_audit_creation_method            fapswitch 2.2
_symmetry_space_group_name_H-M    P1
_symmetry_Int_Tables_number       1
_space_group_crystal_system       triclinic
_cell_length_a                    27.979976
_cell_length_b                    18.562189
_cell_length_c                    16.921548
_cell_angle_alpha                 90.004385
_cell_angle_beta                  60.438578
_cell_angle_gamma                 90.000324
_cell_volume                      7644.51004538

loop_
_atom_site_label
_atom_site_type_symbol
_atom_type_description
_atom_site_fract_x
_atom_site_fract_y
_atom_site_fract_z
_atom_type_partial_charge
Br1   Br    Br    0.732514 0.500005 0.580255 -0.473678
Br2   Br    Br    0.621215 0.183641 0.258547 -0.518132
Br3   Br    Br    0.621245 0.816513 0.258500 -0.518138
Br4   Br    Br    0.378755 0.183483 0.741499 -0.518124
Br5   Br    Br    0.267488 0.499995 0.419746 -0.473665
Br6   Br    Br    0.232514 0.000005 0.580255 -0.473687
Br7   Br    Br    0.767488 0.999995 0.419746 -0.473688
Br8   Br    Br    0.878792 0.316374 0.741433 -0.518139
Br9   Br    Br    0.121237 0.683680 0.258556 -0.518137
Br10  Br    Br    0.121245 0.316512 0.258500 -0.518138
Br11  Br    Br    0.878755 0.683483 0.741499 -0.518126
Br12  Br    Br    0.378809 0.816397 0.741427 -0.518143
C1    C     C_R   0.705132 0.276365 0.674183 0.908534
C2    C     C_R   0.083277 0.500000 0.546625 0.081637
C3    C     C_R   0.190393 0.212581 0.908911 0.021248
C4    C     C_R   0.607673 0.304257 0.053713 0.377244
C5    C     C_R   0.392345 0.695764 0.946271 0.377231
C6    C     C_R   0.392339 0.304211 0.946277 0.377213
C7    C     C_R   0.607661 0.695787 0.053722 0.377216
C8    C     C_R   0.107682 0.804265 0.053708 0.377242
C9    C     C_R   0.892335 0.195755 0.946280 0.377235
C10   C     C_R   0.892339 0.804211 0.946277 0.377212
C11   C     C_R   0.107662 0.195786 0.053722 0.377215
C12   C     C_R   0.637180 0.286474 0.097872 -0.185711
C13   C     C_R   0.416726 1.000000 0.453363 0.081640
C14   C     C_R   0.362842 0.713562 0.902105 -0.185696
C15   C     C_R   0.362838 0.286389 0.902113 -0.185700
C16   C     C_R   0.637163 0.713608 0.097886 -0.185702
C17   C     C_R   0.137190 0.786487 0.097866 -0.185719
C18   C     C_R   0.862832 0.213548 0.902113 -0.185699
C19   C     C_R   0.862838 0.786389 0.902113 -0.185701
C20   C     C_R   0.137163 0.213607 0.097886 -0.185703
C21   C     C_R   0.774351 0.286928 0.765362 -0.188465
C22   C     C_R   0.225680 0.713129 0.234612 -0.188452
C23   C     C_R   0.225660 0.286955 0.234628 -0.188458
C24   C     C_R   0.583277 1.000000 0.546623 0.081638
C25   C     C_R   0.774341 0.713044 0.765371 -0.188459
C26   C     C_R   0.274367 0.786964 0.765348 -0.188434
C27   C     C_R   0.725656 0.213075 0.234631 -0.188378
C28   C     C_R   0.725660 0.786955 0.234628 -0.188461
C29   C     C_R   0.274341 0.213044 0.765371 -0.188460
C30   C     C_R   0.805007 0.278738 0.809620 0.228283
C31   C     C_R   0.195022 0.721317 0.190358 0.228269
C32   C     C_R   0.195004 0.278782 0.190365 0.228260
C33   C     C_R   0.804997 0.721215 0.809634 0.228260
C34   C     C_R   0.305021 0.778769 0.809611 0.228296
C35   C     C_R   0.076346 0.370405 0.561430 -0.178409
C36   C     C_R   0.695004 0.221277 0.190366 0.228273
C37   C     C_R   0.695004 0.778783 0.190365 0.228261
C38   C     C_R   0.304997 0.221215 0.809634 0.228260
C39   C     C_R   0.069099 0.105621 0.939227 0.958212
C40   C     C_R   0.930901 0.894379 0.060773 0.958206
C41   C     C_R   0.930905 0.105623 0.060772 0.958235
C42   C     C_R   0.069096 0.894379 0.939227 0.958235
C43   C     C_R   0.569099 0.605621 0.939227 0.958207
C44   C     C_R   0.430901 0.394379 0.060773 0.958209
C45   C     C_R   0.430908 0.605625 0.060770 0.958224
C46   C     C_R   0.923655 0.629594 0.438560 -0.178417
C47   C     C_R   0.569095 0.394377 0.939228 0.958231
C48   C     C_R   0.537167 0.130751 0.533181 0.119048
C49   C     C_R   0.462838 0.869248 0.466802 0.119056
C50   C     C_R   0.462820 0.130753 0.466866 0.119041
C51   C     C_R   0.537184 0.869247 0.533117 0.119051
C52   C     C_R   0.037167 0.630751 0.533182 0.119052
C53   C     C_R   0.962837 0.369248 0.466805 0.119055
C54   C     C_R   0.962820 0.630753 0.466866 0.119029
C55   C     C_R   0.037183 0.369247 0.533120 0.119043
C56   C     C_R   0.517826 0.196137 0.517881 -0.114732
C57   C     C_R   0.923667 0.370407 0.438506 -0.178400
C58   C     C_R   0.482180 0.803862 0.482100 -0.114731
C59   C     C_R   0.482155 0.196138 0.482189 -0.114710
C60   C     C_R   0.517850 0.803861 0.517793 -0.114710
C61   C     C_R   0.017826 0.696137 0.517881 -0.114714
C62   C     C_R   0.982178 0.303862 0.482104 -0.114724
C63   C     C_R   0.982156 0.696138 0.482189 -0.114711
C64   C     C_R   0.017848 0.303861 0.517797 -0.114713
C65   C     C_R   0.480771 0.065427 0.484827 0.051286
C66   C     C_R   0.519234 0.934573 0.515155 0.051294
C67   C     C_R   0.519223 0.065426 0.515193 0.051277
C68   C     C_R   0.076335 0.629593 0.561483 -0.178385
C69   C     C_R   0.480783 0.934573 0.484789 0.051283
C70   C     C_R   0.980771 0.565427 0.484828 0.051280
C71   C     C_R   0.019233 0.434573 0.515158 0.051291
C72   C     C_R   0.019223 0.565426 0.515194 0.051271
C73   C     C_R   0.980782 0.434573 0.484791 0.051278
C74   C     C_R   0.960696 0.500000 0.471394 -0.017547
C75   C     C_R   0.039308 0.499999 0.528592 -0.017545
C76   C     C_R   0.460696 0.000000 0.471393 -0.017546
C77   C     C_R   0.539309 0.999999 0.528590 -0.017545
C78   C     C_R   0.893677 0.434425 0.446999 0.011745
C79   C     C_R   0.576347 0.870405 0.561428 -0.178405
C80   C     C_R   0.106325 0.565574 0.552992 0.011749
C81   C     C_R   0.106328 0.434424 0.552971 0.011757
C82   C     C_R   0.893673 0.565575 0.447021 0.011757
C83   C     C_R   0.393678 0.934425 0.446998 0.011743
C84   C     C_R   0.606325 0.065574 0.552991 0.011746
C85   C     C_R   0.606329 0.934424 0.552970 0.011755
C86   C     C_R   0.393674 0.065575 0.447020 0.011754
C87   C     C_R   0.838911 0.435788 0.460994 -0.175660
C88   C     C_R   0.161090 0.564212 0.539002 -0.175666
C89   C     C_R   0.161091 0.435788 0.538992 -0.175659
C90   C     C_R   0.423656 0.129594 0.438559 -0.178409
C91   C     C_R   0.838910 0.564212 0.461005 -0.175658
C92   C     C_R   0.338911 0.935788 0.460994 -0.175656
C93   C     C_R   0.661090 0.064211 0.539002 -0.175661
C94   C     C_R   0.661091 0.935788 0.538991 -0.175656
C95   C     C_R   0.338910 0.064212 0.461005 -0.175658
C96   C     C_R   0.809849 0.500002 0.484962 0.177189
C97   C     C_R   0.190152 0.499998 0.515036 0.177187
C98   C     C_R   0.309849 0.000002 0.484962 0.177189
C99   C     C_R   0.690152 0.999998 0.515035 0.177185
C100  C     C_R   0.423668 0.870407 0.438504 -0.178409
C101  C     C_R   0.294875 0.723648 0.325811 0.908514
C102  C     C_R   0.576335 0.129593 0.561482 -0.178402
C103  C     C_R   0.720491 0.269098 0.954454 -0.009225
C104  C     C_R   0.279536 0.730950 0.045523 -0.009231
C105  C     C_R   0.279519 0.269074 0.045539 -0.009216
C106  C     C_R   0.720482 0.730924 0.954460 -0.009215
C107  C     C_R   0.220502 0.769121 0.954447 -0.009228
C108  C     C_R   0.779522 0.230924 0.045533 -0.009233
C109  C     C_R   0.779519 0.769074 0.045539 -0.009216
C110  C     C_R   0.220482 0.230924 0.954460 -0.009215
C111  C     C_R   0.778574 0.259607 0.903545 0.021994
C112  C     C_R   0.294871 0.276357 0.325813 0.908520
C113  C     C_R   0.221454 0.740444 0.096432 0.021997
C114  C     C_R   0.221433 0.259619 0.096448 0.021991
C115  C     C_R   0.778568 0.740377 0.903552 0.021991
C116  C     C_R   0.278586 0.759632 0.903537 0.021982
C117  C     C_R   0.721440 0.240416 0.096440 0.021977
C118  C     C_R   0.721433 0.759620 0.096448 0.021991
C119  C     C_R   0.278568 0.240377 0.903552 0.021990
C120  C     C_R   0.807449 0.236175 0.949385 0.017794
C121  C     C_R   0.192576 0.763870 0.050592 0.017790
C122  C     C_R   0.192553 0.236199 0.050608 0.017781
C123  C     C_R   0.705129 0.723643 0.674187 0.908524
C124  C     C_R   0.807448 0.763798 0.949392 0.017781
C125  C     C_R   0.307461 0.736197 0.949377 0.017792
C126  C     C_R   0.692564 0.263849 0.050599 0.017793
C127  C     C_R   0.692553 0.736199 0.050608 0.017781
C128  C     C_R   0.307448 0.263798 0.949392 0.017780
C129  C     C_R   0.634501 0.308541 0.957920 -0.011306
C130  C     C_R   0.365517 0.691484 0.042065 -0.011304
C131  C     C_R   0.365505 0.308518 0.042075 -0.011310
C132  C     C_R   0.634495 0.691481 0.957925 -0.011312
C133  C     C_R   0.134509 0.808552 0.957915 -0.011301
C134  C     C_R   0.205136 0.776372 0.674180 0.908534
C135  C     C_R   0.865505 0.191469 0.042074 -0.011302
C136  C     C_R   0.865505 0.808518 0.042075 -0.011309
C137  C     C_R   0.134495 0.191481 0.957925 -0.011313
C138  C     C_R   0.609094 0.335322 0.907661 -0.090349
C139  C     C_R   0.390915 0.664690 0.092330 -0.090349
C140  C     C_R   0.390902 0.335323 0.092340 -0.090369
C141  C     C_R   0.609098 0.664676 0.907660 -0.090363
C142  C     C_R   0.109099 0.835328 0.907659 -0.090348
C143  C     C_R   0.890906 0.164679 0.092338 -0.090349
C144  C     C_R   0.890902 0.835323 0.092340 -0.090370
C145  C     C_R   0.794867 0.223634 0.325817 0.908525
C146  C     C_R   0.109098 0.164676 0.907660 -0.090365
C147  C     C_R   0.631082 0.317971 0.817465 -0.240146
C148  C     C_R   0.368927 0.682043 0.182528 -0.240140
C149  C     C_R   0.368912 0.317985 0.182539 -0.240111
C150  C     C_R   0.631088 0.682015 0.817461 -0.240100
C151  C     C_R   0.131087 0.817977 0.817462 -0.240158
C152  C     C_R   0.868915 0.182025 0.182537 -0.240159
C153  C     C_R   0.868912 0.817985 0.182539 -0.240115
C154  C     C_R   0.131088 0.182015 0.817461 -0.240105
C155  C     C_R   0.684361 0.293822 0.769465 -0.105092
C156  C     C_R   0.794871 0.776357 0.325813 0.908519
C157  C     C_R   0.315654 0.706206 0.230523 -0.105112
C158  C     C_R   0.315641 0.293812 0.230534 -0.105123
C159  C     C_R   0.684359 0.706187 0.769466 -0.105128
C160  C     C_R   0.184370 0.793837 0.769459 -0.105085
C161  C     C_R   0.815639 0.206178 0.230535 -0.105107
C162  C     C_R   0.815641 0.793812 0.230534 -0.105121
C163  C     C_R   0.184359 0.206187 0.769466 -0.105126
C164  C     C_R   0.716698 0.287101 0.813366 0.038550
C165  C     C_R   0.283326 0.712944 0.186614 0.038546
C166  C     C_R   0.283308 0.287083 0.186631 0.038531
C167  C     C_R   0.205129 0.223643 0.674187 0.908524
C168  C     C_R   0.716692 0.712916 0.813369 0.038531
C169  C     C_R   0.216710 0.787126 0.813357 0.038559
C170  C     C_R   0.783308 0.212907 0.186629 0.038559
C171  C     C_R   0.783308 0.787083 0.186631 0.038531
C172  C     C_R   0.216692 0.212916 0.813369 0.038531
C173  C     C_R   0.692525 0.128813 0.529408 0.941160
C174  C     C_R   0.307476 0.871187 0.470590 0.941136
C175  C     C_R   0.307476 0.128812 0.470589 0.941150
C176  C     C_R   0.692524 0.871188 0.529410 0.941151
C177  C     C_R   0.192525 0.628813 0.529408 0.941198
C178  C     C_R   0.916726 0.500000 0.453365 0.081639
C179  C     C_R   0.807476 0.371187 0.470590 0.941167
C180  C     C_R   0.807476 0.628812 0.470589 0.941148
C181  C     C_R   0.192524 0.371188 0.529410 0.941150
C182  C     C_R   0.690401 0.287445 0.908906 0.021220
C183  C     C_R   0.309623 0.712597 0.091074 0.021230
C184  C     C_R   0.309608 0.287418 0.091088 0.021248
C185  C     C_R   0.690393 0.712581 0.908911 0.021248
C186  C     C_R   0.190412 0.787465 0.908899 0.021204
C187  C     C_R   0.809608 0.212570 0.091085 0.021206
C188  C     C_R   0.809608 0.787418 0.091088 0.021248
Cl1   Cl    Cl    0.535468 0.307448 0.122553 -0.610536
Cl2   Cl    Cl    0.464552 0.692549 0.877435 -0.610556
Cl3   Cl    Cl    0.464548 0.307428 0.877442 -0.610614
Cl4   Cl    Cl    0.535453 0.692571 0.122559 -0.610616
Cl5   Cl    Cl    0.035476 0.807447 0.122548 -0.610531
Cl6   Cl    Cl    0.964543 0.192554 0.877447 -0.610549
Cl7   Cl    Cl    0.964548 0.807428 0.877442 -0.610613
Cl8   Cl    Cl    0.035453 0.192569 0.122559 -0.610606
H1    H     H_    0.031750 0.252889 0.530404 0.146626
H2    H     H_    0.916023 0.679741 0.414677 0.187214
H3    H     H_    0.916029 0.320256 0.414625 0.187202
H4    H     H_    0.083972 0.679744 0.585365 0.187200
H5    H     H_    0.583977 0.820259 0.585314 0.187216
H6    H     H_    0.416023 0.179741 0.414676 0.187214
H7    H     H_    0.416029 0.820256 0.414624 0.187202
H8    H     H_    0.583972 0.179744 0.585365 0.187205
H9    H     H_    0.608460 0.330215 0.782311 0.213364
H10   H     H_    0.391540 0.669785 0.217688 0.213364
H11   H     H_    0.391522 0.330257 0.217702 0.213364
H12   H     H_    0.968255 0.747110 0.469582 0.146630
H13   H     H_    0.608477 0.669744 0.782298 0.213373
H14   H     H_    0.108462 0.830215 0.782311 0.213364
H15   H     H_    0.891531 0.169773 0.217694 0.213366
H16   H     H_    0.891522 0.830257 0.217702 0.213361
H17   H     H_    0.108477 0.169744 0.782298 0.213368
H18   H     H_    0.615854 0.293253 0.170377 0.215001
H19   H     H_    0.384166 0.706783 0.829597 0.214994
H20   H     H_    0.384169 0.293120 0.829600 0.215001
H21   H     H_    0.615833 0.706875 0.170399 0.215001
H22   H     H_    0.115862 0.793263 0.170371 0.215013
H23   H     H_    0.968281 0.252891 0.469481 0.146628
H24   H     H_    0.884159 0.206772 0.829604 0.214998
H25   H     H_    0.884169 0.793120 0.829600 0.215001
H26   H     H_    0.115833 0.206874 0.170399 0.215001
H27   H     H_    0.796240 0.301169 0.694102 0.196519
H28   H     H_    0.203792 0.698887 0.305874 0.196552
H29   H     H_    0.203787 0.301266 0.305858 0.196482
H30   H     H_    0.796214 0.698733 0.694141 0.196482
H31   H     H_    0.296263 0.801210 0.694077 0.196487
H32   H     H_    0.703755 0.198802 0.305906 0.196484
H33   H     H_    0.703787 0.801266 0.305858 0.196481
H34   H     H_    0.031723 0.747109 0.530504 0.146631
H35   H     H_    0.296214 0.198733 0.694141 0.196482
H36   H     H_    0.531751 0.752889 0.530400 0.146625
H37   H     H_    0.468254 0.247111 0.469583 0.146628
H38   H     H_    0.468282 0.752891 0.469477 0.146626
H39   H     H_    0.531723 0.247109 0.530505 0.146628
H40   H     H_    0.083977 0.320259 0.585316 0.187215
O1    O     O_R   0.746490 0.236330 0.638080 -0.638896
O2    O     O_R   0.325830 0.813840 0.483730 -0.661870
O3    O     O_R   0.325830 0.186160 0.483730 -0.661855
O4    O     O_R   0.674170 0.813840 0.516270 -0.661857
O5    O     O_R   0.174170 0.686160 0.516270 -0.661842
O6    O     O_R   0.825830 0.313840 0.483730 -0.661856
O7    O     O_R   0.825830 0.686160 0.483730 -0.661854
O8    O     O_R   0.174170 0.313840 0.516270 -0.661855
O9    O     O_R   0.739960 0.127620 0.525000 -0.572280
O10   O     O_R   0.260040 0.872380 0.475000 -0.572286
O11   O     O_R   0.260040 0.127620 0.475000 -0.572285
O12   O     O_R   0.253510 0.763670 0.361920 -0.638922
O13   O     O_R   0.739960 0.872380 0.525000 -0.572283
O14   O     O_R   0.239960 0.627620 0.525000 -0.572276
O15   O     O_R   0.760040 0.372380 0.475000 -0.572282
O16   O     O_R   0.760040 0.627620 0.475000 -0.572285
O17   O     O_R   0.239960 0.372380 0.525000 -0.572286
O18   O     O_R   0.680700 0.294870 0.629350 -0.607894
O19   O     O_R   0.319300 0.705130 0.370650 -0.607888
O20   O     O_R   0.319300 0.294870 0.370650 -0.607883
O21   O     O_R   0.680700 0.705130 0.629350 -0.607880
O22   O     O_R   0.180700 0.794870 0.629350 -0.607895
O23   O     O_R   0.253510 0.236330 0.361920 -0.638855
O24   O     O_R   0.819300 0.205130 0.370650 -0.607895
O25   O     O_R   0.819300 0.794870 0.370650 -0.607884
O26   O     O_R   0.180700 0.205130 0.629350 -0.607882
O27   O     O_R   0.062020 0.072840 0.007170 -0.593132
O28   O     O_R   0.937980 0.927160 0.992830 -0.593128
O29   O     O_R   0.937980 0.072840 0.992830 -0.593152
O30   O     O_R   0.062020 0.927160 0.007170 -0.593155
O31   O     O_R   0.562020 0.572840 0.007170 -0.593134
O32   O     O_R   0.437980 0.427160 0.992830 -0.593127
O33   O     O_R   0.437980 0.572840 0.992830 -0.593148
O34   O     O_R   0.746490 0.763670 0.638080 -0.638854
O35   O     O_R   0.562020 0.427160 0.007170 -0.593154
O36   O     O_R   0.947860 0.073950 0.109290 -0.593099
O37   O     O_R   0.052140 0.926050 0.890710 -0.593099
O38   O     O_R   0.052140 0.073950 0.890710 -0.593103
O39   O     O_R   0.947860 0.926050 0.109290 -0.593110
O40   O     O_R   0.447860 0.573950 0.109290 -0.593098
O41   O     O_R   0.552140 0.426050 0.890710 -0.593100
O42   O     O_R   0.552140 0.573950 0.890710 -0.593098
O43   O     O_R   0.447860 0.426050 0.109290 -0.593105
O44   O     O_R   0.246490 0.736330 0.638080 -0.638880
O45   O     O_R   0.753510 0.263670 0.361920 -0.638883
O46   O     O_R   0.753510 0.736330 0.361920 -0.638855
O47   O     O_R   0.246490 0.263670 0.638080 -0.638854
O48   O     O_R   0.674170 0.186160 0.516270 -0.661863
Zn1   Zn    Zn3+2 0.792340 0.208750 0.507670 1.013626
Zn2   Zn    Zn3+2 0.494040 0.500000 0.919480 1.087519
Zn3   Zn    Zn3+2 0.005960 0.000000 0.080520 1.087513
Zn4   Zn    Zn3+2 0.994040 0.000000 0.919480 1.087514
Zn5   Zn    Zn3+2 0.207660 0.791250 0.492330 1.013629
Zn6   Zn    Zn3+2 0.207660 0.208750 0.492330 1.013638
Zn7   Zn    Zn3+2 0.792340 0.791250 0.507670 1.013639
Zn8   Zn    Zn3+2 0.292340 0.708750 0.507670 1.013624
Zn9   Zn    Zn3+2 0.707660 0.291250 0.492330 1.013627
Zn10  Zn    Zn3+2 0.707660 0.708750 0.492330 1.013639
Zn11  Zn    Zn3+2 0.292340 0.291250 0.507670 1.013638
Zn12  Zn    Zn3+2 0.505960 0.500000 0.080520 1.087513

loop_
_geom_bond_atom_site_label_1
_geom_bond_atom_site_label_2
_ccdc_geom_bond_type
C24   C77   A    
C17   C121  A    
C112  O23   A    
C43   O31   A    
C44   O32   A    
O32   Zn2   S    
C50   C65   A    
C71   C75   A    
O17   Zn11  S    
O5    Zn5   S    
C40   O39   A    
C48   C67   A    
C20   H26   S    
O13   Zn7   S    
C26   C169  A    
O14   Zn8   S    
C158  C166  A    
C17   H22   S    
C47   C138  S    
C39   C146  S    
C100  H7    S    
C176  O4    A    
C52   C72   A    
C119  C128  A    
C104  C183  A    
C45   O33   A    
C150  C159  A    
C65   C76   A    
C30   C111  A    
C24   C85   A    
C57   H3    S    
C135  C143  A    
C105  C114  A    
O8    Zn6   S    
C107  C116  A    
C23   C166  A    
C11   C137  A    
C88   C97   A    
C42   O30   A    
C61   C63   A    
C84   C102  A    
O26   Zn6   S    
C45   O40   A    
O27   Zn3   S    
C65   C67   A    
C66   C77   A    
C103  C111  A    
C138  C147  A    
C102  H8    S    
C134  O22   A    
C115  C124  A    
O15   Zn9   S    
C74   C178  A    
C81   C89   A    
C136  C188  A    
C86   C90   A    
C145  O24   A    
C112  O20   A    
C13   C76   A    
C5    C130  A    
C130  C139  A    
C68   C80   A    
C82   C178  A    
C54   C70   A    
C14   H19   S    
C3    C172  A    
C35   C81   A    
C152  C161  A    
C173  O48   A    
C151  C160  A    
O46   Zn10  S    
C10   C136  A    
C161  C170  A    
C13   C83   A    
C70   C72   A    
C149  H11   S    
C95   C98   A    
C36   C117  A    
C59   H37   S    
C25   C33   A    
C3    C137  A    
C1    O1    A    
C41   O36   A    
C25   C168  A    
C165  C183  A    
C156  O46   A    
C170  C187  A    
C19   C124  A    
O33   Zn2   S    
C42   C142  S    
C47   O41   A    
C92   C174  S    
O36   Zn3   S    
C79   H5    S    
O6    Zn1   S    
C92   C98   A    
C44   O43   A    
C110  C119  A    
O2    Zn8   S    
C131  C184  A    
C147  C155  A    
C177  O14   A    
C175  O3    A    
C69   C76   A    
C38   C119  A    
C114  C122  A    
O3    Zn11  S    
C51   C79   A    
O43   Zn12  S    
C22   C165  A    
C177  O5    A    
C55   C71   A    
C111  C120  A    
C107  C186  A    
C39   O38   A    
C48   C102  A    
C23   H29   S    
C109  C118  A    
C14   C125  A    
C1    O18   A    
C31   C113  A    
C73   C74   A    
C42   O37   A    
C156  C162  S    
C87   C96   A    
C175  O11   A    
C62   C64   A    
C21   C30   A    
C144  C153  A    
C6    C131  A    
C28   C37   A    
C123  O21   A    
C108  C187  A    
C110  C122  A    
C160  C169  A    
C148  H10   S    
C61   H34   S    
C52   C61   A    
C29   C172  A    
C101  O12   A    
C137  C146  A    
C2    C81   A    
C140  C149  A    
C68   H4    S    
C28   C171  A    
O7    Zn7   S    
C16   C127  A    
C8    Cl5   S    
C157  C165  A    
C129  C138  A    
O22   Zn5   S    
C94   C99   A    
Br9   C31   S    
C179  O6    A    
Br10  C32   S    
C108  C117  A    
Br12  C34   S    
C153  C162  A    
C166  C184  A    
C176  O13   A    
C53   C62   A    
C33   C115  A    
C9    Cl6   S    
C150  H13   S    
C130  C183  A    
C7    C16   A    
C6    Cl3   S    
C133  C142  A    
C103  C182  A    
C41   C143  S    
C104  C113  A    
O37   Zn4   S    
C106  C115  A    
C78   C87   A    
O20   Zn11  S    
O35   Zn12  S    
C104  C125  A    
C78   C178  A    
C43   C141  S    
C47   O35   A    
C22   C31   A    
C37   C118  A    
C171  C188  A    
C39   O27   A    
C4    C129  A    
C133  C186  A    
C49   C69   A    
C20   C122  A    
C25   H30   S    
C154  H17   S    
C18   C120  A    
C45   C139  S    
C50   C59   A    
C26   C34   A    
C27   C170  A    
C43   O42   A    
C27   C36   A    
C49   C100  A    
C50   C90   A    
C51   C66   A    
C49   C58   A    
O47   Zn11  S    
C84   C93   A    
C7    C132  A    
C3    C110  A    
C60   H36   S    
C135  C187  A    
O42   Zn2   S    
C40   O28   A    
C41   O29   A    
C19   H25   S    
C154  C163  A    
O39   Zn3   S    
C29   H35   S    
C83   C100  A    
C89   C97   A    
O48   Zn9   S    
C145  O45   A    
C21   C164  A    
C90   H6    S    
C132  C185  A    
C148  C157  A    
C123  C159  S    
C44   C140  S    
C28   H33   S    
C21   H27   S    
C93   C99   A    
C52   C68   A    
O19   Zn8   S    
C118  C127  A    
C35   H40   S    
O28   Zn4   S    
C89   C181  S    
O12   Zn5   S    
C101  C157  S    
Br2   C36   S    
C70   C74   A    
C86   C95   A    
Br4   C38   S    
C109  C188  A    
O29   Zn4   S    
O30   Zn3   S    
C180  O7    A    
C79   C85   A    
O34   Zn7   S    
C58   H38   S    
C85   C94   A    
C173  O9    A    
C131  C140  A    
C71   C73   A    
C82   C91   A    
Br11  C33   S    
C105  C128  A    
O41   Zn2   S    
C4    Cl1   S    
O16   Zn10  S    
C29   C38   A    
C146  C154  A    
C151  H14   S    
C162  C171  A    
C9    C18   A    
O11   Zn6   S    
O4    Zn10  S    
C141  C150  A    
C11   C20   A    
C180  O16   A    
C87   C179  S    
C66   C69   A    
O31   Zn12  S    
Br5   C97   S    
C63   H12   S    
C56   C59   A    
C53   C57   A    
C54   C63   A    
C7    Cl4   S    
Br7   C99   S    
C10   Cl7   S    
C109  C124  A    
C5    Cl2   S    
C174  O2    A    
O21   Zn10  S    
C51   C60   A    
C48   C56   A    
C167  O47   A    
C8    C133  A    
C136  C144  A    
O23   Zn6   S    
C164  C182  A    
O18   Zn9   S    
C16   H21   S    
C123  O34   A    
C153  H16   S    
C145  C161  S    
C163  C172  A    
C64   H1    S    
O1    Zn1   S    
C134  C160  S    
C11   Cl8   S    
C88   C177  S    
C72   C75   A    
C22   H28   S    
C101  O19   A    
Br3   C37   S    
C32   C114  A    
C107  C121  A    
C5    C14   A    
C9    C135  A    
C34   C116  A    
Br8   C30   S    
C2    C75   A    
C15   H20   S    
C1    C155  S    
C93   C173  S    
C95   C175  S    
C18   H24   S    
C132  C141  A    
C168  C185  A    
C26   H31   S    
C134  O44   A    
C46   C54   A    
O40   Zn12  S    
C117  C126  A    
C147  H9    S    
C91   C96   A    
C4    C12   A    
Br6   C98   S    
O38   Zn4   S    
C12   H18   S    
C169  C186  A    
C35   C55   A    
C27   H32   S    
C8    C17   A    
C46   H2    S    
C56   H39   S    
C67   C77   A    
C10   C19   A    
C181  O8    A    
C142  C151  A    
C163  C167  S    
C167  O26   A    
C12   C126  A    
C179  O15   A    
C116  C125  A    
O45   Zn9   S    
C24   C84   A    
C103  C126  A    
C113  C121  A    
C23   C32   A    
C2    C80   A    
C156  O25   A    
C149  C158  A    
C159  C168  A    
C57   C78   A    
C152  H15   S    
C83   C92   A    
C80   C88   A    
O9    Zn1   S    
O10   Zn5   S    
C108  C120  A    
C6    C15   A    
O25   Zn7   S    
C53   C73   A    
C55   C64   A    
C143  C152  A    
C40   C144  S    
C15   C128  A    
C62   H23   S    
C181  O17   A    
C139  C148  A    
C46   C82   A    
C94   C176  S    
C105  C184  A    
C174  O10   A    
O44   Zn8   S    
C129  C182  A    
Br1   C96   S    
C13   C86   A    
C112  C158  S    
C58   C60   A    
C91   C180  S    
C106  C185  A    
O24   Zn1   S    
C106  C127  A    
C155  C164  A    
