data_mof_unit_17002.cif
_audit_creation_date              2013-03-05T16:11:05-0500
_audit_creation_method            fapswitch 2.2
_symmetry_space_group_name_H-M    P1
_symmetry_Int_Tables_number       1
_space_group_crystal_system       triclinic
_cell_length_a                    12.009119
_cell_length_b                    10.042402
_cell_length_c                    10.626239
_cell_angle_alpha                 91.020032
_cell_angle_beta                  92.555364
_cell_angle_gamma                 90.022115
_cell_volume                      1280.05056536

loop_
_atom_site_label
_atom_site_type_symbol
_atom_site_description
_atom_site_fract_x
_atom_site_fract_y
_atom_site_fract_z
_atom_type_partial_charge
O1    O     O_R   0.317570 0.620260 0.500070 -0.487513
O2    O     O_R   0.317570 0.379740 0.500070 -0.519950
C1    C     C_R   0.260738 0.501111 0.503860 0.861748
O3    O     O_R   0.499850 0.620240 0.316900 -0.550088
O4    O     O_R   0.499850 0.379760 0.316900 -0.559135
C2    C     C_R   0.500341 0.498333 0.261487 0.862834
Cu1   Cu    Cu3+1 0.499860 0.642410 0.500060 1.139405
Cu2   Cu    Cu3+1 0.499860 0.357590 0.500060 1.134475
O5    O     O_R   0.682190 0.620260 0.500030 -0.514837
O6    O     O_R   0.682190 0.379740 0.500030 -0.509681
O7    O     O_R   0.499910 0.620280 0.683200 -0.549810
O8    O     O_R   0.499910 0.379720 0.683200 -0.532993
C3    C     C_R   0.739875 0.500729 0.503061 0.961390
C4    C     C_R   0.498313 0.501621 0.738579 0.862283
C5    C     C_3   0.583640 0.572958 0.049462 -0.159024
C6    C     C_3   0.402178 0.547661 0.042050 -0.193325
C7    C     C_3   0.485867 0.626177 0.966507 0.352890
H1    H     H_    0.653290 0.634722 0.089447 0.258807
H2    H     H_    0.322719 0.586925 0.077311 0.236169
C8    C     C_3   0.496778 0.505780 0.876448 -0.150384
C9    C     C_3   0.594569 0.451924 0.958189 -0.122481
C10   C     C_3   0.412993 0.426760 0.950568 -0.200433
C11   C     C_3   0.510769 0.373408 0.033648 0.359303
C12   C     C_3   0.500059 0.493931 0.123612 -0.149026
H3    H     H_    0.674012 0.412219 0.923429 0.265095
H4    H     H_    0.342071 0.366683 0.910869 0.250005
C13   C     C_3   0.072681 0.628006 0.597137 0.315150
C14   C     C_3   0.074621 0.370671 0.567083 0.288084
C15   C     C_3   0.936224 0.611565 0.615469 0.285988
C16   C     C_3   0.939148 0.356718 0.548747 0.292556
H5    H     H_    0.105893 0.592014 0.317753 0.260913
H6    H     H_    0.082851 0.435447 0.313377 0.258103
C17   C     C_3   0.062568 0.519346 0.374429 -0.455298
C18   C     C_3   0.122034 0.505396 0.511563 -0.300754
C19   C     C_3   0.880319 0.503599 0.506806 -0.450896
C20   C     C_3   0.929100 0.539546 0.366569 0.424249
C21   C     C_3   0.616334 0.084256 0.506151 0.295016
C22   C     C_3   0.614522 0.918511 0.523145 0.315122
H7    H     H_    0.501837 0.093217 0.700156 0.197551
H8    H     H_    0.472833 0.880725 0.697195 0.203665
C23   C     C_3   0.450109 0.079090 0.614545 0.152514
C24   C     C_3   0.441762 0.922236 0.607705 0.111760
C25   C     C_3   0.444154 0.081114 0.387944 0.089451
C26   C     C_3   0.455404 0.922134 0.378434 0.143052
N1    N     N_3   0.500250 0.143650 0.502780 -0.334982
N2    N     N_3   0.500250 0.856350 0.502780 -0.323565
H9    H     H_    0.483751 0.119150 0.304443 0.182557
H10   H     H_    0.516437 0.909396 0.305578 0.139923
Br1   Br    Br    0.465917 0.814366 0.941316 -0.257740
N3    N     N_R   0.900991 0.673833 0.317518 0.192157
O9    O     O_R   0.816760 0.682400 0.236457 -0.256180
O10   O     O_R   0.977535 0.762981 0.303381 -0.170151
N4    N     N_R   0.880578 0.452540 0.264350 0.189138
O11   O     O_R   0.931237 0.442341 0.158560 -0.202717
O12   O     O_R   0.774992 0.422757 0.260846 -0.324582
N5    N     N_R   0.686422 0.141247 0.610075 0.188222
O13   O     O_R   0.780367 0.084043 0.637961 -0.153466
O14   O     O_R   0.646419 0.217502 0.696317 -0.277572
N6    N     N_R   0.661621 0.878023 0.651735 0.180456
O15   O     O_R   0.673117 0.754522 0.677710 -0.239601
O16   O     O_R   0.651288 0.952055 0.752633 -0.270769
Br2   Br    Br    0.689824 0.146956 0.352133 -0.204946
Br3   Br    Br    0.701097 0.851005 0.386767 -0.217703
N7    N     N_R   0.329798 0.124256 0.370557 0.221393
O17   O     O_R   0.252188 0.048600 0.411864 -0.150509
O18   O     O_R   0.305805 0.200688 0.275166 -0.248713
N8    N     N_R   0.358622 0.863756 0.305450 0.221854
O19   O     O_R   0.327025 0.742260 0.314583 -0.273666
O20   O     O_R   0.327589 0.921228 0.200611 -0.220670
Br4   Br    Br    0.336253 0.172571 0.695089 -0.240391
Br5   Br    Br    0.302557 0.866863 0.630969 -0.161655
Br6   Br    Br    0.529495 0.185035 0.060505 -0.250533
N9    N     N_R   0.093193 0.758679 0.538422 0.204751
O21   O     O_R   0.149485 0.770518 0.438106 -0.213592
O22   O     O_R   0.074592 0.868755 0.601542 -0.112628
N10   N     N_R   0.124089 0.252549 0.509826 0.195529
O23   O     O_R   0.120916 0.140621 0.569640 -0.119319
O24   O     O_R   0.134636 0.246224 0.389499 -0.235387
Br7   Br    Br    0.158783 0.656729 0.760687 -0.227583
Br8   Br    Br    0.134002 0.356883 0.744065 -0.238190
N11   N     N_R   0.905482 0.568374 0.743969 0.178695
O25   O     O_R   0.974696 0.529447 0.832607 -0.196449
O26   O     O_R   0.804153 0.589258 0.778546 -0.249899
N12   N     N_R   0.898932 0.311549 0.671342 0.183895
O27   O     O_R   0.806669 0.354487 0.714271 -0.270606
O28   O     O_R   0.943636 0.209175 0.728010 -0.119451
N13   N     N_R   0.888136 0.747325 0.611335 0.183731
O29   O     O_R   0.890613 0.816993 0.511431 -0.209786
O30   O     O_R   0.887170 0.816727 0.716490 -0.122952
N14   N     N_R   0.914055 0.242015 0.457320 0.177968
O31   O     O_R   0.920673 0.121269 0.498016 -0.118255
O32   O     O_R   0.933488 0.244997 0.338972 -0.198011

loop_
_geom_bond_atom_site_label_1
_geom_bond_atom_site_label_2
_geom_bond_distance
_ccdc_geom_bond_type
C5    H1    1.106077 S    
N13   O29   1.283209 A    
C13   C15   1.667354 S    
C23   C24   1.578516 S    
C19   C20   1.670624 S    
C16   N14   1.515028 S    
C7    C8    1.537852 S    
C21   Br2   2.004738 S    
Cu1   Cu2   2.860276 S    
H7    C23   1.085622 S    
N4    O11   1.304320 A    
Cu1   O7    1.962639 S    
C16   C19   1.694001 S    
N10   O24   1.290936 A    
C3    C19   1.685535 S    
C13   Br7   1.998611 S    
C24   N2    1.489359 S    
O4    C2    1.337882 A    
O7    C4    1.338876 A    
C17   C20   1.614345 S    
N5    O13   1.291286 A    
C5    C7    1.538280 S    
N9    O21   1.294665 A    
O5    C3    1.386311 A    
Cu2   N1    2.149184 S    
C20   N4    1.480607 S    
C21   N5    1.466206 S    
C9    C11   1.539898 S    
C6    C7    1.539492 S    
N3    O10   1.298265 A    
C11   C12   1.537943 S    
H5    C17   1.099668 S    
H8    C24   1.095397 S    
C14   C18   1.600177 S    
N6    O15   1.281551 A    
C6    C12   1.533075 S    
N9    O22   1.307247 A    
O3    Cu1   1.955048 S    
N11   O26   1.302717 A    
C26   N2    1.562137 S    
C25   N7    1.445168 S    
N3    O9    1.302917 A    
N4    O12   1.301445 A    
C13   C18   1.644083 S    
N6    O16   1.304304 A    
C15   N13   1.481428 S    
N8    O19   1.284222 A    
Cu1   N2    2.148152 S    
C4    C8    1.465812 S    
N10   O23   1.302476 A    
O3    C2    1.349137 A    
C7    Br1   1.926996 S    
C1    C18   1.671893 S    
N11   O25   1.293988 A    
O1    C1    1.379379 A    
N7    O18   1.304415 A    
C25   C26   1.604076 S    
C15   N11   1.501625 S    
C21   C22   1.677683 S    
N14   O32   1.290124 A    
Cu2   O8    1.954777 S    
C2    C12   1.464824 S    
C17   C18   1.602383 S    
N12   O27   1.288451 A    
C25   N1    1.495455 S    
C5    C12   1.533068 S    
O8    C4    1.349317 A    
N13   O30   1.306875 A    
C21   N1    1.515727 S    
C14   N10   1.461954 S    
C20   N3    1.487933 S    
C22   Br3   1.934052 S    
Cu1   O5    2.200991 S    
C9    H3    1.109990 S    
C6    C10   1.550923 S    
O1    Cu1   2.200333 S    
C11   Br6   1.929877 S    
O2    Cu2   2.200503 S    
C8    C10   1.534533 S    
O6    C3    1.397562 A    
O4    Cu2   1.962923 S    
C15   C19   1.686810 S    
N7    O17   1.298611 A    
C14   C16   1.635546 S    
O2    C1    1.397997 A    
H6    C17   1.088520 S    
N14   O31   1.295897 A    
C6    H2    1.110563 S    
C24   Br5   1.790543 S    
N5    O14   1.292905 A    
C16   N12   1.487636 S    
C14   Br8   1.988553 S    
C22   N2    1.512546 S    
C22   N6    1.517702 S    
C5    C9    1.550734 S    
C8    C9    1.533767 S    
Cu2   O6    2.200821 S    
C10   H4    1.107180 S    
C23   N1    1.511388 S    
C10   C11   1.539512 S    
N12   O28   1.304376 A    
C26   N8    1.482880 S    
N8    O20   1.303510 A    
C13   N9    1.488158 S    
C25   H9    1.099491 S    
C26   H10   1.095482 S    
C23   Br4   1.886831 S    
