data_mof_unit_59070.cif
_audit_creation_date              2013-03-05T16:34:03-0500
_audit_creation_method            fapswitch 2.2
_symmetry_space_group_name_H-M    P1
_symmetry_Int_Tables_number       1
_space_group_crystal_system       triclinic
_cell_length_a                    9.559384
_cell_length_b                    10.864966
_cell_length_c                    17.008159
_cell_angle_alpha                 88.522156
_cell_angle_beta                  93.989172
_cell_angle_gamma                 90.229106
_cell_volume                      1761.63757202

loop_
_atom_site_label
_atom_site_type_symbol
_atom_site_description
_atom_site_fract_x
_atom_site_fract_y
_atom_site_fract_z
_atom_type_partial_charge
O1    O     O_R   0.618810 0.319640 0.500000 -0.583441
O2    O     O_R   0.381230 0.319680 0.499990 -0.564642
C1    C     C_R   0.499646 0.262804 0.498596 0.819043
O3    O     O_R   0.631790 0.498830 0.613930 -0.587627
O4    O     O_R   0.394210 0.498870 0.613920 -0.508561
C2    C     C_R   0.517587 0.502187 0.650996 0.866891
Cu1   Cu    Cu3+1 0.640670 0.499980 0.500000 1.016147
Cu2   Cu    Cu3+1 0.359330 0.500020 0.500000 1.075909
O5    O     O_R   0.618770 0.680320 0.500010 -0.575215
O6    O     O_R   0.381190 0.680360 0.500000 -0.557308
O7    O     O_R   0.605790 0.501130 0.386080 -0.588644
O8    O     O_R   0.368210 0.501170 0.386070 -0.591571
C3    C     C_R   0.500140 0.737213 0.500212 0.849662
C4    C     C_R   0.482657 0.497955 0.348988 0.838333
C5    C     C_R   0.528813 0.505974 0.737535 -0.139473
C6    C     C_R   0.420744 0.555437 0.780078 0.324464
C7    C     C_R   0.430836 0.544636 0.862394 -0.200512
C8    C     C_R   0.549176 0.490440 0.902876 0.325662
C9    C     C_R   0.659259 0.449560 0.860772 -0.106509
C10   C     C_R   0.648612 0.455614 0.778762 -0.224498
C11   C     C_R   0.580959 0.416016 0.145640 0.344678
C12   C     C_R   0.587926 0.433992 0.227048 -0.259271
C13   C     C_R   0.459453 0.455651 0.099114 0.270668
N1    N     N_2   0.562721 0.481918 0.986129 -0.170361
N2    N     N_2   0.449574 0.458309 0.015596 -0.203530
C14   C     C_R   0.474068 0.483871 0.263127 -0.099423
H1    H     H_    0.751983 0.409932 0.891636 0.197158
C15   C     C_R   0.351239 0.513819 0.217207 -0.148704
C16   C     C_R   0.344500 0.500276 0.135992 -0.179945
H2    H     H_    0.261260 0.550075 0.243505 0.194971
H3    H     H_    0.250410 0.528411 0.101069 0.190863
C17   C     C_R   0.621549 0.062634 0.499565 0.000904
C18   C     C_R   0.498308 0.130215 0.496622 -0.088874
C19   C     C_R   0.370897 0.064031 0.492881 -0.102193
H4    H     H_    0.271218 0.111025 0.487532 0.228963
C20   C     C_R   0.371233 0.935012 0.495446 -0.072930
H5    H     H_    0.271811 0.887048 0.494009 0.226640
C21   C     C_R   0.498964 0.869800 0.499741 -0.083395
C22   C     C_R   0.621875 0.938210 0.501969 -0.005900
C23   C     C_3   0.778180 0.929730 0.505495 0.095873
C24   C     C_3   0.777910 0.072076 0.502089 0.104238
H6    H     H_    0.818284 0.884913 0.453529 0.166142
H7    H     H_    0.825107 0.117185 0.555675 0.157358
C25   C     C_R   0.068948 0.590462 0.460058 0.186534
N3    N     N_R   0.147870 0.500930 0.499500 -0.279101
C26   C     C_R   0.078459 0.420509 0.547735 0.446462
C27   C     C_R   0.929856 0.420989 0.547238 -0.025898
H8    H     H_    0.877201 0.355768 0.584306 0.152113
N4    N     N_R   0.851960 0.500890 0.499500 -0.211265
C28   C     C_R   0.921576 0.589057 0.459152 0.243242
C29   C     C_3   0.903973 0.617053 0.372830 -0.511091
C30   C     C_3   0.063283 0.620581 0.373738 0.103643
H9    H     H_    0.851163 0.706799 0.359322 0.231616
H10   H     H_    0.680456 0.404122 0.262725 0.208617
N5    N     N_R   0.837173 0.878987 0.581134 0.151731
O9    O     O_R   0.940483 0.801291 0.582693 -0.298477
O10   O     O_R   0.790002 0.912718 0.647264 -0.303864
N6    N     N_R   0.827201 0.122856 0.428355 0.151068
O11   O     O_R   0.771323 0.088528 0.360374 -0.308566
O12   O     O_R   0.930458 0.201198 0.430434 -0.338225
N7    N     N_R   0.153326 0.334218 0.599311 0.133971
O13   O     O_R   0.188720 0.366549 0.671047 -0.312392
O14   O     O_R   0.136914 0.217585 0.586071 -0.356291
H11   H     H_    0.857989 0.538745 0.339069 0.205390
H12   H     H_    0.107601 0.547201 0.338826 0.127143
N8    N     N_R   0.693631 0.352615 0.112282 0.146894
O15   O     O_R   0.666315 0.269045 0.059894 -0.290091
O16   O     O_R   0.821681 0.364331 0.142540 -0.323395
N9    N     N_R   0.118826 0.743758 0.357423 0.159636
O17   O     O_R   0.069673 0.840173 0.390001 -0.342427
O18   O     O_R   0.220074 0.757526 0.310713 -0.348925
H13   H     H_    0.733347 0.418646 0.747491 0.197330
H14   H     H_    0.348753 0.582700 0.895209 0.195891
N10   N     N_R   0.304612 0.622034 0.741490 0.159408
O19   O     O_R   0.326631 0.706189 0.687874 -0.318041
O20   O     O_R   0.181182 0.614253 0.769078 -0.284676

loop_
_geom_bond_atom_site_label_1
_geom_bond_atom_site_label_2
_geom_bond_distance
_ccdc_geom_bond_type
N8    O16   1.301505 A    
N5    O9    1.300195 A    
C11   N8    1.437925 S    
C9    C10   1.391351 A    
Cu1   Cu2   2.689439 S    
C27   N4    1.360908 A    
N3    C26   1.382358 A    
Cu1   O7    1.942783 S    
N10   O20   1.301420 A    
C8    N1    1.413564 S    
C13   C16   1.397092 A    
C20   H5    1.081166 S    
C24   N6    1.464105 S    
C8    C9    1.393729 A    
O4    C2    1.298964 A    
O7    C4    1.296987 A    
C1    C18   1.441822 S    
N6    O12   1.300021 A    
C5    C6    1.417077 A    
N9    O18   1.300002 A    
C19   H4    1.079982 S    
C17   C22   1.351443 A    
N7    O14   1.299749 A    
O5    C3    1.293988 A    
Cu2   N3    2.020915 S    
C30   N9    1.464804 S    
C2    C5    1.469942 S    
C6    C7    1.398583 A    
C17   C24   1.495529 S    
C9    H1    1.083173 S    
C25   C30   1.493243 S    
C23   H6    1.111810 S    
N8    O15   1.301534 A    
C11   C12   1.400258 A    
C7    H14   1.083359 S    
C24   H7    1.112872 S    
N7    O13   1.300092 A    
O3    Cu1   1.945204 S    
C18   C19   1.410371 A    
C11   C13   1.421033 A    
C5    C10   1.405721 A    
N10   O19   1.301566 A    
C26   N7    1.426990 S    
C29   C30   1.522251 S    
N1    N2    1.246378 D    
Cu1   N4    2.020395 S    
C12   H10   1.083236 S    
C22   C23   1.494323 S    
C28   C29   1.489759 S    
N6    O11   1.302305 A    
O1    C1    1.292622 A    
C27   H8    1.082235 S    
Cu2   O8    1.945206 S    
C23   N5    1.463556 S    
C7    C8    1.405908 A    
C4    C14   1.468830 S    
C3    C21   1.440448 S    
O3    C2    1.299173 A    
C23   C24   1.546173 S    
O8    C4    1.301296 A    
N5    O10   1.302240 A    
C6    N10   1.437801 S    
C25   N3    1.366483 A    
C25   C28   1.407823 A    
Cu1   O5    1.971378 S    
C26   C27   1.420019 A    
C15   C16   1.389918 A    
O1    Cu1   1.969669 S    
O2    Cu2   1.971378 S    
C29   H11   1.110816 S    
O6    C3    1.291693 A    
O4    Cu2   1.942783 S    
C14   C15   1.398888 A    
C17   C18   1.387949 A    
C15   H2    1.077224 S    
O2    C1    1.293796 A    
C16   H3    1.083400 S    
C21   C22   1.386602 A    
C20   C21   1.410713 A    
C19   C20   1.401356 A    
C13   N2    1.416601 S    
N9    O17   1.302010 A    
Cu2   O6    1.969669 S    
N4    C28   1.362340 A    
C12   C14   1.403454 A    
C10   H13   1.083466 S    
C29   H9    1.111158 S    
C30   H12   1.108977 S    
