data_mof_unit_58960.cif
_audit_creation_date              2012-12-10T17:36:37-0500
_audit_creation_method            fapswitch 2.2
_symmetry_space_group_name_H-M    P1
_symmetry_Int_Tables_number       1
_space_group_crystal_system       triclinic
_cell_length_a                    12.215076
_cell_length_b                    12.686965
_cell_length_c                    15.645518
_cell_angle_alpha                 91.941067
_cell_angle_beta                  85.818277
_cell_angle_gamma                 93.075996
_cell_volume                      2413.5893482

loop_
_atom_site_label
_atom_site_type_symbol
_atom_type_description
_atom_site_fract_x
_atom_site_fract_y
_atom_site_fract_z
_atom_type_partial_charge
Br1   Br    Br    0.427164 0.240449 0.700683 -0.571742
Br2   Br    Br    0.567001 0.757743 0.298804 -0.566786
C1    C     C_R   0.521628 0.699466 0.495514 0.923907
C2    C     C_R   0.503382 0.019460 0.457963 0.129505
C3    C     C_R   0.956461 0.415153 0.407681 -0.130413
C4    C     C_R   0.047646 0.611308 0.572691 -0.131386
C5    C     C_R   0.840407 0.419549 0.419807 0.056789
C6    C     C_R   0.162049 0.595238 0.569059 0.057528
C7    C     C_R   0.857603 0.541617 0.537282 0.042468
C8    C     C_R   0.141633 0.454765 0.466191 0.044804
C9    C     C_R   0.976172 0.542223 0.525806 -0.032246
C10   C     C_R   0.025351 0.469893 0.465895 -0.033618
C11   C     C_R   0.499722 0.501965 0.661725 0.947228
C12   C     C_R   0.478494 0.300532 0.504571 0.926953
C13   C     C_R   0.499850 0.496789 0.338371 0.947670
C14   C     C_3   0.464311 0.582790 0.034718 0.076220
C15   C     C_3   0.522061 0.397595 0.965806 0.073363
C16   C     C_3   0.565047 0.567572 0.971049 -0.233724
C17   C     C_3   0.421211 0.412908 0.029849 -0.233802
C18   C     C_1   0.497276 0.500711 0.750858 -0.097934
C19   C     C_1   0.499245 0.490745 0.249388 -0.138009
C20   C     C_3   0.390835 0.509617 0.979711 -0.228503
C21   C     C_3   0.595576 0.470910 0.020710 -0.228706
C22   C     C_3   0.492035 0.493364 0.917299 0.159366
C23   C     C_R   0.524099 0.952716 0.386621 -0.261137
C24   C     C_3   0.494667 0.487231 0.083245 0.163486
C25   C     C_1   0.493894 0.497946 0.826378 -0.058796
C26   C     C_1   0.497490 0.487117 0.174027 -0.069705
C27   C     C_R   0.466669 0.190360 0.517871 -0.065943
C28   C     C_R   0.534504 0.809534 0.481973 -0.089744
C29   C     C_R   0.428121 0.684704 0.077174 0.125869
C30   C     C_R   0.485538 0.781223 0.058963 -0.124237
C31   C     C_R   0.451735 0.874814 0.100135 -0.118792
C32   C     C_R   0.360666 0.872735 0.159685 -0.093055
C33   C     C_R   0.302822 0.777111 0.177798 -0.100652
C34   C     C_R   0.480080 0.047752 0.613257 -0.258318
C35   C     C_R   0.336100 0.683443 0.136546 -0.138121
C36   C     C_R   0.557127 0.295254 0.923347 0.126419
C37   C     C_R   0.497376 0.199577 0.940371 -0.122891
C38   C     C_R   0.529964 0.105574 0.899172 -0.122465
C39   C     C_R   0.622187 0.106356 0.840783 -0.099270
C40   C     C_R   0.682287 0.201099 0.823790 -0.099090
C41   C     C_R   0.650139 0.295165 0.865028 -0.131119
C42   C     C_R   0.186451 0.355317 0.429976 0.168790
C43   C     C_R   0.244193 0.350492 0.349034 -0.060348
C44   C     C_R   0.281565 0.254468 0.315095 -0.174034
C45   C     C_R   0.540665 0.847290 0.398358 0.247888
C46   C     C_R   0.259149 0.162079 0.360710 -0.135312
C47   C     C_R   0.201340 0.165907 0.441099 -0.131805
C48   C     C_R   0.165073 0.262068 0.475689 -0.140622
C49   C     C_R   0.804197 0.592734 0.614570 0.175166
C50   C     C_R   0.762814 0.693645 0.611814 -0.060473
C51   C     C_R   0.716887 0.742598 0.686337 -0.158850
C52   C     C_R   0.714064 0.692254 0.764474 -0.129765
C53   C     C_R   0.757355 0.592850 0.768275 -0.156381
C54   C     C_R   0.801974 0.542917 0.693624 -0.142056
C55   C     C_R   0.229244 0.656731 0.630168 0.189200
C56   C     C_R   0.459968 0.152386 0.601399 0.236942
C57   C     C_R   0.257840 0.763863 0.616400 -0.099916
C58   C     C_R   0.296579 0.828688 0.682796 -0.161236
C59   C     C_R   0.311761 0.786644 0.762146 -0.137601
C60   C     C_R   0.283646 0.680301 0.776464 -0.164088
C61   C     C_R   0.239795 0.616271 0.711571 -0.139208
C62   C     C_R   0.772700 0.354128 0.361634 0.191799
C63   C     C_R   0.758901 0.388448 0.278718 -0.097058
C64   C     C_R   0.715070 0.318800 0.217408 -0.146331
C65   C     C_R   0.689202 0.213479 0.237015 -0.134505
C66   C     C_R   0.707121 0.177808 0.318003 -0.179069
C67   C     C_R   0.519284 0.876162 0.553266 -0.346911
C68   C     C_R   0.746905 0.247949 0.380595 -0.141867
C69   C     C_R   0.002809 0.369941 0.324643 0.117395
C70   C     C_R   0.041834 0.438137 0.259005 -0.181028
C71   C     C_R   0.080070 0.397040 0.178947 -0.158166
C72   C     C_R   0.078116 0.287821 0.163500 -0.123133
C73   C     C_R   0.038038 0.219474 0.228089 -0.110161
C74   C     C_R   0.000627 0.260169 0.308481 -0.100097
C75   C     C_R   0.010430 0.711815 0.613929 0.116243
C76   C     C_R   0.997257 0.798403 0.562618 -0.186033
C77   C     C_R   0.971720 0.896251 0.600557 -0.149824
C78   C     C_R   0.485946 0.124382 0.446717 -0.325140
C79   C     C_R   0.960474 0.908658 0.689825 -0.113901
C80   C     C_R   0.974981 0.823319 0.741340 -0.108645
C81   C     C_R   0.000141 0.725244 0.703705 -0.098496
C82   C     C_R   0.502163 0.981211 0.541999 0.142723
H1    H     H_    0.624381 0.629877 0.945604 0.124038
H2    H     H_    0.496392 0.948950 0.086068 0.117498
H3    H     H_    0.335010 0.945159 0.191817 0.106929
H4    H     H_    0.232333 0.775508 0.223952 0.120832
H5    H     H_    0.290723 0.609810 0.151337 0.117362
H6    H     H_    0.425487 0.197209 0.985029 0.109380
H7    H     H_    0.483482 0.032131 0.912320 0.116302
H8    H     H_    0.646970 0.033625 0.808658 0.109514
H9    H     H_    0.753651 0.201716 0.778503 0.118549
H10   H     H_    0.697277 0.367982 0.851105 0.114494
H11   H     H_    0.255897 0.419906 0.310504 0.137175
H12   H     H_    0.362043 0.351427 0.057292 0.127108
H13   H     H_    0.325466 0.251312 0.252488 0.124218
H14   H     H_    0.286851 0.087545 0.333874 0.127720
H15   H     H_    0.184479 0.094341 0.476538 0.134791
H16   H     H_    0.119605 0.263879 0.537759 0.122519
H17   H     H_    0.770162 0.736159 0.552684 0.140759
H18   H     H_    0.686481 0.820892 0.683997 0.124630
H19   H     H_    0.679944 0.731229 0.822144 0.115236
H20   H     H_    0.756765 0.554691 0.829079 0.124068
H21   H     H_    0.835631 0.466084 0.697411 0.114025
H22   H     H_    0.244496 0.798221 0.555809 0.133179
H23   H     H_    0.679474 0.455422 0.038214 0.131140
H24   H     H_    0.312764 0.912006 0.673131 0.153417
H25   H     H_    0.342952 0.836978 0.813079 0.130624
H26   H     H_    0.292775 0.648295 0.838604 0.134259
H27   H     H_    0.212313 0.535537 0.725057 0.136937
H28   H     H_    0.784010 0.468531 0.261332 0.136380
H29   H     H_    0.703974 0.345613 0.153982 0.130781
H30   H     H_    0.657578 0.159023 0.188907 0.131410
H31   H     H_    0.692222 0.095312 0.331895 0.154043
H32   H     H_    0.763256 0.218349 0.442303 0.130398
H33   H     H_    0.042559 0.522914 0.269987 0.130506
H34   H     H_    0.307523 0.525918 0.961201 0.129771
H35   H     H_    0.111007 0.449861 0.128838 0.126668
H36   H     H_    0.107757 0.256156 0.101505 0.120632
H37   H     H_    0.036700 0.134926 0.216083 0.121990
H38   H     H_    0.970795 0.206437 0.358244 0.118593
H39   H     H_    0.007574 0.790099 0.493416 0.131697
H40   H     H_    0.961257 0.962605 0.560753 0.127592
H41   H     H_    0.940780 0.984466 0.719080 0.119122
H42   H     H_    0.966677 0.833120 0.810446 0.120859
H43   H     H_    0.011870 0.659895 0.744249 0.118727
H44   H     H_    0.491068 0.156016 0.382897 0.153982
H45   H     H_    0.514534 0.844654 0.617098 0.146486
H46   H     H_    0.525426 0.981799 0.322160 0.159358
H47   H     H_    0.478876 0.018826 0.677748 0.161021
H48   H     H_    0.556426 0.784578 0.013314 0.108703
N1    N     N_R   0.207800 0.519340 0.515560 -0.137740
N2    N     N_R   0.792200 0.480660 0.484440 -0.138003
O1    O     O_R   0.421700 0.658830 0.504150 -0.613720
O2    O     O_R   0.578300 0.341170 0.495850 -0.621047
O3    O     O_R   0.609310 0.646410 0.494170 -0.622303
O4    O     O_R   0.390690 0.353590 0.505830 -0.597013
O5    O     O_R   0.406210 0.506220 0.628210 -0.610933
O6    O     O_R   0.593790 0.493780 0.371790 -0.605118
O7    O     O_R   0.593830 0.493800 0.618230 -0.609124
O8    O     O_R   0.406170 0.506200 0.381770 -0.632471
Zn1   Zn    Zn3+2 0.374730 0.508290 0.506660 0.963851
Zn2   Zn    Zn3+2 0.625270 0.491710 0.493340 0.962741

loop_
_geom_bond_atom_site_label_1
_geom_bond_atom_site_label_2
_ccdc_geom_bond_type
C53   C54   A    
C71   H35   S    
C64   H29   S    
C40   H9    S    
C71   C72   A    
C7    C49   S    
C8    N1    A    
C31   H2    S    
C59   H25   S    
C79   C80   A    
C51   C52   A    
C42   C43   A    
C14   C29   S    
C15   C21   S    
C16   C22   S    
C11   O5    A    
C33   C35   A    
C65   H30   S    
C2    C78   A    
C34   C56   A    
O4    Zn1   S    
C69   C74   A    
C32   C33   A    
C55   C57   A    
C75   C81   A    
C41   H10   S    
C49   C54   A    
C39   C40   A    
C21   C24   S    
C17   C24   S    
C80   H42   S    
O5    Zn1   S    
C12   O4    A    
C60   H26   S    
C70   H33   S    
C22   C25   S    
C1    O3    A    
C62   C68   A    
C23   C45   A    
C37   H6    S    
C58   H24   S    
C67   H45   S    
C32   H3    S    
C7    N2    A    
O1    Zn1   S    
C64   C65   A    
C57   C58   A    
C23   H46   S    
C55   C61   A    
C14   C24   S    
C54   H21   S    
C44   C46   A    
C50   H17   S    
N1    Zn1   S    
C15   C22   S    
C72   C73   A    
C8    C42   S    
C65   C66   A    
C57   H22   S    
C28   C45   A    
C17   C20   S    
C3    C10   A    
C34   H47   S    
C81   H43   S    
C4    C9    A    
C3    C5    A    
C76   C77   A    
C4    C75   S    
C4    C6    A    
C78   H44   S    
C68   H32   S    
C75   C76   A    
N2    Zn2   S    
C53   H20   S    
C49   C50   A    
C58   C59   A    
C1    C28   S    
C73   C74   A    
C63   H28   S    
C60   C61   A    
C6    C55   S    
C47   H15   S    
C13   O8    A    
C33   H4    S    
C52   H19   S    
C29   C30   A    
C2    C82   A    
C13   C19   S    
C51   H18   S    
C21   H23   S    
C31   C32   A    
C3    C69   S    
C76   H39   S    
C7    C9    A    
C8    C10   A    
C5    N2    A    
C66   C68   A    
C46   C47   A    
C44   H13   S    
C47   C48   A    
C11   O7    A    
C20   C22   S    
O7    Zn2   S    
C40   C41   A    
C12   C27   S    
C43   H11   S    
C2    C23   A    
C30   H48   S    
C28   C67   A    
C46   H14   S    
C50   C51   A    
C77   C79   A    
C13   O6    A    
C42   C48   A    
C20   H34   S    
C52   C53   A    
C38   C39   A    
C14   C20   S    
C11   C18   S    
C79   H41   S    
C6    N1    A    
C73   H37   S    
C48   H16   S    
O3    Zn2   S    
O6    Zn2   S    
C16   H1    S    
C70   C71   A    
C43   C44   A    
C9    C10   A    
C18   C25   T    
Br2   C45   S    
C72   H36   S    
C77   H40   S    
C24   C26   S    
C35   H5    S    
C74   H38   S    
C62   C63   A    
C36   C41   A    
O2    Zn2   S    
C67   C82   A    
Br1   C56   S    
C30   C31   A    
C36   C37   A    
C27   C78   A    
C12   O2    A    
C34   C82   A    
C16   C21   S    
C15   C17   S    
C1    O1    A    
C15   C36   S    
C63   C64   A    
C38   H7    S    
C61   H27   S    
C59   C60   A    
C5    C62   S    
C66   H31   S    
C19   C26   T    
C37   C38   A    
C29   C35   A    
C69   C70   A    
C39   H8    S    
C27   C56   A    
C14   C16   S    
C80   C81   A    
O8    Zn1   S    
C17   H12   S    
