data_mof_unit_25047.cif
_audit_creation_date              2012-12-11T20:21:59-0500
_audit_creation_method            fapswitch 2.2
_symmetry_space_group_name_H-M    P1
_symmetry_Int_Tables_number       1
_space_group_crystal_system       triclinic
_cell_length_a                    8.228444
_cell_length_b                    17.428063
_cell_length_c                    26.925646
_cell_angle_alpha                 99.548839
_cell_angle_beta                  92.919026
_cell_angle_gamma                 81.627193
_cell_volume                      3765.79148025

loop_
_atom_site_label
_atom_site_type_symbol
_atom_type_description
_atom_site_fract_x
_atom_site_fract_y
_atom_site_fract_z
_atom_type_partial_charge
Ba1   Ba    Ba6+2 0.860160 0.462360 0.521850 1.653796
Ba2   Ba    Ba6+2 0.329680 0.537570 0.478140 1.648033
Br1   Br    Br    0.799221 0.101613 0.608595 -0.607817
Br2   Br    Br    0.315288 0.293610 0.132247 -0.486988
C1    C     C_3   0.717316 0.191330 0.657717 0.052098
C2    C     C_R   0.883610 0.571673 0.177452 0.574133
C3    C     C_2   0.750581 0.546986 0.273633 -0.075542
C4    C     C_3   0.192161 0.277219 0.650732 0.299920
C5    C     C_3   0.732061 0.575331 0.329376 -0.053387
C6    C     C_1   0.984784 0.487360 0.342401 0.033325
C7    C     C_2   0.026440 0.485415 0.294756 -0.106410
C8    C     C_2   0.900789 0.513514 0.256244 0.180400
C9    C     C_R   0.025334 0.504835 0.101244 -0.117365
C10   C     C_R   0.089570 0.442226 0.127364 -0.078847
C11   C     C_R   0.201304 0.380018 0.101837 0.316990
C12   C     C_3   0.702971 0.266615 0.635101 0.295125
C13   C     C_R   0.920263 0.568938 0.126546 -0.010121
C14   C     C_2   0.845480 0.526643 0.361158 -0.295064
C15   C     C_2   0.357798 0.487825 0.640201 -0.276706
C16   C     C_3   0.142594 0.263054 0.701699 -0.341698
C17   C     C_R   0.211379 0.438356 0.972720 0.031553
C18   C     C_R   0.045213 0.568429 0.973976 0.019882
C19   C     C_R   0.148772 0.503178 0.948031 0.054179
C20   C     C_R   0.309450 0.373845 0.944390 -0.093803
C21   C     C_R   0.347978 0.373982 0.894548 -0.058145
C22   C     C_R   0.290277 0.438162 0.870180 -0.035424
C23   C     C_3   0.495969 0.667151 0.634698 0.301869
C24   C     C_R   0.190199 0.502862 0.896843 -0.079027
C25   C     C_R   0.131606 0.567368 0.872319 -0.033789
C26   C     C_R   0.173930 0.566634 0.821933 0.589224
C27   C     C_R   0.329408 0.438585 0.819525 0.585488
C28   C     C_3   0.216235 0.298162 0.411263 0.314547
C29   C     C_2   0.468294 0.492150 0.728595 -0.060355
C30   C     C_3   0.507736 0.496013 0.674365 -0.051547
C31   C     C_1   0.211942 0.518063 0.657643 0.038544
C32   C     C_2   0.175087 0.516614 0.704846 -0.102542
C33   C     C_2   0.309976 0.502438 0.743436 0.206750
C34   C     C_3   0.485477 0.698590 0.690823 -0.366570
C35   C     C_R   0.173388 0.439873 0.024369 -0.023870
C36   C     C_R   0.066515 0.504087 0.049869 0.050601
C37   C     C_R   0.000678 0.567991 0.024586 0.032137
C38   C     C_R   0.241140 0.379696 0.051895 -0.107170
C39   C     C_R   0.853543 0.630322 0.100736 -0.051225
C40   C     C_3   0.237197 0.209276 0.396616 -0.365457
C41   C     C_R   0.990579 0.632554 0.948225 -0.099969
C42   C     C_R   0.032615 0.631823 0.898745 -0.057733
C43   C     C_R   0.891319 0.629670 0.051039 -0.100578
C44   C     C_2   0.447958 0.278330 0.513535 -0.270680
C45   C     C_3   0.028743 0.705045 0.345767 0.340841
C46   C     C_3   0.376516 0.226056 0.543253 -0.032551
C47   C     C_2   0.417146 0.140256 0.523117 -0.075823
C48   C     C_2   0.547986 0.114553 0.493362 0.034810
C49   C     C_2   0.633659 0.173762 0.474766 -0.089893
C50   C     C_1   0.574032 0.249454 0.484262 0.063861
C51   C     C_R   0.787979 0.861944 0.469790 -0.113179
C52   C     C_3   0.974683 0.701118 0.586941 0.288982
C53   C     C_R   0.847474 0.781725 0.464235 0.011179
C54   C     C_R   0.616466 0.758939 0.509134 0.042992
C55   C     C_R   0.556923 0.838915 0.515377 -0.113499
C56   C     C_3   0.035757 0.727495 0.293837 -0.339881
C57   C     C_R   0.640358 0.890906 0.495069 0.004085
C58   C     C_2   0.609112 0.029484 0.479068 -0.044768
C59   C     C_2   0.579615 0.975638 0.506788 -0.023253
C60   C     C_R   0.757345 0.730124 0.481720 -0.286025
C61   C     C_3   0.940315 0.789885 0.602418 -0.351682
C62   C     C_3   0.692797 0.364036 0.368744 0.287653
C63   C     C_3   0.694678 0.344306 0.311568 -0.328520
C64   C     C_3   0.485564 0.745917 0.368932 0.368462
C65   C     C_3   0.439967 0.823356 0.349242 -0.356054
C66   C     C_R   0.040177 0.444491 0.177895 0.642374
H1    H     H_    0.822620 0.270956 0.619779 0.129903
H2    H     H_    0.596444 0.414998 0.379312 0.076316
H3    H     H_    0.714723 0.396375 0.295272 0.068892
H4    H     H_    0.610203 0.264192 0.604017 0.001188
H5    H     H_    0.595265 0.183109 0.670003 0.087840
H6    H     H_    0.372566 0.653269 0.620647 0.028691
H7    H     H_    0.587267 0.613075 0.629000 0.031449
H8    H     H_    0.400776 0.754894 0.697022 0.143541
H9    H     H_    0.437624 0.656080 0.710725 0.073148
H10   H     H_    0.609209 0.708613 0.706798 0.129444
H11   H     H_    0.803471 0.194469 0.690768 0.105288
H12   H     H_    0.282023 0.180946 0.429564 0.058362
H13   H     H_    0.216549 0.294218 0.732035 0.126265
H14   H     H_    0.104899 0.646922 0.346106 0.078426
H15   H     H_    0.898738 0.701054 0.352753 -0.055829
H16   H     H_    0.161199 0.738705 0.286686 0.152629
H17   H     H_    0.004167 0.678586 0.264879 0.124823
H18   H     H_    0.947107 0.781210 0.290720 0.118343
H19   H     H_    0.621933 0.734676 0.372006 -0.072821
H20   H     H_    0.434249 0.752123 0.407009 0.080781
H21   H     H_    0.489621 0.871030 0.375612 0.067026
H22   H     H_    0.304460 0.838340 0.346020 0.151167
H23   H     H_    0.117349 0.189931 0.383328 0.135577
H24   H     H_    0.163813 0.341357 0.649774 0.044028
H25   H     H_    0.493255 0.819088 0.311624 0.123174
H26   H     H_    0.152848 0.466310 0.284070 0.145877
H27   H     H_    0.568598 0.485172 0.756011 0.099048
H28   H     H_    0.423710 0.322910 0.874980 0.126135
H29   H     H_    0.357142 0.321173 0.959264 0.080848
H30   H     H_    0.330008 0.331328 0.035936 0.112276
H31   H     H_    0.650412 0.564139 0.248194 0.131301
H32   H     H_    0.769843 0.679733 0.118946 0.126297
H33   H     H_    0.916231 0.685405 0.965298 0.074824
H34   H     H_    0.859521 0.678220 0.573437 0.008899
H35   H     H_    0.326588 0.258424 0.647192 -0.008415
H36   H     H_    0.986668 0.682659 0.881161 0.126560
H37   H     H_    0.047901 0.526953 0.715992 0.124476
H38   H     H_    0.830553 0.678782 0.034494 0.072624
H39   H     H_    0.828649 0.539475 0.401575 0.083399
H40   H     H_    0.370429 0.458247 0.601478 0.072384
H41   H     H_    0.507823 0.993634 0.540433 0.097648
H42   H     H_    0.742674 0.154099 0.452426 0.084244
H43   H     H_    0.861481 0.901387 0.457277 0.083100
H44   H     H_    0.684050 0.011716 0.446005 0.061083
H45   H     H_    0.063441 0.687672 0.556060 0.080215
H46   H     H_    0.345501 0.100315 0.536026 0.084305
H47   H     H_    0.010722 0.285795 0.707621 0.129670
H48   H     H_    0.449140 0.860999 0.537717 0.089949
H49   H     H_    0.412859 0.341271 0.523593 0.072779
H50   H     H_    0.804882 0.668300 0.478241 0.064423
H51   H     H_    0.134901 0.314810 0.444066 0.074020
H52   H     H_    0.327314 0.190320 0.366102 0.128123
H53   H     H_    0.795217 0.295722 0.299843 0.141162
H54   H     H_    0.575188 0.326174 0.296709 0.151821
H55   H     H_    0.163977 0.199226 0.703712 0.139800
H56   H     H_    0.843006 0.805042 0.630971 0.144239
H57   H     H_    0.337411 0.317018 0.421568 -0.003376
H58   H     H_    0.898828 0.818545 0.569378 0.073648
H59   H     H_    0.054022 0.812836 0.618675 0.134917
H60   H     H_    0.814187 0.379344 0.382930 0.008930
N1    N     N_R   0.940969 0.509417 0.202965 -0.428479
N2    N     N_R   0.271152 0.502475 0.795822 -0.426057
O1    O     O_2   0.906370 0.542040 0.619810 -0.470987
O2    O     O_2   0.184515 0.781202 0.476787 -0.482903
O3    O     O_3   0.090160 0.762281 0.381806 -0.598613
O4    O     O_3   0.138370 0.541980 0.559630 -0.491634
O5    O     O_3   0.572820 0.404940 0.471170 -0.493762
O6    O     O_2   0.345130 0.693150 0.532000 -0.463218
O7    O     O_3   0.546124 0.724487 0.610372 -0.637405
O8    O     O_2   0.409493 0.534304 0.324284 -0.493227
O9    O     O_3   0.420286 0.685541 0.336081 -0.590030
O10   O     O_2   0.082971 0.388107 0.199275 -0.528551
O11   O     O_2   0.414152 0.381700 0.796421 -0.593177
O12   O     O_3   0.660217 0.298260 0.388038 -0.632619
O13   O     O_2   0.801797 0.630728 0.199213 -0.617644
O14   O     O_2   0.125538 0.623727 0.801475 -0.595008
O15   O     O_3   0.686580 0.398330 0.583860 -0.488339
O16   O     O_2   0.848268 0.435446 0.670855 -0.498107
O17   O     O_3   0.038329 0.668021 0.628930 -0.624456
O18   O     O_3   0.654394 0.331207 0.672305 -0.620570
O19   O     O_2   0.844570 0.306830 0.467970 -0.462988
O20   O     O_3   0.101900 0.357890 0.557750 -0.491170
O21   O     O_2   0.042182 0.214691 0.514753 -0.461673
O22   O     O_3   0.105085 0.233692 0.612325 -0.572156
O23   O     O_2   0.283330 0.457940 0.380160 -0.460032
O24   O     O_3   0.051340 0.457960 0.440360 -0.500215
O25   O     O_3   0.503130 0.601610 0.416130 -0.480223
O26   O     O_3   0.148737 0.332078 0.369966 -0.616637
O27   O     O_3   0.616890 0.595000 0.528820 -0.481211
O28   O     O_3   0.087820 0.642040 0.442240 -0.494476
P1    P     P_3+3 0.071770 0.565500 0.613330 0.997992
P2    P     P_3+3 0.664870 0.318630 0.453960 0.985166
P3    P     P_3+3 0.154635 0.256954 0.554843 0.966802
P4    P     P_3+3 0.117940 0.434440 0.386660 0.998860
P5    P     P_3+3 0.053816 0.743091 0.441602 0.950434
P6    P     P_3+3 0.676497 0.417938 0.649848 0.963729
P7    P     P_3+3 0.532770 0.694228 0.545216 0.955297
P8    P     P_3+3 0.516286 0.595707 0.351026 0.951519

loop_
_geom_bond_atom_site_label_1
_geom_bond_atom_site_label_2
_ccdc_geom_bond_type
C7    H26   S    
O8    P8    D    
Ba2   O23   S    
C8    N1    S    
C20   H29   S    
O16   P6    D    
C31   C32   D    
C14   H39   S    
C63   H54   S    
C56   H18   S    
C49   C50   D    
C44   C50   D    
C25   C26   A    
C45   C56   S    
O21   P3    D    
C12   H4    S    
C45   H14   S    
C32   C33   S    
C58   H44   S    
C40   H12   S    
O5    P2    S    
C18   C37   A    
C62   O12   S    
C34   H9    S    
C23   C34   S    
C52   C61   S    
O18   P6    S    
C42   H36   S    
Ba1   O20   S    
Ba1   Ba2   S    
C57   C59   S    
C1    C12   S    
C40   H23   S    
C41   H33   S    
Ba2   O4    S    
C62   H2    S    
Ba2   O27   S    
C9    C36   A    
C64   H20   S    
C63   H3    S    
C44   H49   S    
C65   H22   S    
C4    O22   S    
O26   P4    S    
Ba2   O24   S    
C44   C46   S    
C62   C63   S    
C45   O3    S    
Ba1   P1    S    
C22   C27   A    
C9    C10   A    
C4    H35   S    
C32   H37   S    
C27   O11   D    
C10   C66   A    
C12   H1    S    
Ba1   O1    S    
O25   P8    S    
C16   H47   S    
C29   C30   S    
C56   H17   S    
C26   O14   D    
C35   C38   A    
C28   O26   S    
O4    P1    S    
C54   C60   A    
C3    C8    D    
C66   O10   D    
C55   C57   A    
C47   C48   D    
Ba2   O6    S    
C61   H58   S    
C45   H15   S    
O22   P3    S    
Ba1   O27   S    
C4    H24   S    
C20   C21   A    
C52   H34   S    
Ba2   P4    S    
C35   C36   A    
C2    O13   D    
C56   H16   S    
C64   C65   S    
C51   H43   S    
Br1   C1    S    
C54   C55   A    
C41   C42   A    
C48   C58   S    
C23   O7    S    
O1    P1    D    
O6    P7    D    
C1    H5    S    
Ba1   O24   S    
C13   C39   A    
C27   N2    Am   
O15   P6    S    
C38   H30   S    
C1    H11   S    
C21   H28   S    
C17   C35   A    
O19   P2    D    
C58   C59   D    
C46   C47   S    
C37   C43   A    
O2    P5    D    
C64   O9    S    
C31   P1    S    
O28   P5    S    
C50   P2    S    
O7    P7    S    
C54   P7    S    
O24   P4    S    
C49   H42   S    
C36   C37   A    
C4    C16   S    
Ba1   P2    S    
C55   H48   S    
C17   C19   A    
C65   H21   S    
Ba1   O15   S    
O17   P1    S    
C19   C24   A    
C17   C20   A    
C23   H6    S    
Ba1   O4    S    
Ba1   O5    S    
C48   C49   S    
C28   H57   S    
C53   C60   A    
C15   H40   S    
C3    C5    S    
C2    C13   A    
C24   C25   A    
O9    P8    S    
C6    P4    S    
O12   P2    S    
C46   P3    S    
C18   C19   A    
Ba2   O5    S    
C28   H51   S    
C5    P8    S    
C11   C38   A    
C2    N1    Am   
C23   H7    S    
C15   C30   S    
C63   H53   S    
C16   H13   S    
C61   H59   S    
C7    C8    S    
O23   P4    D    
C34   H8    S    
C22   C24   A    
C47   H46   S    
C60   H50   S    
C33   N2    S    
C9    C13   A    
C25   C42   A    
C61   H56   S    
Br2   C11   S    
C51   C53   A    
C21   C22   A    
C39   H32   S    
C16   H55   S    
C15   C31   D    
C34   H10   S    
C6    C14   D    
Ba2   O25   S    
C26   N2    Am   
C51   C57   A    
C40   H52   S    
C66   N1    Am   
C52   H45   S    
O27   P7    S    
Ba1   O19   S    
C29   H27   S    
C59   H41   S    
C29   C33   D    
O3    P5    S    
O20   P3    S    
C6    C7    D    
C5    C14   S    
C18   C41   A    
C53   P5    S    
C28   C40   S    
Ba2   O28   S    
C43   H38   S    
C3    H31   S    
C65   H25   S    
C10   C11   A    
C12   O18   S    
C64   H19   S    
C52   O17   S    
C30   P6    S    
C39   C43   A    
C62   H60   S    
