data_mof_unit_24076.cif
_audit_creation_date              2012-12-10T20:45:34-0500
_audit_creation_method            fapswitch 2.2
_symmetry_space_group_name_H-M    P1
_symmetry_Int_Tables_number       1
_space_group_crystal_system       triclinic
_cell_length_a                    10.690845
_cell_length_b                    10.671971
_cell_length_c                    9.843487
_cell_angle_alpha                 89.555711
_cell_angle_beta                  89.93472
_cell_angle_gamma                 90.559267
_cell_volume                      1122.97884286

loop_
_atom_site_label
_atom_site_type_symbol
_atom_type_description
_atom_site_fract_x
_atom_site_fract_y
_atom_site_fract_z
_atom_type_partial_charge
C1    C     C_R   0.502481 0.259994 0.500533 0.893570
C2    C     C_R   0.829239 0.365451 0.967501 -0.135178
C3    C     C_R   0.758855 0.256023 0.948216 -0.124412
C4    C     C_R   0.260250 0.504160 0.499985 0.868106
C5    C     C_R   0.748624 0.204315 0.818611 -0.122786
C6    C     C_R   0.807538 0.262624 0.707594 -0.112350
C7    C     C_R   0.877823 0.373078 0.726155 0.141323
C8    C     C_R   0.501349 0.062297 0.622354 0.123494
C9    C     C_R   0.521012 0.128992 0.502590 -0.137461
C10   C     C_R   0.568873 0.068687 0.388110 -0.318583
C11   C     C_R   0.575184 0.938570 0.387481 0.199636
C12   C     C_R   0.235395 0.805104 0.092703 -0.111193
C13   C     C_R   0.527851 0.871751 0.501205 -0.155313
C14   C     C_R   0.503822 0.935047 0.621298 0.090620
C15   C     C_3   0.397575 0.923076 0.719505 -0.473424
C16   C     C_R   0.506754 0.739989 0.499579 0.886994
C17   C     C_3   0.395352 0.065169 0.721228 -0.495528
C18   C     C_R   0.445292 0.403399 0.072256 0.208602
C19   C     C_R   0.564812 0.588188 0.071120 -0.134739
C20   C     C_R   0.565058 0.588139 0.927059 -0.123671
C21   C     C_R   0.443715 0.404453 0.929517 0.235913
C22   C     C_3   0.308325 0.369289 0.926384 -0.533030
C23   C     C_R   0.933739 0.554867 0.393847 -0.265801
C24   C     C_3   0.311570 0.363898 0.080402 -0.500419
C25   C     C_R   0.739870 0.495724 0.500211 0.858375
C26   C     C_R   0.258581 0.825820 0.230397 -0.113626
C27   C     C_R   0.201869 0.749145 0.328960 -0.096870
C28   C     C_R   0.122049 0.650101 0.290299 0.137544
C29   C     C_R   0.097009 0.631972 0.151545 -0.196985
C30   C     C_R   0.154465 0.708452 0.053292 -0.136937
C31   C     C_3   0.756245 0.843449 0.290795 -0.786340
C32   C     C_R   0.872513 0.492787 0.500545 -0.074670
C33   C     C_R   0.938549 0.437721 0.609077 -0.003481
C34   C     C_R   0.066828 0.444828 0.606424 -0.264524
C35   C     C_R   0.127828 0.508219 0.500554 -0.079883
C36   C     C_R   0.061867 0.568021 0.395003 0.003301
C37   C     C_R   0.889181 0.423512 0.857116 -0.150761
H1    H     H_    0.279508 0.864477 0.016658 0.121268
H2    H     H_    0.615127 0.660473 0.124771 0.167991
H3    H     H_    0.320387 0.901435 0.260808 0.127726
H4    H     H_    0.615710 0.660581 0.871936 0.144873
H5    H     H_    0.248982 0.446232 0.886549 0.215784
H6    H     H_    0.291110 0.276571 0.879393 0.196606
H7    H     H_    0.251829 0.434749 0.129379 0.235791
H8    H     H_    0.300702 0.267293 0.122091 0.195766
H9    H     H_    0.220221 0.766883 0.435317 0.086693
H10   H     H_    0.035130 0.556972 0.119383 0.122613
H11   H     H_    0.136313 0.692663 0.946582 0.128566
H12   H     H_    0.712407 0.211183 0.033716 0.116089
H13   H     H_    0.881079 0.599109 0.312974 0.158891
H14   H     H_    0.119282 0.398363 0.686142 0.156712
H15   H     H_    0.942879 0.508709 0.873147 0.116289
H16   H     H_    0.837037 0.405470 0.067904 0.133065
H17   H     H_    0.611561 0.922992 0.182057 0.209343
H18   H     H_    0.789229 0.791177 0.200744 0.222607
H19   H     H_    0.815101 0.929228 0.301755 0.237372
H20   H     H_    0.767240 0.783190 0.382437 0.241629
H21   H     H_    0.695037 0.118987 0.804410 0.128706
H22   H     H_    0.798127 0.222239 0.607460 0.105905
H23   H     H_    0.597919 0.121499 0.298788 0.165740
H24   H     H_    0.312476 0.880211 0.673566 0.194831
H25   H     H_    0.427420 0.880948 0.817732 0.199094
H26   H     H_    0.308763 0.105460 0.676990 0.197765
H27   H     H_    0.424673 0.104650 0.820503 0.196935
N1    N     N_R   0.499160 0.499140 0.142800 -0.101576
N2    N     N_R   0.499160 0.499180 0.857150 -0.100742
N3    N     N_2   0.626491 0.876847 0.273032 -0.291727
O1    O     O_R   0.500020 0.316790 0.614690 -0.611542
O2    O     O_R   0.500000 0.316760 0.385350 -0.626619
O3    O     O_R   0.316770 0.500030 0.614670 -0.628052
O4    O     O_R   0.316750 0.499990 0.385330 -0.610831
O5    O     O_R   0.500000 0.683240 0.614650 -0.627050
O6    O     O_R   0.499980 0.683210 0.385310 -0.587094
O7    O     O_R   0.683250 0.500010 0.614670 -0.608957
O8    O     O_R   0.683230 0.499970 0.385330 -0.628456
Zn1   Zn    Zn3+2 0.500010 0.500020 0.653130 0.947036
Zn2   Zn    Zn3+2 0.499990 0.499980 0.346870 0.951447

loop_
_geom_bond_atom_site_label_1
_geom_bond_atom_site_label_2
_ccdc_geom_bond_type
C21   N2    A    
C18   C21   A    
O2    Zn2   S    
C35   C36   A    
C16   O5    A    
O5    Zn1   S    
C4    O3    A    
C20   H4    S    
C3    H12   S    
C18   N1    A    
C31   N3    S    
C34   H14   S    
C26   C27   A    
O7    Zn1   S    
C5    H21   S    
C29   H10   S    
C18   C24   S    
C24   H8    S    
C30   H11   S    
C28   C29   A    
C34   C35   A    
C17   H27   S    
C5    C6    A    
C1    O1    A    
C25   O7    A    
C19   C20   A    
C8    C9    A    
C31   H19   S    
C9    C10   A    
C25   C32   S    
C4    C35   S    
C13   C14   A    
C7    C33   S    
C11   N3    S    
C7    C37   A    
N1    Zn2   S    
C16   O6    A    
C1    C9    S    
C37   H15   S    
C23   H13   S    
H17   N3    S    
C1    O2    A    
C12   C26   A    
C25   O8    A    
C10   H23   S    
C29   C30   A    
C22   H6    S    
N2    Zn1   S    
C33   C34   A    
C15   H24   S    
O8    Zn2   S    
C19   H2    S    
C27   H9    S    
O3    Zn1   S    
C24   H7    S    
C22   C24   S    
O4    Zn2   S    
C20   N2    A    
C15   C17   S    
C8    C14   A    
C12   C30   A    
C6    H22   S    
C3    C5    A    
C2    H16   S    
C6    C7    A    
O1    Zn1   S    
C8    C17   S    
C32   C33   A    
C31   H20   S    
C2    C3    A    
C23   C32   A    
C11   C13   A    
C2    C37   A    
C26   H3    S    
C22   H5    S    
C15   H25   S    
C19   N1    A    
C12   H1    S    
C10   C11   A    
C28   C36   S    
C23   C36   A    
C13   C16   S    
C27   C28   A    
O6    Zn2   S    
C14   C15   S    
C31   H18   S    
C21   C22   S    
C4    O4    A    
C17   H26   S    
