data_mof_unit_34547.cif
_audit_creation_date              2012-12-11T16:05:03-0500
_audit_creation_method            fapswitch 2.2
_symmetry_space_group_name_H-M    P1
_symmetry_Int_Tables_number       1
_space_group_crystal_system       triclinic
_cell_length_a                    10.603038
_cell_length_b                    10.649726
_cell_length_c                    16.924599
_cell_angle_alpha                 98.624259
_cell_angle_beta                  98.561977
_cell_angle_gamma                 61.60008
_cell_volume                      1655.48153759

loop_
_atom_site_label
_atom_site_type_symbol
_atom_type_description
_atom_site_fract_x
_atom_site_fract_y
_atom_site_fract_z
_atom_type_partial_charge
C1    C     C_R   0.378515 0.716998 0.386665 0.546097
C2    C     C_3   0.709312 0.303941 0.240059 -0.132846
C3    C     C_3   0.767049 0.373180 0.312301 0.061990
C4    C     C_3   0.922737 0.274497 0.293045 -0.112006
C5    C     C_3   0.910265 0.389758 0.242761 -0.113734
C6    C     C_3   0.754684 0.488075 0.263188 -0.125078
C7    C     C_3   0.696566 0.419257 0.189547 -0.146842
C8    C     C_3   0.850488 0.323344 0.170031 0.056653
C9    C     C_3   0.465092 0.742144 0.204833 -0.167122
C10   C     C_3   0.386386 0.669763 0.235544 -0.117511
C11   C     C_3   0.361182 0.773202 0.311648 0.036537
C12   C     C_R   0.369393 0.345868 0.359209 0.529645
C13   C     C_3   0.440867 0.844363 0.282900 -0.125822
C14   C     C_3   0.295340 0.953932 0.243883 -0.140528
C15   C     C_3   0.215724 0.883790 0.275110 -0.101749
C16   C     C_3   0.242631 0.780449 0.199427 0.163079
C17   C     C_3   0.321226 0.848820 0.167784 0.064469
C18   C     C_3   0.438266 0.242366 0.771197 -0.080790
C19   C     C_3   0.371578 0.389897 0.737647 -0.153288
C20   C     C_3   0.327797 0.323947 0.657589 0.063224
C21   C     C_3   0.391593 0.179562 0.691864 0.129095
C22   C     C_3   0.244524 0.217678 0.719220 -0.134666
C23   C     C_R   0.714039 0.411014 0.390365 0.541913
C24   C     C_3   0.183131 0.365768 0.686692 0.108172
C25   C     C_3   0.223732 0.432361 0.767225 -0.094449
C26   C     C_3   0.290156 0.283525 0.798938 0.007711
C27   C     C_1   0.844318 0.329899 0.706171 -0.020328
C28   C     C_1   0.890541 0.296186 0.773275 -0.045644
C29   C     C_1   0.357258 0.765521 0.714347 -0.066039
C30   C     C_1   0.326187 0.811945 0.781942 -0.059333
C31   C     C_R   0.897548 0.307851 0.092456 0.559865
C32   C     C_R   0.318677 0.298603 0.120623 0.566782
C33   C     C_R   0.292462 0.893104 0.088778 0.560541
C34   C     C_R   0.379301 0.716020 0.631718 0.561051
C35   C     C_R   0.941113 0.276573 0.855852 0.536745
C36   C     C_R   0.278103 0.253444 0.877477 0.543075
C37   C     C_R   0.282424 0.880390 0.859629 0.538520
C38   C     C_R   0.366123 0.344883 0.584245 0.547280
C39   C     C_R   0.777497 0.378038 0.629093 0.566491
C40   C     C_1   0.341764 0.333746 0.275616 -0.085401
C41   C     C_1   0.330227 0.323589 0.204391 -0.072807
C42   C     C_3   0.865645 0.205807 0.218785 -0.115236
Cr1   Cr    Cr6+3 0.608340 0.611040 0.520430 0.980996
Cr2   Cr    Cr6+3 0.287650 0.601120 0.489350 0.991163
Cr3   Cr    Cr6+3 0.604040 0.287870 0.490280 1.021122
Cr4   Cr    Cr6+3 0.054020 0.052700 0.970850 1.010876
Cr5   Cr    Cr6+3 0.059230 0.375120 0.993390 1.019889
Cr6   Cr    Cr6+3 0.374950 0.061200 0.992340 1.014208
H1    H     H_    0.627009 0.268444 0.241469 0.129563
H2    H     H_    0.258018 0.070764 0.244603 0.113320
H3    H     H_    0.114205 0.941017 0.305020 0.123773
H4    H     H_    0.423773 0.460214 0.743364 0.109302
H5    H     H_    0.543779 0.193468 0.807219 0.141426
H6    H     H_    0.193033 0.146678 0.712950 0.101920
H7    H     H_    0.154303 0.535848 0.800089 0.136087
H8    H     H_    0.911788 0.090025 0.197841 0.119168
H9    H     H_    0.013497 0.216903 0.337602 0.116223
H10   H     H_    0.993742 0.424279 0.241865 0.117149
H11   H     H_    0.716630 0.601804 0.286686 0.123393
H12   H     H_    0.609384 0.466970 0.141420 0.119140
H13   H     H_    0.419408 0.553970 0.234564 0.097360
H14   H     H_    0.561025 0.699277 0.170874 0.119638
H15   H     H_    0.522620 0.869944 0.320065 0.134759
O1    O     O_R   0.751220 0.499230 0.435170 -0.528938
O2    O     O_R   0.297880 0.469080 0.560050 -0.527917
O3    O     O_R   0.489720 0.254590 0.564810 -0.484210
O4    O     O_R   0.725220 0.304230 0.585080 -0.492040
O5    O     O_3   0.500010 0.500010 0.500020 -0.301155
O6    O     O_R   0.171830 0.913880 0.057510 -0.527244
O7    O     O_R   0.940690 0.186050 0.054730 -0.503102
O8    O     O_R   0.920470 0.405720 0.075010 -0.523438
O9    O     O_R   0.196690 0.370460 0.084120 -0.489145
O10   O     O_R   0.412990 0.180750 0.091610 -0.506271
O11   O     O_R   0.366620 0.943130 0.065760 -0.502301
O12   O     O_R   0.477220 0.727600 0.436870 -0.509321
O13   O     O_R   0.160510 0.906330 0.879210 -0.512839
O14   O     O_R   0.930190 0.179050 0.889450 -0.491064
O15   O     O_R   0.909140 0.398170 0.896710 -0.504739
O16   O     O_R   0.186190 0.363460 0.918830 -0.503188
O17   O     O_R   0.401670 0.173200 0.913310 -0.513886
O18   O     O_R   0.356120 0.936130 0.900470 -0.513889
O19   O     O_3   0.162740 0.163010 0.985530 -0.294316
O20   O     O_R   0.258650 0.745120 0.411470 -0.511461
O21   O     O_R   0.297070 0.467240 0.395960 -0.518975
O22   O     O_R   0.488830 0.252610 0.387790 -0.515944
O23   O     O_R   0.724400 0.302390 0.420980 -0.496621
O24   O     O_R   0.752100 0.501210 0.612190 -0.511500
O25   O     O_R   0.478040 0.729440 0.600970 -0.503910
O26   O     O_R   0.259530 0.747110 0.588490 -0.503602
N1    N     N_2   0.133744 0.744004 0.156061 -0.499350
H16   H     H_    0.055263 0.823678 0.122958 0.270608
C43   C     C_3   0.069339 0.692751 0.204527 -0.300094
H17   H     H_    0.009065 0.642674 0.164877 0.165640
H18   H     H_    0.993319 0.783461 0.243053 0.126600
H19   H     H_    0.152647 0.612166 0.243417 0.169104
N2    N     N_2   0.481951 0.045380 0.648192 -0.490454
H20   H     H_    0.425389 0.010320 0.603607 0.271894
C44   C     C_3   0.589622 0.934906 0.696533 -0.266591
H21   H     H_    0.652159 0.837482 0.657099 0.160250
H22   H     H_    0.537854 0.907974 0.739129 0.155790
H23   H     H_    0.666589 0.970893 0.730229 0.141643
N3    N     N_2   0.049307 0.433808 0.637267 -0.496283
H24   H     H_    0.051829 0.381501 0.580631 0.257918
C45   C     C_3   0.988049 0.587967 0.637999 -0.258908
H25   H     H_    0.898865 0.627567 0.589760 0.156388
H26   H     H_    0.069853 0.619399 0.628003 0.164801
H27   H     H_    0.944142 0.640180 0.696523 0.143871

loop_
_geom_bond_atom_site_label_1
_geom_bond_atom_site_label_2
_ccdc_geom_bond_type
C16   N1    S    
C18   C21   S    
C3    C23   S    
C19   C20   S    
C1    C11   S    
Cr5   O16   S    
C3    C6    S    
Cr4   O13   S    
C7    C8    S    
C32   O9    A    
C12   O22   A    
Cr1   O25   S    
C8    C42   S    
C5    C6    S    
C15   C16   S    
Cr6   O18   S    
C12   O21   A    
C18   C19   S    
Cr5   O19   S    
C9    C13   S    
Cr4   O6    S    
C18   H5    S    
C42   H8    S    
Cr4   O19   S    
C18   C26   S    
C11   C15   S    
C19   H4    S    
C31   O7    A    
C2    C7    S    
C28   C35   S    
C27   C39   S    
Cr1   O5    S    
C23   O23   A    
N2    C44   S    
C4    H9    S    
Cr3   O4    S    
C32   C41   S    
C15   H3    S    
C9    C10   S    
C33   O6    A    
Cr2   O20   S    
C31   O8    A    
C21   C22   S    
C14   C17   S    
C37   O18   A    
Cr2   O2    S    
C17   C33   S    
Cr6   O10   S    
C45   H26   S    
C45   H25   S    
Cr1   O1    S    
Cr1   O12   S    
C9    H14   S    
C1    O12   A    
Cr6   O11   S    
C24   C25   S    
C22   H6    S    
C36   O17   A    
C32   O10   A    
C16   C17   S    
C25   C26   S    
C29   C34   S    
C35   O14   A    
C43   H19   S    
C30   C37   S    
C12   C40   S    
Cr3   O22   S    
C29   C30   T    
C2    H1    S    
C5    C8    S    
C20   C38   S    
N1    C43   S    
C13   H15   S    
C38   O2    A    
N2    H20   S    
Cr3   O5    S    
C43   H18   S    
C34   O25   A    
N3    C45   S    
Cr5   O8    S    
C5    H10   S    
C9    C17   S    
C23   O1    A    
C37   O13   A    
C44   H22   S    
C22   C24   S    
Cr2   O5    S    
C10   H13   S    
C3    C4    S    
C7    H12   S    
Cr3   O3    S    
C26   C36   S    
C38   O3    A    
C40   C41   T    
C8    C31   S    
C39   O4    A    
C6    H11   S    
C25   H7    S    
C4    C5    S    
Cr2   O21   S    
C36   O16   A    
Cr4   O14   S    
C6    C7    S    
C21   N2    S    
C1    O20   A    
C44   H23   S    
C35   O15   A    
Cr1   O24   S    
Cr6   O17   S    
C2    C3    S    
C34   O26   A    
C10   C16   S    
C11   C13   S    
N1    H16   S    
C14   H2    S    
C4    C42   S    
C2    C42   S    
C39   O24   A    
C43   H17   S    
Cr6   O19   S    
Cr3   O23   S    
C24   N3    S    
N3    H24   S    
C19   C25   S    
Cr5   O9    S    
Cr4   O7    S    
C10   C11   S    
C33   O11   A    
C20   C21   S    
C44   H21   S    
C22   C26   S    
C27   C28   T    
C14   C15   S    
Cr5   O15   S    
C13   C14   S    
C20   C24   S    
C45   H27   S    
Cr2   O26   S    
