data_mof_unit_49127.cif
_audit_creation_date              2012-12-11T14:57:59-0500
_audit_creation_method            fapswitch 2.2
_symmetry_space_group_name_H-M    P1
_symmetry_Int_Tables_number       1
_space_group_crystal_system       triclinic
_cell_length_a                    6.948694
_cell_length_b                    16.785661
_cell_length_c                    17.020526
_cell_angle_alpha                 100.01173
_cell_angle_beta                  91.113912
_cell_angle_gamma                 89.632014
_cell_volume                      1954.63751653

loop_
_atom_site_label
_atom_site_type_symbol
_atom_type_description
_atom_site_fract_x
_atom_site_fract_y
_atom_site_fract_z
_atom_type_partial_charge
O1    O     O_R   0.506180 0.438940 0.579430 -0.560097
O2    O     O_R   0.170520 0.406230 0.413590 -0.555881
O3    O     O_R   0.005180 0.561060 0.420570 -0.549848
C1    C     C_R   0.339816 0.382633 0.386181 0.734329
O4    O     O_R   0.176140 0.429310 0.578370 -0.523619
O5    O     O_R   0.010830 0.584300 0.586530 -0.539359
C2    C     C_R   0.347081 0.412859 0.604413 0.674666
O6    O     O_R   0.500520 0.415700 0.413470 -0.529593
O7    O     O_3   0.340830 0.550820 0.502480 -0.350272
V1    V     V_3+5 0.064040 0.490570 0.499540 1.491895
O8    O     O_R   0.681400 0.593770 0.586410 -0.524575
C3    C     C_R   0.851116 0.616821 0.614760 0.788998
O9    O     O_R   0.675790 0.570690 0.421630 -0.488814
C4    C     C_R   0.842563 0.586836 0.395303 0.823877
V2    V     V_3+5 0.564650 0.509430 0.500460 1.557464
O10   O     O_3   0.837730 0.449180 0.497520 -0.389945
C5    C     C_R   0.921069 0.860933 0.166512 -0.286399
C6    C     C_R   0.844626 0.637802 0.332381 -0.173153
C7    C     C_R   0.735268 0.661082 0.201213 0.726011
C8    C     C_R   0.743192 0.612827 0.260448 -0.284142
C9    C     C_R   0.942945 0.711828 0.344025 -0.055964
C10   C     C_R   0.935256 0.761654 0.285107 -0.132886
C11   C     C_R   0.829787 0.736366 0.212827 -0.167144
C12   C     C_R   0.822814 0.786665 0.153972 0.631303
C13   C     C_R   0.021819 0.885536 0.238719 -0.270909
C14   C     C_R   0.029709 0.836688 0.297386 0.714883
H1    H     H_    0.091263 0.943878 0.250547 0.202356
H2    H     H_    0.673010 0.554642 0.249314 0.187308
H3    H     H_    0.021794 0.731076 0.399590 0.199214
H4    H     H_    0.136113 0.635987 0.969800 0.161173
C15   C     C_R   0.796338 0.909723 0.728707 -0.100803
C16   C     C_R   0.742314 0.926692 0.653787 -0.053945
C17   C     C_R   0.727214 0.863482 0.589357 -0.225311
C18   C     C_R   0.766535 0.784075 0.598473 0.601671
C19   C     C_R   0.820924 0.764756 0.674269 -0.037254
C20   C     C_R   0.837313 0.829681 0.740332 -0.014550
C21   C     C_R   0.861907 0.683599 0.685088 -0.179554
C22   C     C_R   0.921948 0.667899 0.762410 -0.023315
C23   C     C_R   0.950566 0.735183 0.826128 0.070222
C24   C     C_R   0.901509 0.814959 0.816012 -0.105145
C25   C     C_R   0.957579 0.587830 0.779867 -0.037536
C26   C     C_R   0.041940 0.578664 0.853453 -0.100140
C27   C     C_R   0.076219 0.644696 0.912676 -0.097177
C28   C     C_R   0.025910 0.721482 0.900447 -0.082205
H5    H     H_    0.810065 0.960260 0.777424 0.153089
H6    H     H_    0.687501 0.875766 0.530708 0.180572
H7    H     H_    0.073021 0.519145 0.867115 0.163559
H8    H     H_    0.048633 0.769984 0.950449 0.124342
H9    H     H_    0.949459 0.437408 0.156593 0.134337
C29   C     C_R   0.534572 0.237615 0.403822 -0.143782
C30   C     C_R   0.626982 0.168851 0.418756 -0.205522
C31   C     C_R   0.632178 0.099793 0.361038 -0.012167
C32   C     C_R   0.551817 0.101568 0.283778 -0.069707
C33   C     C_R   0.473733 0.176063 0.263799 0.034219
C34   C     C_R   0.456322 0.243478 0.327641 0.055233
C35   C     C_R   0.408178 0.185445 0.184743 -0.180789
C36   C     C_R   0.300301 0.257230 0.174693 -0.033673
C37   C     C_R   0.277958 0.322350 0.240771 0.069662
C38   C     C_R   0.356914 0.315180 0.316790 -0.165686
C39   C     C_R   0.206210 0.266755 0.100869 0.000018
C40   C     C_R   0.059008 0.324085 0.100745 -0.091341
C41   C     C_R   0.043319 0.387162 0.163709 -0.231935
C42   C     C_R   0.172419 0.392861 0.227771 -0.021977
H10   H     H_    0.523849 0.285791 0.454603 0.110719
H11   H     H_    0.684929 0.168205 0.478287 0.118354
H12   H     H_    0.975055 0.327717 0.047132 0.162664
C43   C     C_R   0.403034 0.129092 0.825101 -0.014031
C44   C     C_R   0.365506 0.360965 0.666529 -0.012883
C45   C     C_R   0.507774 0.338819 0.793121 -0.131191
C46   C     C_R   0.469638 0.389230 0.737258 -0.108673
C47   C     C_R   0.293155 0.281522 0.653776 -0.188103
C48   C     C_R   0.330251 0.230303 0.710174 0.149861
C49   C     C_R   0.440557 0.258905 0.779825 0.146411
C50   C     C_R   0.479132 0.207854 0.835749 -0.150669
C51   C     C_R   0.297958 0.099317 0.753512 0.019954
C52   C     C_R   0.261838 0.150586 0.697437 -0.203429
H13   H     H_    0.562214 0.230668 0.889393 0.106917
H14   H     H_    0.589889 0.362446 0.846800 0.132035
H15   H     H_    0.181110 0.127891 0.643048 0.116490
H16   H     H_    0.520554 0.450880 0.749602 0.104886
H17   H     H_    0.213023 0.259068 0.599213 0.106195
O11   O     O_R   0.265840 0.084300 0.086750 -0.525033
O12   O     O_R   0.589750 0.070740 0.921690 -0.553615
O13   O     O_R   0.755020 0.915730 0.913400 -0.534142
C53   C     C_R   0.419741 0.082072 0.891677 0.774410
O14   O     O_R   0.595830 0.093740 0.086480 -0.560922
O15   O     O_R   0.761150 0.938890 0.079360 -0.527874
C54   C     C_R   0.426249 0.117085 0.115144 0.701309
O16   O     O_R   0.259710 0.061140 0.920790 -0.514769
O17   O     O_3   0.425260 0.949200 0.997610 -0.348329
V3    V     V_3+5 0.702060 0.009430 0.000450 1.523794
O18   O     O_R   0.090530 0.929220 0.078150 -0.522206
C55   C     C_R   0.923728 0.912581 0.104105 0.774589
O19   O     O_R   0.084440 0.906220 0.913360 -0.531339
C56   C     C_R   0.914707 0.883367 0.885096 0.692957
V4    V     V_3+5 0.201450 0.990520 0.999290 1.601770
O20   O     O_3   0.928380 0.050800 0.002390 -0.377319
F1    F     F_    0.725211 0.763146 0.083885 -0.635141
F2    F     F_    0.754179 0.727744 0.531185 -0.709880
C57   C     C_2   0.891376 0.511674 0.728877 0.349949
H18   H     H_    0.763668 0.510725 0.691789 0.033499
O21   O     O_2   0.973622 0.447548 0.731032 -0.530542
C58   C     C_2   0.715646 0.026352 0.387205 0.354986
H19   H     H_    0.820344 0.033366 0.436112 0.062290
O22   O     O_2   0.662701 0.958160 0.358320 -0.508435
C59   C     C_2   0.545625 0.023434 0.228971 0.465634
H20   H     H_    0.676989 0.989310 0.217666 0.054335
O23   O     O_2   0.393252 0.993464 0.202710 -0.529454
C60   C     C_2   0.276334 0.230503 0.021479 0.377517
H21   H     H_    0.425507 0.212363 0.014208 -0.012283
O24   O     O_2   0.170420 0.224823 0.962625 -0.541363
C61   C     C_2   0.211621 0.476631 0.268379 0.393491
H22   H     H_    0.099797 0.521949 0.270746 0.036895
O25   O     O_2   0.373045 0.497949 0.291859 -0.538478
C62   C     C_2   0.230887 0.014293 0.732202 0.340799
H23   H     H_    0.134714 0.997306 0.681157 0.076500
O26   O     O_2   0.287021 0.961664 0.768476 -0.539271
F3    F     F_    0.635023 0.633514 0.132730 -0.628124
F4    F     F_    0.128804 0.863280 0.366428 -0.662414
C63   C     C_2   0.706523 0.010620 0.641190 0.353672
H24   H     H_    0.655062 0.021861 0.583463 0.054185
O27   O     O_2   0.736001 0.068204 0.694548 -0.541445

loop_
_geom_bond_atom_site_label_1
_geom_bond_atom_site_label_2
_ccdc_geom_bond_type
C31   C58   S    
C34   C38   A    
C6    C9    A    
C29   H10   S    
C49   C50   A    
C4    C6    S    
O2    C1    A    
C7    C8    A    
C52   H15   S    
C48   C52   A    
C61   O25   D    
O17   V3    S    
C43   C51   A    
C32   C33   A    
C63   H24   S    
C41   C42   A    
C12   F1    S    
C19   C21   A    
O15   V3    S    
O14   V3    S    
C60   O24   D    
O5    C3    A    
C22   C23   A    
O14   C54   A    
C35   C54   S    
C59   H20   S    
V2    O10   S    
O18   V4    S    
C35   C36   A    
C18   C19   A    
C25   C26   A    
C42   C61   S    
C57   H18   S    
C39   C60   S    
C2    C44   S    
O8    V2    S    
C40   H12   S    
C19   C20   A    
C7    F3    S    
C62   O26   D    
C50   H13   S    
C11   C12   A    
C45   C49   A    
O1    V2    S    
O13   V3    S    
O7    V1    S    
C15   C20   A    
C1    O6    A    
O9    C4    A    
C17   H6    S    
C45   H14   S    
C40   C41   A    
C16   C63   S    
C32   C59   S    
C61   H22   S    
C63   O27   D    
C18   F2    S    
C30   H11   S    
C33   C35   A    
C43   C53   S    
C5    C12   A    
O11   V4    S    
C46   H16   S    
C30   C31   A    
C20   C24   A    
C14   F4    S    
C22   C25   A    
C23   C24   A    
O4    C2    A    
C53   O16   A    
C36   C39   A    
C8    H2    S    
C29   C30   A    
C13   C14   A    
C9    H3    S    
C39   C40   A    
O13   C56   A    
C7    C11   A    
C51   C52   A    
C21   C22   A    
C15   C16   A    
V4    O20   S    
C57   O21   D    
C17   C18   A    
C25   C57   S    
C58   O22   D    
C43   C50   A    
V3    O20   S    
O19   V4    S    
O3    C4    A    
O12   C53   A    
O6    V2    S    
O9    V2    S    
C27   C28   A    
C10   C14   A    
H4    C27   S    
C5    C55   S    
C26   C27   A    
C24   C56   S    
O2    V1    S    
C31   C32   A    
C37   C42   A    
C33   C34   A    
H9    C41   S    
O1    C2    A    
C48   C49   A    
O5    V1    S    
O8    C3    A    
O17   V4    S    
C23   C28   A    
C13   H1    S    
O12   V3    S    
C29   C34   A    
C5    C13   A    
C16   C17   A    
O16   V4    S    
C37   C38   A    
C47   C48   A    
O3    V1    S    
C3    C21   S    
C60   H21   S    
C36   C37   A    
C59   O23   D    
C44   C47   A    
O11   C54   A    
O15   C55   A    
C1    C38   S    
O18   C55   A    
C6    C8    A    
C26   H7    S    
O7    V2    S    
O19   C56   A    
C45   C46   A    
O4    V1    S    
C51   C62   S    
C44   C46   A    
C15   H5    S    
C58   H19   S    
C10   C11   A    
V1    O10   S    
C62   H23   S    
C9    C10   A    
C28   H8    S    
C47   H17   S    
