data_mof_unit_33877.cif
_audit_creation_date              2012-12-10T17:12:31-0500
_audit_creation_method            fapswitch 2.2
_symmetry_space_group_name_H-M    P1
_symmetry_Int_Tables_number       1
_space_group_crystal_system       triclinic
_cell_length_a                    11.674849
_cell_length_b                    12.964424
_cell_length_c                    11.857455
_cell_angle_alpha                 99.279424
_cell_angle_beta                  93.256296
_cell_angle_gamma                 93.812301
_cell_volume                      1763.15165254

loop_
_atom_site_label
_atom_site_type_symbol
_atom_type_description
_atom_site_fract_x
_atom_site_fract_y
_atom_site_fract_z
_atom_type_partial_charge
C1    C     C_R   0.496916 0.299837 0.479104 0.854104
C2    C     C_R   0.499491 0.700059 0.521129 0.854223
C3    C     C_R   0.413365 0.379685 0.023575 0.137991
C4    C     C_R   0.641904 0.561190 0.969090 0.146050
C5    C     C_R   0.404784 0.402920 0.143878 0.235910
C6    C     C_R   0.617306 0.573090 0.853447 0.231361
C7    C     C_R   0.554638 0.539717 0.153482 0.293204
C8    C     C_R   0.447751 0.458094 0.847002 0.296702
C9    C     C_R   0.556541 0.519020 0.030704 -0.068216
C10   C     C_R   0.470800 0.452404 0.966494 -0.074866
C11   C     C_R   0.284342 0.499571 0.500304 0.830454
C12   C     C_R   0.715661 0.500409 0.499633 0.824288
C13   C     C_1   0.162597 0.499711 0.500685 -0.157388
C14   C     C_1   0.837412 0.500263 0.499003 -0.126823
C15   C     C_1   0.059971 0.499866 0.500194 0.025366
C16   C     C_1   0.940041 0.500086 0.499371 0.042097
C17   C     C_R   0.501189 0.813442 0.533679 -0.160910
C18   C     C_R   0.487150 0.186590 0.468797 -0.158987
C19   C     C_R   0.384625 0.021793 0.385053 0.340427
C20   C     C_R   0.588961 0.980785 0.627292 0.355623
C21   C     C_R   0.402891 0.129352 0.392182 -0.273835
C22   C     C_R   0.578468 0.872929 0.615804 -0.296485
C23   C     C_R   0.558276 0.136930 0.538300 0.269071
C24   C     C_R   0.424213 0.861942 0.468148 0.224070
C25   C     C_R   0.531938 0.030269 0.544437 -0.054315
C26   C     C_R   0.444893 0.970389 0.464871 -0.052360
Cu1   Cu    Cu3+1 0.508350 0.507730 0.615930 0.958545
Cu2   Cu    Cu3+1 0.491650 0.492270 0.384070 0.956831
H1    H     H_    0.628259 0.835042 0.674385 0.177971
H2    H     H_    0.352167 0.168587 0.335160 0.178480
N1    N     N_R   0.520920 0.519350 0.790130 -0.219495
N2    N     N_R   0.479080 0.480650 0.209870 -0.222815
O1    O     O_R   0.505930 0.354460 0.582000 -0.549514
O2    O     O_R   0.494070 0.645540 0.418000 -0.587963
O3    O     O_R   0.491820 0.341410 0.386200 -0.585815
O4    O     O_R   0.508180 0.658590 0.613800 -0.598403
O5    O     O_R   0.344250 0.506540 0.597900 -0.604839
O6    O     O_R   0.655750 0.493460 0.402100 -0.573470
O7    O     O_R   0.330140 0.493480 0.402100 -0.584901
O8    O     O_R   0.669860 0.506520 0.597900 -0.581665
Br1   Br    Br    0.281687 0.780538 0.410611 -0.448416
Br2   Br    Br    0.704567 0.211602 0.596861 -0.399127
Br3   Br    Br    0.286563 0.956274 0.253504 -0.455974
Br4   Br    Br    0.665152 0.050799 0.770161 -0.389847
C27   C     C_3   0.330144 0.413366 0.792650 -0.326104
C28   C     C_3   0.241718 0.497309 0.804544 -0.374766
C29   C     C_3   0.196874 0.518151 0.924134 -0.764422
H3    H     H_    0.157158 0.444819 0.946912 0.257659
H4    H     H_    0.267374 0.551706 0.989042 0.246491
H5    H     H_    0.130228 0.575508 0.925473 0.270339
H6    H     H_    0.279619 0.572895 0.785251 0.253616
H7    H     H_    0.167124 0.469848 0.742082 0.228143
H8    H     H_    0.336706 0.375304 0.703435 0.209964
H9    H     H_    0.293842 0.347593 0.831220 0.207875
C30   C     C_3   0.611368 0.644366 0.214859 -0.354692
C31   C     C_3   0.528059 0.732083 0.217242 -0.335966
C32   C     C_3   0.522061 0.779194 0.107250 -0.776658
H10   H     H_    0.607863 0.814717 0.092904 0.248713
H11   H     H_    0.490169 0.719222 0.032590 0.242492
H12   H     H_    0.461720 0.842088 0.115356 0.293516
H13   H     H_    0.439801 0.702348 0.232307 0.278655
H14   H     H_    0.558324 0.796222 0.288601 0.225681
H15   H     H_    0.645587 0.638015 0.301539 0.214015
H16   H     H_    0.689027 0.670739 0.175925 0.218054
C33   C     C_3   0.703302 0.644820 0.804500 -0.335526
C34   C     C_3   0.724248 0.754962 0.877232 -0.440826
C35   C     C_3   0.826753 0.816490 0.838374 -0.715313
H17   H     H_    0.907189 0.778407 0.854556 0.263795
H18   H     H_    0.815494 0.820472 0.745669 0.244567
H19   H     H_    0.835455 0.897476 0.887381 0.279415
H20   H     H_    0.645870 0.798342 0.870143 0.241468
H21   H     H_    0.743049 0.750966 0.968871 0.262143
H22   H     H_    0.785856 0.607076 0.796448 0.233219
H23   H     H_    0.675263 0.659150 0.719698 0.231060
C36   C     C_3   0.297962 0.360292 0.195077 -0.371507
C37   C     C_3   0.217329 0.273975 0.120486 -0.397302
C38   C     C_3   0.105756 0.255236 0.178071 -0.749592
H24   H     H_    0.124593 0.232120 0.263066 0.254153
H25   H     H_    0.058249 0.327260 0.189333 0.264088
H26   H     H_    0.050216 0.191174 0.123790 0.273649
H27   H     H_    0.194902 0.296097 0.035816 0.246826
H28   H     H_    0.259596 0.199131 0.108918 0.287501
H29   H     H_    0.322214 0.329204 0.273144 0.230449
H30   H     H_    0.245475 0.428143 0.216952 0.224597
Br5   Br    Br    0.416854 0.234523 0.953450 -0.467281
Br6   Br    Br    0.801509 0.558785 0.023784 -0.528524

loop_
_geom_bond_atom_site_label_1
_geom_bond_atom_site_label_2
_ccdc_geom_bond_type
C30   C31   S    
C5    C36   S    
C22   H1    S    
C3    Br5   S    
C18   C21   A    
C7    C30   S    
C1    O1    A    
C29   H4    S    
C38   H24   S    
Cu1   O1    S    
C1    C18   S    
C23   Br2   S    
C19   C21   A    
C24   C26   A    
C36   H30   S    
C32   H11   S    
C4    Br6   S    
C20   C25   A    
C15   C16   S    
C28   H7    S    
C33   H22   S    
C31   C32   S    
C11   O5    A    
C19   C26   A    
C8    C27   S    
C6    C33   S    
C34   H21   S    
C29   H3    S    
Cu2   O3    S    
C30   H15   S    
C9    C10   A    
C5    N2    A    
C2    O2    A    
C34   C35   S    
C27   H8    S    
C2    C17   S    
C24   Br1   S    
C20   Br4   S    
C19   Br3   S    
C29   H5    S    
C38   H25   S    
C17   C24   A    
Cu1   N1    S    
C35   H17   S    
Cu2   N2    S    
C37   C38   S    
C4    C6    A    
C37   H28   S    
C32   H12   S    
Cu2   O7    S    
C25   C26   A    
C27   C28   S    
C28   H6    S    
C33   H23   S    
C18   C23   A    
C35   H18   S    
C12   O8    A    
C36   C37   S    
C34   H20   S    
Cu2   O6    S    
Cu1   O8    S    
C30   H16   S    
C11   O7    A    
C12   C14   S    
C27   H9    S    
C13   C15   T    
C14   C16   T    
C1    O3    A    
C38   H26   S    
C2    O4    A    
C7    C9    A    
C28   C29   S    
C7    N2    A    
C8    N1    A    
C20   C22   A    
C3    C5    A    
C37   H27   S    
Cu1   O4    S    
C21   H2    S    
C17   C22   A    
C35   H19   S    
C3    C10   A    
C11   C13   S    
C36   H29   S    
C32   H10   S    
Cu1   O5    S    
C6    N1    A    
C31   H14   S    
C23   C25   A    
C12   O6    A    
Cu2   O2    S    
C8    C10   A    
C33   C34   S    
Cu1   Cu2   S    
C31   H13   S    
C4    C9    A    
