data_mof_unit_34954.cif
_audit_creation_date              2012-12-10T16:37:41-0500
_audit_creation_method            fapswitch 2.2
_symmetry_space_group_name_H-M    P1
_symmetry_Int_Tables_number       1
_space_group_crystal_system       triclinic
_cell_length_a                    10.859178
_cell_length_b                    10.835278
_cell_length_c                    15.363702
_cell_angle_alpha                 96.090645
_cell_angle_beta                  75.162285
_cell_angle_gamma                 98.5738
_cell_volume                      1723.55194918

loop_
_atom_site_label
_atom_site_type_symbol
_atom_type_description
_atom_site_fract_x
_atom_site_fract_y
_atom_site_fract_z
_atom_type_partial_charge
C1    C     C_R   0.158035 0.476899 0.520719 0.542435
C2    C     C_R   0.514538 0.479032 0.114629 -0.098001
C3    C     C_R   0.632196 0.308156 0.120390 0.159128
C4    C     C_R   0.842353 0.525169 0.482000 0.525891
C5    C     C_R   0.403039 0.559806 0.844684 -0.018358
C6    C     C_2   0.977947 0.549262 0.482890 0.181705
C7    C     C_2   0.023856 0.468273 0.522798 -0.080527
C8    C     C_2   0.545674 0.969751 0.473699 0.243580
C9    C     C_2   0.456694 0.034827 0.527295 -0.005713
C10   C     C_R   0.466967 0.167536 0.521555 0.569714
C11   C     C_R   0.530876 0.834198 0.480347 0.522699
C12   C     C_R   0.287625 0.656787 0.987710 0.266802
C13   C     C_R   0.554893 0.445223 0.258113 0.575501
C14   C     C_R   0.442402 0.550884 0.743316 0.581564
C15   C     C_R   0.606601 0.253217 0.037623 0.218583
C16   C     C_R   0.577811 0.416391 0.160505 -0.028645
C17   C     C_R   0.338213 0.661334 0.893632 0.185916
C18   C     C_R   0.325995 0.572155 0.035512 0.268674
C19   C     C_R   0.417715 0.492186 0.988779 -0.063586
C20   C     C_R   0.431157 0.467939 0.895067 -0.041507
C21   C     C_R   0.489972 0.429847 0.031830 -0.017916
C22   C     C_R   0.545569 0.321313 0.988746 0.001772
C23   C     C_R   0.538087 0.285416 0.898521 0.257930
C24   C     C_R   0.467402 0.350399 0.856742 0.260706
H1    H     H_    0.964748 0.382405 0.546237 0.112440
H2    H     H_    0.139083 0.739641 0.997016 0.376485
H3    H     H_    0.420960 0.201516 0.782643 0.340889
H4    H     H_    0.019618 0.684837 0.313502 0.392855
H5    H     H_    0.373252 0.990533 0.574228 0.115382
H6    H     H_    0.482888 0.566728 0.145564 0.190583
H7    H     H_    0.854457 0.427838 0.181276 0.365833
H8    H     H_    0.705852 0.970321 0.380260 0.377097
H9    H     H_    0.623921 0.206526 0.783143 0.344969
H10   H     H_    0.424939 0.035289 0.009516 0.369509
H11   H     H_    0.271762 0.983121 0.880468 0.378146
H12   H     H_    0.209060 0.415383 0.247774 0.381897
O1    O     O_3   0.500000 0.500000 0.500000 -0.492273
O2    O     O_R   0.463530 0.379110 0.309170 -0.496464
O3    O     O_R   0.388210 0.611730 0.699360 -0.473255
O4    O     O_R   0.624720 0.532760 0.292120 -0.509974
O5    O     O_R   0.523540 0.476390 0.699360 -0.501836
O6    O     O_2   0.660296 0.160475 0.241828 -0.170311
O7    O     O_2   0.836718 0.182934 0.105726 -0.170446
O8    O     O_3   0.814798 0.367110 0.227475 -0.485007
O9    O     O_3   0.648622 0.031552 0.413979 -0.629688
O10   O     O_3   0.610662 0.196167 0.848380 -0.597488
O11   O     O_2   0.749793 0.080524 0.939472 -0.143924
O12   O     O_R   0.537910 0.240570 0.564270 -0.509626
O13   O     O_2   0.619287 0.020767 0.087290 -0.184360
O14   O     O_3   0.503677 0.022124 0.961857 -0.405459
O15   O     O_2   0.443078 0.839810 0.776696 -0.240848
O16   O     O_2   0.215701 0.758832 0.790479 -0.246068
O17   O     O_3   0.275391 0.914162 0.916880 -0.472970
O18   O     O_2   0.274304 0.653439 0.209520 -0.225286
O19   O     O_2   0.092986 0.550705 0.151028 -0.244766
O20   O     O_3   0.247007 0.409995 0.181793 -0.504873
O21   O     O_3   0.198951 0.733688 0.035011 -0.551264
O22   O     O_3   0.418497 0.292996 0.785706 -0.679562
O23   O     O_R   0.438950 0.782540 0.540270 -0.517292
O24   O     O_2   0.073883 0.785119 0.518480 -0.215448
O25   O     O_2   0.207825 0.667039 0.395722 -0.259365
O26   O     O_3   0.009401 0.746927 0.366153 -0.429983
O27   O     O_R   0.222350 0.398740 0.468260 -0.538340
O28   O     O_R   0.800790 0.578160 0.427210 -0.489662
O29   O     O_R   0.212140 0.566330 0.564260 -0.475110
O30   O     O_R   0.764730 0.456770 0.540270 -0.555021
O31   O     O_R   0.412790 0.208310 0.468260 -0.501273
O32   O     O_R   0.610350 0.768590 0.427210 -0.531100
S1    S     S_3+6 0.737675 0.249434 0.173539 0.110523
S2    S     S_3+6 0.623896 0.091262 0.007201 0.154716
S3    S     S_3+6 0.318711 0.794925 0.841140 0.067908
S4    S     S_3+6 0.232202 0.548242 0.147431 0.061386
S5    S     S_3+6 0.072007 0.689361 0.440427 0.088724
Zn1   Zn    Zn3+2 0.580150 0.419820 0.574680 1.014251
Zn2   Zn    Zn3+2 0.401380 0.373730 0.437510 1.056119
Zn3   Zn    Zn3+2 0.631680 0.593260 0.413140 1.060191
Zn4   Zn    Zn3+2 0.386790 0.613180 0.574670 1.080090

loop_
_geom_bond_atom_site_label_1
_geom_bond_atom_site_label_2
_ccdc_geom_bond_type
O1    Zn1   S    
H11   O17   S    
H8    O9    S    
C19   C20   A    
O23   Zn4   S    
C5    C20   A    
C10   O31   A    
O3    Zn4   S    
C19   C21   A    
C5    C17   A    
O30   Zn1   S    
O24   S5    D    
C18   C19   A    
C8    O9    S    
C13   O4    A    
O5    Zn1   S    
C15   C22   A    
C20   C24   A    
C8    C9    D    
O20   S4    S    
C12   C17   A    
C1    O29   A    
C23   C24   A    
O26   S5    S    
C2    C16   A    
C9    C10   S    
O19   S4    D    
C9    H5    S    
O1    Zn2   S    
O7    S1    D    
C23   O10   S    
C21   C22   A    
H9    O10   S    
O15   S3    D    
C11   O23   A    
C1    O27   A    
O2    Zn2   S    
C18   S4    S    
C14   O3    A    
H10   O14   S    
O29   Zn4   S    
H7    O8    S    
O12   Zn1   S    
C4    C6    S    
C5    C14   S    
O25   S5    D    
O1    Zn4   S    
O6    S1    D    
O4    Zn3   S    
O11   S2    D    
H12   O20   S    
C2    C21   A    
O28   Zn3   S    
O8    S1    S    
C13   O2    A    
C14   O5    A    
C12   O21   S    
O1    Zn3   S    
C17   S3    S    
O13   S2    D    
C10   O12   A    
O31   Zn2   S    
O17   S3    S    
C3    C15   A    
C11   O32   A    
C6    S5    S    
C15   S2    S    
C3    S1    S    
C1    C7    S    
H3    O22   S    
C6    C7    D    
O32   Zn3   S    
C4    O28   A    
C7    H1    S    
C2    H6    S    
O14   S2    S    
O16   S3    D    
C4    O30   A    
O27   Zn2   S    
C8    C11   S    
H2    O21   S    
O18   S4    D    
C24   O22   S    
C13   C16   S    
C12   C18   A    
C22   C23   A    
C3    C16   A    
H4    O26   S    
