data_mof_unit_34830.cif
_audit_creation_date              2012-12-11T15:12:26-0500
_audit_creation_method            fapswitch 2.2
_symmetry_space_group_name_H-M    P1
_symmetry_Int_Tables_number       1
_space_group_crystal_system       triclinic
_cell_length_a                    30.967755
_cell_length_b                    22.340255
_cell_length_c                    18.088109
_cell_angle_alpha                 89.39993
_cell_angle_beta                  124.440238
_cell_angle_gamma                 90.846594
_cell_volume                      10319.2199857

loop_
_atom_site_label
_atom_site_type_symbol
_atom_type_description
_atom_site_fract_x
_atom_site_fract_y
_atom_site_fract_z
_atom_type_partial_charge
C1    C     C_R   0.533236 0.611163 0.703655 -0.067489
C2    C     C_R   0.466781 0.388752 0.296434 -0.063672
C3    C     C_R   0.467247 0.611461 0.295632 -0.063550
C4    C     C_R   0.532859 0.389159 0.705486 -0.064198
C5    C     C_R   0.047121 0.078471 0.746434 -0.068073
C6    C     C_R   0.952487 0.922449 0.252913 -0.047885
C7    C     C_R   0.952520 0.078925 0.252934 -0.073522
C8    C     C_R   0.047450 0.920588 0.746765 -0.072475
C9    C     C_R   0.774959 0.352165 0.561402 -0.019489
C10   C     C_R   0.251304 0.642452 0.522555 -0.040488
C11   C     C_R   0.218781 0.360075 0.431742 -0.008423
C12   C     C_R   0.780213 0.642979 0.568159 -0.021906
C13   C     C_R   0.215232 0.803291 0.478314 -0.043965
C14   C     C_R   0.779471 0.251978 0.402738 -0.022443
C15   C     C_R   0.793441 0.729472 0.404523 -0.017183
C16   C     C_R   0.205830 0.272642 0.595040 -0.015263
C17   C     C_R   0.759523 0.319400 0.483368 0.002073
C18   C     C_R   0.249265 0.703382 0.497818 0.009740
C19   C     C_R   0.230380 0.334698 0.513009 0.015970
C20   C     C_R   0.768307 0.669229 0.487197 0.000983
C21   C     C_R   0.215965 0.742236 0.501057 0.012062
C22   C     C_R   0.796134 0.286362 0.479796 0.009190
C23   C     C_R   0.806589 0.701394 0.485033 0.006298
C24   C     C_R   0.192619 0.300706 0.514475 0.010003
C25   C     C_R   0.706465 0.315175 0.411491 0.069750
C26   C     C_R   0.281019 0.725663 0.470380 0.098424
C27   C     C_R   0.281528 0.337363 0.591053 0.068783
C28   C     C_R   0.716660 0.669005 0.410328 0.063423
C29   C     C_R   0.183379 0.720227 0.527103 0.087378
C30   C     C_R   0.848146 0.283202 0.556093 0.069049
C31   C     C_R   0.856221 0.710861 0.565242 0.067531
C32   C     C_R   0.143710 0.289433 0.433696 0.065327
C33   C     C_R   0.828219 0.353749 0.633843 0.492233
C34   C     C_R   0.218772 0.620946 0.548567 0.488111
C35   C     C_R   0.167470 0.354766 0.353554 0.496295
C36   C     C_R   0.832018 0.646263 0.645440 0.497274
C37   C     C_R   0.247203 0.824852 0.451297 0.518784
C38   C     C_R   0.727452 0.254916 0.326728 0.468290
C39   C     C_R   0.743530 0.720546 0.324679 0.469056
C40   C     C_R   0.254833 0.283914 0.675656 0.472201
C41   C     C_R   0.279851 0.785607 0.447220 -0.220193
C42   C     C_R   0.690991 0.285502 0.332535 -0.239345
C43   C     C_R   0.704988 0.691775 0.328812 -0.238398
C44   C     C_R   0.292839 0.315059 0.672588 -0.226029
C45   C     C_R   0.864339 0.318771 0.631037 -0.229803
C46   C     C_R   0.184835 0.660057 0.550349 -0.264861
C47   C     C_R   0.130432 0.319045 0.354906 -0.217717
C48   C     C_R   0.869494 0.680820 0.643733 -0.228139
C49   C     C_R   0.408554 0.704572 0.228970 0.123006
C50   C     C_R   0.591980 0.296755 0.774556 0.120159
C51   C     C_R   0.592232 0.704716 0.769143 0.119294
C52   C     C_R   0.407877 0.295001 0.231725 0.121837
C53   C     C_R   0.867097 0.108524 0.105003 0.110383
C54   C     C_R   0.132368 0.889464 0.893850 0.113494
C55   C     C_R   0.131775 0.107588 0.894834 0.109067
C56   C     C_R   0.867676 0.893891 0.104379 0.107428
C57   C     C_R   0.420220 0.786861 0.152884 -0.086537
C58   C     C_R   0.581115 0.216097 0.853823 -0.070086
C59   C     C_R   0.579884 0.786360 0.842849 -0.073150
C60   C     C_R   0.420249 0.212924 0.158674 -0.072722
C61   C     C_R   0.859530 0.144781 0.971127 -0.077419
C62   C     C_R   0.138904 0.851863 0.026238 -0.074068
C63   C     C_R   0.137337 0.143730 0.026182 -0.071990
C64   C     C_R   0.861855 0.858323 0.972540 -0.076074
C65   C     C_R   0.437217 0.732967 0.200035 -0.169725
C66   C     C_R   0.564032 0.269614 0.805766 -0.167729
C67   C     C_R   0.563145 0.732235 0.796725 -0.165303
C68   C     C_R   0.437097 0.267095 0.204711 -0.167390
C69   C     C_R   0.889952 0.122591 0.058537 -0.171685
C70   C     C_R   0.108899 0.874037 0.938880 -0.175202
C71   C     C_R   0.107723 0.122154 0.938657 -0.170088
C72   C     C_R   0.891559 0.879899 0.060071 -0.165923
C73   C     C_R   0.364716 0.733505 0.215483 -0.193926
C74   C     C_R   0.635221 0.267060 0.786972 -0.184179
C75   C     C_R   0.636264 0.734715 0.782917 -0.182354
C76   C     C_R   0.363641 0.265316 0.217601 -0.181722
C77   C     C_R   0.812679 0.113106 0.059920 -0.192243
C78   C     C_R   0.186967 0.886149 0.940312 -0.198880
C79   C     C_R   0.186438 0.110977 0.942652 -0.184020
C80   C     C_R   0.813053 0.890056 0.056978 -0.185116
C81   C     C_R   0.346178 0.787293 0.166549 0.077264
C82   C     C_R   0.653852 0.213594 0.836731 0.076436
C83   C     C_R   0.654399 0.788962 0.830542 0.077696
C84   C     C_R   0.345410 0.211054 0.170093 0.078152
C85   C     C_R   0.781239 0.135852 0.972132 0.076198
C86   C     C_R   0.218029 0.863170 0.028135 0.075429
C87   C     C_R   0.217099 0.133471 0.030618 0.077286
C88   C     C_R   0.782315 0.867549 0.969022 0.076123
C89   C     C_R   0.644370 0.584508 0.572909 -0.209368
C90   C     C_R   0.355126 0.417170 0.427647 -0.205679
C91   C     C_R   0.355137 0.580820 0.424394 -0.230331
C92   C     C_R   0.643662 0.414750 0.573648 -0.209838
C93   C     C_R   0.122519 0.112267 0.575213 -0.167093
C94   C     C_R   0.878119 0.887460 0.424702 -0.163513
C95   C     C_R   0.877158 0.111189 0.423718 -0.175032
C96   C     C_R   0.126157 0.890638 0.575973 -0.187242
C97   C     C_R   0.373453 0.813000 0.131821 -0.012018
C98   C     C_R   0.627254 0.189073 0.873456 -0.020025
C99   C     C_R   0.626756 0.813731 0.864121 -0.013430
C100  C     C_R   0.373153 0.185912 0.136959 -0.012619
C101  C     C_R   0.805635 0.154522 0.928779 -0.006178
C102  C     C_R   0.193043 0.843326 0.070022 -0.001185
C103  C     C_R   0.191654 0.152625 0.071270 -0.008251
C104  C     C_R   0.807632 0.848857 0.927943 -0.008224
C105  C     C_R   0.297927 0.812141 0.142917 0.021673
C106  C     C_R   0.701542 0.187861 0.858976 0.016788
C107  C     C_R   0.702642 0.815205 0.854204 0.015784
C108  C     C_R   0.296959 0.185219 0.146007 0.015327
C109  C     C_R   0.727225 0.147001 0.931253 0.008176
C110  C     C_R   0.272360 0.853054 0.070644 0.012197
C111  C     C_R   0.271585 0.144129 0.074282 0.014082
C112  C     C_R   0.727939 0.856380 0.925837 0.012420
C113  C     C_R   0.725325 0.203086 0.813795 -0.275422
C114  C     C_R   0.273510 0.795924 0.186683 -0.284940
C115  C     C_R   0.272135 0.200743 0.188661 -0.272410
C116  C     C_R   0.727336 0.800054 0.811187 -0.274772
C117  C     C_R   0.301468 0.880838 0.041497 -0.279015
C118  C     C_R   0.698635 0.120305 0.962189 -0.264656
C119  C     C_R   0.698598 0.883144 0.954009 -0.261221
C120  C     C_R   0.300988 0.116970 0.046518 -0.259008
C121  C     C_R   0.776075 0.185086 0.846372 0.466960
C122  C     C_R   0.222307 0.812842 0.152520 0.477324
C123  C     C_R   0.220691 0.183017 0.153700 0.473571
C124  C     C_R   0.778598 0.818319 0.845632 0.469841
C125  C     C_R   0.352054 0.862555 0.073709 0.463645
C126  C     C_R   0.648660 0.139721 0.931931 0.484687
C127  C     C_R   0.647930 0.863573 0.921459 0.477797
C128  C     C_R   0.351846 0.136096 0.079580 0.477640
C129  C     C_R   0.594302 0.583201 0.424204 0.421137
C130  C     C_R   0.405334 0.419118 0.576261 0.404274
C131  C     C_R   0.403851 0.581426 0.572796 0.465407
C132  C     C_R   0.593712 0.415932 0.424757 0.424626
C133  C     C_R   0.076211 0.111792 0.426360 0.459135
C134  C     C_R   0.924414 0.887681 0.573470 0.459199
C135  C     C_R   0.922595 0.110689 0.572568 0.467546
C136  C     C_R   0.077636 0.890935 0.426327 0.473730
C137  C     C_R   0.394376 0.609519 0.293937 -0.103135
C138  C     C_R   0.605887 0.390855 0.707364 -0.099936
C139  C     C_R   0.606110 0.609946 0.705485 -0.098035
C140  C     C_R   0.394020 0.389920 0.295059 -0.099410
C141  C     C_R   0.881722 0.079937 0.255071 -0.131748
C142  C     C_R   0.118104 0.918546 0.743939 -0.124234
C143  C     C_R   0.118347 0.080025 0.745395 -0.129687
C144  C     C_R   0.881504 0.920438 0.254403 -0.132647
C145  C     C_R   0.578153 0.644013 0.728900 0.018070
C146  C     C_R   0.421952 0.355810 0.271619 0.017965
C147  C     C_R   0.422615 0.643964 0.270137 0.015888
C148  C     C_R   0.577696 0.356826 0.731844 0.018199
C149  C     C_R   0.099982 0.092620 0.798006 0.036664
C150  C     C_R   0.899638 0.908379 0.201381 0.033806
C151  C     C_R   0.899742 0.093013 0.201848 0.035080
C152  C     C_R   0.100036 0.905539 0.797216 0.030226
C153  C     C_R   0.643180 0.600628 0.497626 -0.049149
C154  C     C_R   0.355954 0.402834 0.503264 -0.047226
C155  C     C_R   0.355528 0.593856 0.497695 -0.056348
C156  C     C_R   0.641545 0.397711 0.498580 -0.052588
C157  C     C_R   0.108722 0.147575 0.501816 -0.049801
C158  C     C_R   0.892332 0.851817 0.497900 -0.052430
C159  C     C_R   0.888936 0.144992 0.496137 -0.058576
C160  C     C_R   0.113431 0.858688 0.501927 -0.086279
C161  C     C_R   0.668976 0.338088 0.420869 -0.104711
C162  C     C_R   0.314418 0.687706 0.467918 -0.178993
C163  C     C_R   0.321730 0.357754 0.585337 -0.096091
C164  C     C_R   0.676620 0.649764 0.417156 -0.102361
C165  C     C_R   0.149408 0.758994 0.528398 -0.166426
C166  C     C_R   0.881468 0.240487 0.558865 -0.110623
C167  C     C_R   0.889068 0.755425 0.567563 -0.112439
C168  C     C_R   0.111654 0.243783 0.431333 -0.109812
C169  C     C_R   0.683273 0.372051 0.495654 0.109286
C170  C     C_R   0.317334 0.628841 0.494694 0.103215
C171  C     C_R   0.311547 0.383151 0.506156 0.100994
C172  C     C_R   0.687252 0.622219 0.495304 0.105665
C173  C     C_R   0.148765 0.818287 0.504526 0.117622
C174  C     C_R   0.862129 0.200558 0.487376 0.111672
C175  C     C_R   0.871171 0.791192 0.491497 0.101934
C176  C     C_R   0.129819 0.208202 0.507695 0.101126
C177  C     C_R   0.736147 0.380173 0.565462 -0.134709
C178  C     C_R   0.286491 0.605305 0.521430 -0.065961
C179  C     C_R   0.259711 0.386474 0.430248 -0.137814
C180  C     C_R   0.739273 0.617195 0.570128 -0.136574
C181  C     C_R   0.181996 0.841019 0.482382 -0.070203
C182  C     C_R   0.813268 0.210312 0.407199 -0.154978
C183  C     C_R   0.827592 0.772056 0.408386 -0.154268
C184  C     C_R   0.172889 0.228112 0.590835 -0.152501
H1    H     H_    0.502574 0.625767 0.709418 0.155908
H2    H     H_    0.497406 0.374185 0.290359 0.146164
H3    H     H_    0.498034 0.626466 0.289270 0.146577
H4    H     H_    0.501987 0.374736 0.712161 0.145758
H5    H     H_    0.024266 0.069539 0.773283 0.163504
H6    H     H_    0.974865 0.932482 0.225479 0.159305
H7    H     H_    0.974863 0.070708 0.225295 0.163946
H8    H     H_    0.025316 0.928960 0.774769 0.164576
H9    H     H_    0.656503 0.288218 0.763098 0.115731
H10   H     H_    0.342800 0.711492 0.237487 0.113324
H11   H     H_    0.341197 0.287135 0.237761 0.116535
H12   H     H_    0.658575 0.713179 0.762248 0.116991
H13   H     H_    0.204664 0.896902 0.905045 0.116679
H14   H     H_    0.795456 0.103862 0.096320 0.123305
H15   H     H_    0.795075 0.899645 0.091770 0.123884
H16   H     H_    0.204555 0.100931 0.908234 0.122464
H17   H     H_    0.529929 0.290492 0.796161 0.140823
H18   H     H_    0.471838 0.712814 0.210677 0.140659
H19   H     H_    0.472081 0.287777 0.215890 0.139347
H20   H     H_    0.528349 0.711278 0.785924 0.147522
H21   H     H_    0.066964 0.876444 0.905683 0.156012
H22   H     H_    0.931729 0.119143 0.090635 0.154508
H23   H     H_    0.933573 0.882750 0.093977 0.158510
H24   H     H_    0.065671 0.119672 0.904413 0.156286
H25   H     H_    0.442584 0.805996 0.129153 0.193547
H26   H     H_    0.559307 0.197917 0.879196 0.193680
H27   H     H_    0.557205 0.804726 0.865615 0.193125
H28   H     H_    0.443020 0.194251 0.136292 0.192656
H29   H     H_    0.879195 0.157259 0.939234 0.196980
H30   H     H_    0.118762 0.838446 0.056943 0.198415
H31   H     H_    0.116810 0.156602 0.055885 0.196674
H32   H     H_    0.882273 0.845849 0.942480 0.197099
H33   H     H_    0.704680 0.228183 0.751807 0.171891
H34   H     H_    0.293978 0.770815 0.248698 0.161434
H35   H     H_    0.292484 0.225978 0.250365 0.172548
H36   H     H_    0.707017 0.774724 0.749576 0.172276
H37   H     H_    0.285776 0.917775 0.994571 0.174921
H38   H     H_    0.714280 0.083388 0.009156 0.173872
H39   H     H_    0.714228 0.920192 0.000487 0.171621
H40   H     H_    0.285260 0.079958 0.999976 0.170978
H41   H     H_    0.678411 0.583064 0.641262 0.140660
H42   H     H_    0.321065 0.418957 0.359334 0.138811
H43   H     H_    0.321679 0.580572 0.355348 0.152595
H44   H     H_    0.677777 0.415373 0.642020 0.141707
H45   H     H_    0.147315 0.123802 0.644948 0.136033
H46   H     H_    0.853437 0.876008 0.354955 0.136256
H47   H     H_    0.852949 0.123127 0.353933 0.136789
H48   H     H_    0.156398 0.880928 0.645239 0.144451
H49   H     H_    0.357682 0.620075 0.284159 0.103931
H50   H     H_    0.642845 0.380396 0.718039 0.108101
H51   H     H_    0.642848 0.621180 0.714896 0.108979
H52   H     H_    0.357464 0.378628 0.286336 0.109155
H53   H     H_    0.841406 0.075094 0.233062 0.107878
H54   H     H_    0.158404 0.921896 0.765418 0.100283
H55   H     H_    0.158789 0.075942 0.768247 0.108073
H56   H     H_    0.841106 0.924680 0.231749 0.110020
H57   H     H_    0.628260 0.327773 0.370188 0.152215
H58   H     H_    0.339583 0.704163 0.447888 0.124192
H59   H     H_    0.361220 0.349525 0.641765 0.166096
H60   H     H_    0.637009 0.659427 0.362148 0.164246
H61   H     H_    0.123244 0.743390 0.546605 0.135644
H62   H     H_    0.920768 0.235783 0.618475 0.166106
H63   H     H_    0.926016 0.765220 0.629967 0.170306
H64   H     H_    0.075060 0.233278 0.368754 0.171448
H65   H     H_    0.746475 0.406645 0.623097 0.176108
H66   H     H_    0.290695 0.558722 0.541457 0.197119
H67   H     H_    0.251871 0.406469 0.369241 0.171977
H68   H     H_    0.747381 0.595774 0.630478 0.175115
H69   H     H_    0.180541 0.888206 0.466641 0.196268
H70   H     H_    0.798502 0.180669 0.351127 0.176818
H71   H     H_    0.816050 0.795453 0.347755 0.173735
H72   H     H_    0.184826 0.204425 0.651463 0.173034
H73   H     H_    0.304467 0.801991 0.426181 0.172601
H74   H     H_    0.650227 0.284585 0.276249 0.192560
H75   H     H_    0.665410 0.689110 0.268954 0.195833
H76   H     H_    0.331931 0.319558 0.733271 0.194309
H77   H     H_    0.904543 0.317343 0.689051 0.188578
H78   H     H_    0.159653 0.643466 0.570049 0.180743
H79   H     H_    0.092351 0.311598 0.293105 0.189951
H80   H     H_    0.908072 0.686860 0.705034 0.189007
N1    N     N_R   0.532970 0.559900 0.665210 -0.037998
N2    N     N_R   0.467030 0.440100 0.334790 -0.036367
N3    N     N_R   0.467030 0.559900 0.334790 -0.036207
N4    N     N_R   0.532970 0.440100 0.665210 -0.037236
N5    N     N_R   0.032970 0.059900 0.665210 -0.057049
N6    N     N_R   0.967030 0.940100 0.334790 -0.056754
N7    N     N_R   0.967030 0.059900 0.334790 -0.057824
N8    N     N_R   0.032970 0.940100 0.665210 -0.057727
N9    N     N_R   0.597900 0.559930 0.545530 -0.067676
N10   N     N_R   0.402100 0.440070 0.454470 -0.066441
N11   N     N_R   0.402100 0.559930 0.454470 -0.069567
N12   N     N_R   0.597900 0.440070 0.545530 -0.067041
N13   N     N_R   0.097900 0.059930 0.545530 -0.062016
N14   N     N_R   0.902100 0.940070 0.454470 -0.061063
N15   N     N_R   0.902100 0.059930 0.454470 -0.059843
N16   N     N_R   0.097900 0.940070 0.545530 -0.061366
N17   N     N_R   0.567170 0.559950 0.454460 -0.085275
N18   N     N_R   0.432830 0.440050 0.545540 -0.085777
N19   N     N_R   0.432830 0.559950 0.545540 -0.095036
N20   N     N_R   0.567170 0.440050 0.454460 -0.085705
N21   N     N_R   0.067170 0.059950 0.454460 -0.078925
N22   N     N_R   0.932830 0.940050 0.545540 -0.077436
N23   N     N_R   0.932830 0.059950 0.545540 -0.078920
N24   N     N_R   0.067170 0.940050 0.454460 -0.083918
N25   N     N_R   0.421470 0.559970 0.334770 -0.047626
N26   N     N_R   0.578530 0.440030 0.665230 -0.048762
N27   N     N_R   0.578530 0.559970 0.665230 -0.048742
N28   N     N_R   0.421470 0.440030 0.334770 -0.048875
N29   N     N_R   0.921470 0.059970 0.334770 -0.049262
N30   N     N_R   0.078530 0.940030 0.665230 -0.046663
N31   N     N_R   0.078530 0.059970 0.665230 -0.050219
N32   N     N_R   0.921470 0.940030 0.334770 -0.050731
Ni1   Ni    Ni4+2 0.483030 0.500000 0.604430 0.314166
Ni2   Ni    Ni4+2 0.516970 0.500000 0.395570 0.321319
Ni3   Ni    Ni4+2 0.983030 0.000000 0.604430 0.276341
Ni4   Ni    Ni4+2 0.016970 1.000000 0.395570 0.274157
Ni5   Ni    Ni4+2 0.587400 0.500000 0.604430 0.218899
Ni6   Ni    Ni4+2 0.412600 0.500000 0.395570 0.214634
Ni7   Ni    Ni4+2 0.087400 0.000000 0.604430 0.213455
Ni8   Ni    Ni4+2 0.912600 1.000000 0.395570 0.219082
Cl1   Cl    Cl    0.577403 0.568507 0.315240 -0.601410
Cl2   Cl    Cl    0.422727 0.437673 0.684399 -0.606821
Cl3   Cl    Cl    0.418877 0.580208 0.682245 -0.573874
Cl4   Cl    Cl    0.578693 0.428842 0.316235 -0.592987
Cl5   Cl    Cl    0.067472 0.120325 0.322048 -0.650844
Cl6   Cl    Cl    0.933080 0.878334 0.677623 -0.656646
Cl7   Cl    Cl    0.932946 0.120277 0.677710 -0.654601
Cl8   Cl    Cl    0.064621 0.880316 0.319311 -0.631562
Cl9   Cl    Cl    0.850877 0.395311 0.731882 -0.546550
Cl10  Cl    Cl    0.218885 0.545600 0.578855 -0.594178
Cl11  Cl    Cl    0.149087 0.387320 0.250584 -0.563723
Cl12  Cl    Cl    0.850667 0.612503 0.747841 -0.542116
Cl13  Cl    Cl    0.247320 0.900087 0.420640 -0.552151
Cl14  Cl    Cl    0.704955 0.217245 0.225467 -0.587439
Cl15  Cl    Cl    0.725525 0.750145 0.220108 -0.602793
Cl16  Cl    Cl    0.272560 0.254669 0.780244 -0.600713
Cl17  Cl    Cl    0.802319 0.206813 0.785190 -0.590242
Cl18  Cl    Cl    0.195116 0.789763 0.211640 -0.610678
Cl19  Cl    Cl    0.193030 0.205137 0.211647 -0.575773
Cl20  Cl    Cl    0.806098 0.796656 0.787236 -0.582177
Cl21  Cl    Cl    0.385142 0.900206 0.033052 -0.549631
Cl22  Cl    Cl    0.616446 0.103719 0.975443 -0.512829
Cl23  Cl    Cl    0.614535 0.899854 0.961017 -0.531042
Cl24  Cl    Cl    0.385330 0.099331 0.040580 -0.529648

loop_
_geom_bond_atom_site_label_1
_geom_bond_atom_site_label_2
_ccdc_geom_bond_type
C105  C110  A    
N2    Ni2   S    
C18   C21   A    
C33   C45   A    
C107  C112  A    
C30   C45   A    
C92   C156  A    
N10   N18   A    
C103  C123  A    
C139  N27   A    
C123  Cl19  S    
C69   H22   S    
C170  C178  A    
C86   C110  A    
C183  H71   S    
C6    N6    A    
C51   C145  S    
C4    C148  A    
C5    C149  A    
C62   C70   A    
N3    Ni2   S    
C66   H17   S    
C129  Cl1   S    
C56   C72   A    
N15   Ni8   S    
C92   N12   A    
C116  C124  A    
C161  H57   S    
C135  Cl7   S    
C136  Cl8   S    
C53   C69   A    
C141  C151  A    
C73   H10   S    
C89   N9    A    
N25   Ni6   S    
C62   H30   S    
N10   Ni6   S    
C73   C81   A    
C14   C182  A    
C109  C118  A    
C93   C157  A    
C57   H25   S    
C166  C174  A    
C115  C123  A    
C96   N16   A    
C143  H55   S    
C89   H41   S    
C54   C152  S    
C130  Cl2   S    
C21   C29   A    
C23   C31   A    
C24   C32   A    
C76   H11   S    
C14   C38   A    
C54   C70   A    
C57   C97   A    
C12   C20   A    
C119  H39   S    
N24   Ni4   S    
C13   C21   A    
C96   C160  A    
N29   Ni8   S    
C60   H28   S    
N8    Ni3   S    
C15   C39   A    
N30   Ni7   S    
C79   C87   A    
C16   C40   A    
C87   C103  A    
C31   C167  A    
C31   C48   A    
C32   C168  A    
C139  H51   S    
C32   C47   A    
C49   C73   A    
C11   C179  A    
C9    C177  A    
C175  C183  A    
C176  C184  A    
C52   C146  S    
C79   H16   S    
C5    N5    A    
C90   H42   S    
C60   C100  A    
C3    H3    S    
N17   Ni2   S    
C16   C184  A    
C1    H1    S    
C142  N30   A    
C108  C111  A    
C17   C25   A    
C4    H4    S    
C11   C35   A    
C5    H5    S    
C80   C88   A    
C143  N31   A    
C144  N32   A    
C131  C155  A    
C134  N22   A    
N5    N31   A    
N6    N32   A    
C143  C149  A    
N1    N27   A    
N2    N28   A    
C55   C71   A    
N15   N23   A    
C3    C147  A    
C118  H38   S    
C160  C173  S    
C1    C145  A    
C58   C98   A    
C174  C182  A    
C131  N19   A    
C6    H6    S    
C95   C159  A    
C108  C115  A    
C8    C152  A    
C10   C18   A    
N7    Ni4   S    
C50   C74   A    
C44   H76   S    
C29   C165  A    
C2    N2    A    
C144  H56   S    
C33   Cl9   S    
C27   C163  A    
C27   C44   A    
C25   C161  A    
C36   Cl12  S    
C163  H59   S    
C34   C46   A    
C116  H36   S    
N11   N19   A    
C77   H14   S    
N12   Ni5   S    
C161  C169  A    
C75   H12   S    
C77   C85   A    
C120  H40   S    
C171  C179  A    
C61   H29   S    
C114  H34   S    
C169  C177  A    
C88   C104  A    
C59   H27   S    
C55   C149  S    
C81   C105  A    
C106  C113  A    
C166  H62   S    
C90   N10   A    
N12   N20   A    
C80   H15   S    
N13   N21   A    
C6    C150  A    
C61   C101  A    
C94   N14   A    
N19   Ni1   S    
C45   H77   S    
C20   C23   A    
C57   C65   A    
C125  Cl21  S    
C130  C154  A    
N26   Ni5   S    
C51   C67   A    
C41   H73   S    
C60   C68   A    
C121  Cl17  S    
C134  C158  A    
C13   C181  A    
N21   Ni4   S    
N22   Ni3   S    
C164  C172  A    
C90   C154  A    
C56   C150  S    
C86   C102  A    
C39   Cl15  S    
C94   H46   S    
N31   Ni7   S    
C50   C148  S    
C168  C176  A    
C131  Cl3   S    
C22   C30   A    
C12   C180  A    
C100  C128  A    
N16   Ni7   S    
C93   N13   A    
C52   C76   A    
C104  C124  A    
C56   C80   A    
C14   C22   A    
C42   H74   S    
C129  C153  A    
C180  H68   S    
C153  C172  S    
N20   Ni2   S    
C132  C156  A    
C154  C171  S    
C36   C48   A    
C133  C157  A    
C82   C106  A    
C37   C41   A    
C107  C116  A    
C157  C176  S    
C136  C160  A    
C158  C175  S    
C40   C44   A    
C113  C121  A    
C35   Cl11  S    
C53   C151  S    
C54   C78   A    
C35   C47   A    
C137  H49   S    
N18   Ni1   S    
N8    N30   A    
C62   C102  A    
C106  C109  A    
C119  C127  A    
C82   C98   A    
C18   C26   A    
C76   C84   A    
N11   Ni6   S    
C70   H21   S    
C11   C19   A    
N23   Ni3   S    
C167  C175  A    
C95   H47   S    
C85   C109  A    
C87   C111  A    
C61   C69   A    
C64   C104  A    
C142  C152  A    
N7    N29   A    
C65   H18   S    
C159  C174  S    
C15   C183  A    
C37   Cl13  S    
C162  H58   S    
C163  C171  A    
C40   Cl16  S    
C172  C180  A    
C74   H9    S    
C173  C181  A    
C94   C158  A    
C83   C99   A    
C9    C33   A    
C7    H7    S    
C132  Cl4   S    
C110  C117  A    
C133  Cl5   S    
C3    N3    A    
C135  C159  A    
C97   C125  A    
C140  C146  A    
C34   Cl10  S    
C99   C127  A    
C26   C162  A    
C101  C121  A    
C84   C100  A    
C53   C77   A    
N16   N24   A    
C140  N28   A    
C55   C79   A    
C141  N29   A    
C162  C170  A    
C177  H65   S    
C137  N25   A    
C181  H69   S    
C7    C151  A    
C63   C103  A    
C71   H24   S    
C132  N20   A    
C133  N21   A    
C138  H50   S    
C2    C146  A    
C164  H60   S    
C142  H54   S    
N14   N22   A    
C91   H43   S    
C137  C147  A    
C51   C75   A    
C25   C42   A    
C112  C119  A    
C120  C128  A    
C4    N4    A    
C20   C28   A    
C28   C43   A    
N1    Ni1   S    
C17   C22   A    
C29   C46   A    
N9    N17   A    
C91   N11   A    
C19   C24   A    
C138  N26   A    
C155  C170  S    
C75   C83   A    
C167  H63   S    
C84   C108  A    
C8    H8    S    
C88   C112  A    
C98   C126  A    
C92   H44   S    
C8    N8    A    
C140  H52   S    
C63   H31   S    
C102  C122  A    
C127  Cl23  S    
N13   Ni7   S    
N14   Ni8   S    
C59   C99   A    
C117  H37   S    
C43   H75   S    
C49   C65   A    
N32   Ni8   S    
N9    Ni5   S    
C38   C42   A    
C165  C173  A    
C156  C169  S    
C179  H67   S    
C49   C147  S    
C67   H20   S    
C58   C66   A    
C178  H66   S    
C144  C150  A    
C128  Cl24  S    
N28   Ni6   S    
C78   H13   S    
C12   C36   A    
C19   C27   A    
C13   C37   A    
C52   C68   A    
C59   C67   A    
C124  Cl20  S    
C15   C23   A    
C16   C24   A    
C68   H19   S    
C115  H35   S    
C113  H33   S    
C72   H23   S    
C58   H26   S    
C95   N15   A    
C10   C178  A    
C105  C114  A    
N3    N25   A    
C96   H48   S    
C165  H61   S    
C30   C166  A    
C138  C148  A    
C39   C43   A    
C47   H79   S    
C48   H80   S    
C111  C120  A    
C38   Cl14  S    
C2    H2    S    
C91   C155  A    
N4    Ni1   S    
C182  H70   S    
C89   C153  A    
C126  Cl22  S    
C10   C34   A    
C129  N17   A    
C50   C66   A    
C122  Cl18  S    
C184  H72   S    
C9    C17   A    
C168  H64   S    
C134  Cl6   S    
C135  N23   A    
N4    N26   A    
C136  N24   A    
N5    Ni3   S    
C85   C101  A    
C28   C164  A    
N6    Ni4   S    
C74   C82   A    
C93   H45   S    
C139  C145  A    
C141  H53   S    
C64   H32   S    
C63   C71   A    
C46   H78   S    
C130  N18   A    
C78   C86   A    
C81   C97   A    
C83   C107  A    
C64   C72   A    
C7    N7    A    
C114  C122  A    
C1    N1    A    
C118  C126  A    
C117  C125  A    
C26   C41   A    
N27   Ni5   S    
