data_mof_unit_5839.cif
_audit_creation_date              2012-12-11T17:14:09-0500
_audit_creation_method            fapswitch 2.2
_symmetry_space_group_name_H-M    P1
_symmetry_Int_Tables_number       1
_space_group_crystal_system       triclinic
_cell_length_a                    18.425784
_cell_length_b                    7.135339
_cell_length_c                    12.545275
_cell_angle_alpha                 89.406255
_cell_angle_beta                  73.121919
_cell_angle_gamma                 90.249219
_cell_volume                      1578.20126732

loop_
_atom_site_label
_atom_site_type_symbol
_atom_type_description
_atom_site_fract_x
_atom_site_fract_y
_atom_site_fract_z
_atom_type_partial_charge
O1    O     O_R   0.453880 0.506200 0.150010 -0.539450
O2    O     O_R   0.546120 0.006200 0.849990 -0.515081
O3    O     O_R   0.604080 0.177770 0.007280 -0.539265
O4    O     O_R   0.395920 0.677770 0.992720 -0.542482
C1    C     C_R   0.635986 0.344692 0.001883 0.723988
C2    C     C_R   0.363972 0.844168 0.998327 0.730451
O5    O     O_R   0.458010 0.176640 0.159130 -0.520724
O6    O     O_R   0.541990 0.676640 0.840870 -0.520873
O7    O     O_R   0.399010 0.004010 0.002930 -0.532639
O8    O     O_R   0.600990 0.504010 0.997070 -0.549391
C3    C     C_R   0.445435 0.343385 0.204197 0.724082
C4    C     C_R   0.554684 0.846246 0.795789 0.740497
O9    O     O_3   0.480810 0.338440 0.948570 -0.347774
O10   O     O_3   0.519190 0.838440 0.051430 -0.383673
V1    V     V_3+5 0.503560 0.064490 0.009540 1.558234
V2    V     V_3+5 0.496440 0.564490 0.990460 1.515401
C5    C     C_R   0.583083 0.814423 0.483363 0.485877
C6    C     C_R   0.417687 0.330267 0.517616 0.414693
H1    H     H_    0.486677 0.808890 0.629605 0.171982
H2    H     H_    0.513841 0.317703 0.370831 0.204549
H3    H     H_    0.672471 0.811242 0.266359 0.181939
H4    H     H_    0.328094 0.323007 0.735014 0.182255
C7    C     C_R   0.589522 0.854194 0.673567 -0.053172
C8    C     C_R   0.410347 0.344353 0.326185 -0.068488
C9    C     C_R   0.941882 0.900682 0.404909 -0.235981
C10   C     C_R   0.057399 0.373297 0.594558 -0.244597
C11   C     C_R   0.906792 0.874969 0.520679 0.168383
C12   C     C_R   0.094171 0.409656 0.480482 0.173858
C13   C     C_R   0.832185 0.801604 0.556516 0.087852
C14   C     C_R   0.171767 0.459667 0.448750 0.085535
C15   C     C_R   0.786802 0.820066 0.482543 0.044504
C16   C     C_R   0.215502 0.404276 0.520340 0.040177
C17   C     C_R   0.823769 0.830351 0.365878 0.058175
C18   C     C_R   0.177778 0.375982 0.635675 0.057277
C19   C     C_R   0.706215 0.834615 0.520547 0.030864
C20   C     C_R   0.295080 0.372766 0.480897 0.062240
C21   C     C_R   0.663328 0.818892 0.443573 0.018643
C22   C     C_R   0.337854 0.351102 0.557855 0.011093
C23   C     C_R   0.701808 0.813408 0.329136 -0.102972
C24   C     C_R   0.299231 0.343465 0.672407 -0.161534
C25   C     C_R   0.780200 0.822111 0.291082 -0.197016
C26   C     C_R   0.220854 0.351608 0.710272 -0.181119
C27   C     C_R   0.667432 0.878479 0.631993 -0.240384
C28   C     C_R   0.332009 0.346493 0.366856 -0.253147
C29   C     C_R   0.547513 0.821335 0.598657 -0.035183
C30   C     C_R   0.453049 0.331575 0.401930 -0.003005
C31   C     C_R   0.903061 0.858932 0.326548 -0.124548
C32   C     C_R   0.097787 0.371013 0.673898 -0.124012
H5    H     H_    0.697319 0.925849 0.689137 0.114452
H6    H     H_    0.300331 0.326576 0.307609 0.110211
H7    H     H_    0.999909 0.948250 0.375086 0.129243
H8    H     H_    0.997132 0.352391 0.622710 0.133335
H9    H     H_    0.806151 0.826586 0.201816 0.125893
H10   H     H_    0.194335 0.335557 0.799008 0.126778
C33   C     C_1   0.216366 0.859119 0.000522 -0.182471
C34   C     C_1   0.783519 0.358511 0.000124 -0.187525
C35   C     C_1   0.283457 0.852119 0.999311 -0.170394
C36   C     C_1   0.716430 0.352809 0.001207 -0.166446
O11   O     O_R   0.899030 0.205490 0.002790 -0.533453
O12   O     O_R   0.100970 0.705490 0.997210 -0.532753
O13   O     O_R   0.042000 0.536370 0.840840 -0.533697
O14   O     O_R   0.958000 0.036370 0.159160 -0.533145
C37   C     C_R   0.056757 0.369882 0.795504 0.697053
C38   C     C_R   0.943244 0.867702 0.204502 0.697817
O15   O     O_R   0.895930 0.535070 0.992690 -0.537292
O16   O     O_R   0.104070 0.035070 0.007310 -0.540058
O17   O     O_R   0.953870 0.707520 0.150040 -0.535598
O18   O     O_R   0.046130 0.207520 0.849960 -0.535095
C39   C     C_R   0.864081 0.366568 0.998864 0.726343
C40   C     C_R   0.135865 0.867055 0.001438 0.725310
O19   O     O_3   0.019200 0.374340 0.051340 -0.373657
O20   O     O_3   0.980800 0.874340 0.948660 -0.372970
V3    V     V_3+5 0.996440 0.648350 0.990470 1.414381
V4    V     V_3+5 0.003560 0.148350 0.009530 1.410766
S1    S     S_3+6 0.526398 0.803452 0.391028 -0.040250
O21   O     O_2   0.444010 0.774981 0.453020 -0.344008
O22   O     O_2   0.535959 0.983698 0.325675 -0.374336
O23   O     O_3   0.556577 0.627952 0.301023 -0.553653
H11   H     H_    0.556919 0.678874 0.227208 0.352638
S2    S     S_3+6 0.473981 0.293463 0.609414 -0.005934
O24   O     O_2   0.443717 0.125434 0.681731 -0.368624
O25   O     O_2   0.555384 0.261395 0.544915 -0.323263
O26   O     O_3   0.469876 0.476254 0.694023 -0.496130
H12   H     H_    0.421850 0.540971 0.698014 0.296168
C41   C     C_3   0.802894 0.697329 0.668866 -0.361729
C42   C     C_3   0.852768 0.534836 0.683184 -0.787840
H13   H     H_    0.852454 0.424584 0.621850 0.229773
H14   H     H_    0.911336 0.582057 0.674814 0.234810
H15   H     H_    0.829454 0.472129 0.767585 0.215182
H16   H     H_    0.795870 0.795873 0.739007 0.163486
H17   H     H_    0.747144 0.629804 0.677704 0.204535
C43   C     C_3   0.205204 0.585417 0.345776 -0.364014
C44   C     C_3   0.163904 0.770986 0.350412 -0.789278
H18   H     H_    0.102731 0.749205 0.361300 0.234006
H19   H     H_    0.172363 0.855642 0.419588 0.242670
H20   H     H_    0.188195 0.850559 0.271402 0.214182
H21   H     H_    0.264138 0.629482 0.338674 0.215394
H22   H     H_    0.206035 0.510427 0.268320 0.162679
C45   C     C_3   0.943529 0.947850 0.606342 -0.358060
C46   C     C_3   0.027021 0.901236 0.582831 -0.749710
H23   H     H_    0.036439 0.750964 0.563736 0.245164
H24   H     H_    0.060934 0.989185 0.512869 0.225771
H25   H     H_    0.046048 0.932931 0.657026 0.234146
H26   H     H_    0.936181 0.100560 0.610275 0.165281
H27   H     H_    0.914497 0.898451 0.691962 0.190906
C47   C     C_3   0.055971 0.369505 0.390095 -0.353446
C48   C     C_3   0.971759 0.412184 0.420607 -0.754776
H28   H     H_    0.938202 0.295188 0.469238 0.222233
H29   H     H_    0.960120 0.542066 0.468750 0.251414
H30   H     H_    0.953849 0.430288 0.343889 0.234817
H31   H     H_    0.082889 0.448604 0.312292 0.190723
H32   H     H_    0.064871 0.220120 0.367477 0.166007

loop_
_geom_bond_atom_site_label_1
_geom_bond_atom_site_label_2
_ccdc_geom_bond_type
C14   C16   A    
C44   H18   S    
C7    C29   A    
C11   C13   A    
O12   V3    S    
O1    C3    A    
O2    C4    A    
C2    O7    A    
C41   H17   S    
C43   H22   S    
C23   C25   A    
C6    S2    S    
C47   H32   S    
C41   C42   S    
O5    C3    A    
C4    C7    S    
C11   C45   S    
C1    C36   S    
C16   C20   A    
C19   C21   A    
C5    C29   A    
S2    O24   D    
C42   H14   S    
C47   C48   S    
O18   V4    S    
O16   V4    S    
C3    C8    S    
C7    C27   A    
O13   C37   A    
C43   C44   S    
O14   C38   A    
C45   C46   S    
C12   C47   S    
C18   C26   A    
C48   H28   S    
C15   C17   A    
O17   V3    S    
C19   C27   A    
C9    C31   A    
C13   C41   S    
C10   C32   A    
C24   C26   A    
C45   H26   S    
C44   H19   S    
C13   C15   A    
C48   H29   S    
C2    C35   S    
S2    O26   S    
C6    C30   A    
C43   H21   S    
C47   H31   S    
C45   H27   S    
C38   O17   A    
O20   V4    S    
O15   V3    S    
C31   C38   S    
O19   V3    S    
C42   H13   S    
C27   H5    S    
C32   C37   S    
O13   V3    S    
C46   H25   S    
C16   C18   A    
O4    V2    S    
S1    O21   D    
C9    H7    S    
C10   H8    S    
O26   H12   S    
H3    C23   S    
O12   C40   A    
O6    C4    A    
H4    C24   S    
C46   H24   S    
O1    V2    S    
C5    C21   A    
O2    V1    S    
S1    O22   D    
O11   V4    S    
C25   H9    S    
O11   C39   A    
O4    C2    A    
C44   H20   S    
C33   C35   T    
C17   C31   A    
C48   H30   S    
C15   C19   A    
C20   C28   A    
C18   C32   A    
C20   C22   A    
O3    V1    S    
C28   H6    S    
O15   C39   A    
C37   O18   A    
O23   H11   S    
O20   V3    S    
O3    C1    A    
C42   H15   S    
O19   V4    S    
C41   H16   S    
H1    C29   S    
C9    C11   A    
C10   C12   A    
C8    C30   A    
C12   C14   A    
C6    C22   A    
C17   C25   A    
C1    O8    A    
C21   C23   A    
O8    V2    S    
C26   H10   S    
C22   C24   A    
O16   C40   A    
C8    C28   A    
O5    V1    S    
C46   H23   S    
S2    O25   D    
C34   C36   T    
O7    V1    S    
S1    O23   S    
C33   C40   S    
O6    V2    S    
C34   C39   S    
O9    V2    S    
C5    S1    S    
O10   V1    S    
O14   V4    S    
H2    C30   S    
C14   C43   S    
