data_mof_unit_49980.cif
_audit_creation_date              2013-03-05T16:09:50-0500
_audit_creation_method            fapswitch 2.2
_symmetry_space_group_name_H-M    P1
_symmetry_Int_Tables_number       1
_space_group_crystal_system       triclinic
_cell_length_a                    8.494329
_cell_length_b                    15.239688
_cell_length_c                    26.698667
_cell_angle_alpha                 97.842582
_cell_angle_beta                  92.169074
_cell_angle_gamma                 80.034864
_cell_volume                      3371.82692885

loop_
_atom_site_label
_atom_site_type_symbol
_atom_site_description
_atom_site_fract_x
_atom_site_fract_y
_atom_site_fract_z
_atom_type_partial_charge
P1    P     P_3+3 0.071950 0.575820 0.612140 0.506395
O1    O     O_2   0.906480 0.548660 0.619050 -0.372484
O2    O     O_3   0.138490 0.548590 0.558870 -0.344338
O3    O     O_3   0.686300 0.382310 0.585700 -0.383277
O4    O     O_2   0.849054 0.433888 0.667910 -0.386983
O5    O     O_3   0.010132 0.693298 0.616417 -0.587219
O6    O     O_3   0.686775 0.316620 0.684369 -0.517587
C1    C     C_3   0.627771 0.171605 0.696051 -0.090105
H1    H     H_    0.743879 0.132913 0.706642 0.093080
P2    P     P_3+3 0.664370 0.290050 0.457240 0.457657
P3    P     P_3+3 0.145951 0.216953 0.556322 0.425628
O7    O     O_2   0.844040 0.276390 0.471470 -0.344174
O8    O     O_3   0.101510 0.335500 0.560330 -0.369379
O9    O     O_2   0.033290 0.180344 0.515505 -0.388327
O10   O     O_3   0.667731 0.259917 0.391610 -0.598366
O11   O     O_3   0.092213 0.168950 0.609058 -0.535673
C2    C     C_3   0.130572 0.215134 0.655918 0.318264
H2    H     H_    0.073275 0.286865 0.658984 0.109378
H3    H     H_    0.260163 0.205142 0.661107 0.103669
C3    C     C_3   0.073161 0.177687 0.700991 -0.357347
H4    H     H_    0.943849 0.200040 0.704554 0.178754
C4    C     C_3   0.288671 0.259107 0.386023 0.583107
H5    H     H_    0.363417 0.301688 0.409607 0.085924
C5    C     C_3   0.369970 0.221802 0.335583 -0.751480
H6    H     H_    0.472641 0.167512 0.340448 0.235335
H7    H     H_    0.284400 0.194295 0.307798 0.245984
H8    H     H_    0.415403 0.276068 0.320416 0.292270
Ba1   Ba    Ba6+2 0.860050 0.456430 0.522530 1.575448
C6    C     C_3   0.122366 0.744909 0.640369 0.724158
H9    H     H_    0.243814 0.704750 0.641372 -0.039197
C7    C     C_3   0.070480 0.789588 0.695121 -0.194319
H10   H     H_    0.118205 0.853718 0.703345 0.176882
C8    C     C_3   0.729756 0.321447 0.367288 0.171552
H11   H     H_    0.815441 0.356225 0.391434 0.115339
H12   H     H_    0.627541 0.371404 0.356831 0.110101
C9    C     C_3   0.816995 0.271036 0.319757 -0.059583
H13   H     H_    0.898119 0.210369 0.329407 0.145536
H14   H     H_    0.892059 0.313586 0.304789 0.089668
P4    P     P_3+3 0.117760 0.424110 0.387850 0.510131
O12   O     O_2   0.283210 0.451310 0.380920 -0.358679
O13   O     O_3   0.051220 0.451340 0.441120 -0.355151
O14   O     O_3   0.503410 0.617620 0.414290 -0.377080
O15   O     O_3   0.136700 0.306760 0.376270 -0.587698
P5    P     P_3+3 0.038176 0.781864 0.442083 0.453380
O16   O     O_3   0.617150 0.609960 0.527100 -0.391890
O17   O     O_3   0.088210 0.664420 0.439670 -0.393475
O18   O     O_2   0.178045 0.822023 0.469359 -0.394538
O19   O     O_3   0.030292 0.815138 0.380975 -0.546866
Ba2   Ba    Ba6+2 0.329780 0.543490 0.477460 1.608898
P6    P     P_3+3 0.681921 0.412087 0.652435 0.487960
C10   C     C_3   0.649199 0.235626 0.656417 0.594445
H15   H     H_    0.556784 0.119797 0.679797 0.048459
O20   O     O_3   0.572560 0.389960 0.472890 -0.381154
C11   C     C_3   0.623825 0.696260 0.636976 0.376133
H16   H     H_    0.630369 0.623569 0.624144 0.121919
H17   H     H_    0.735769 0.718602 0.629393 0.160948
C12   C     C_3   0.595562 0.713186 0.693694 -0.969224
H18   H     H_    0.485433 0.689469 0.702426 0.233455
H19   H     H_    0.697992 0.676760 0.713844 0.260411
H20   H     H_    0.579914 0.785925 0.707671 0.268079
P7    P     P_3+3 0.524937 0.722392 0.547093 0.468859
O21   O     O_2   0.345660 0.723580 0.528500 -0.297381
O22   O     O_3   0.498526 0.745780 0.612494 -0.551236
H21   H     H_    0.124893 0.208384 0.736629 0.191387
C13   C     C_3   0.118239 0.748879 0.346260 0.607506
H22   H     H_    0.229242 0.719158 0.365454 0.096654
C14   C     C_3   0.177474 0.790184 0.302264 -0.406971
H23   H     H_    0.262822 0.830615 0.319166 0.168375
H24   H     H_    0.243092 0.736213 0.274635 0.192293
P8    P     P_3+3 0.536811 0.600846 0.349178 0.466807
C15   C     C_3   0.610221 0.765009 0.361767 0.109042
H25   H     H_    0.740767 0.742955 0.364438 0.103313
O23   O     O_2   0.381432 0.572433 0.325745 -0.359199
O24   O     O_3   0.540578 0.704280 0.326194 -0.543696
H26   H     H_    0.564996 0.765395 0.400235 0.103036
C16   C     C_3   0.570735 0.862491 0.346507 0.151064
H27   H     H_    0.479095 0.864368 0.316348 0.140927
C17   C     C_R   0.006980 0.390130 0.173190 0.638614
O25   O     O_2   0.066397 0.328491 0.196374 -0.548545
N1    N     N_R   0.895510 0.459008 0.196888 -0.153619
C18   C     C_R   0.809870 0.521312 0.168381 0.573429
C19   C     C_2   0.724471 0.488640 0.271975 -0.136043
C20   C     C_3   0.702408 0.507796 0.328869 0.182403
C21   C     C_1   0.988520 0.473748 0.338626 0.110350
C22   C     C_2   0.015234 0.461902 0.288514 0.241037
C23   C     C_2   0.873354 0.467956 0.251904 -0.022354
C24   C     C_R   0.963962 0.453795 0.093335 -0.128111
C25   C     C_R   0.053084 0.390928 0.122488 -0.101123
C26   C     C_R   0.184706 0.330594 0.099906 0.214472
C27   C     C_R   0.832054 0.513993 0.115323 -0.128164
C28   C     C_2   0.854583 0.521695 0.356695 -0.502278
C29   C     C_2   0.378194 0.531443 0.644449 -0.472042
C30   C     C_R   0.191188 0.405010 0.970686 0.065232
C31   C     C_R   0.968535 0.529663 0.964830 0.000345
C32   C     C_R   0.105504 0.472323 0.943365 0.091560
C33   C     C_R   0.324955 0.347971 0.947125 -0.234179
C34   C     C_R   0.375993 0.359185 0.899847 -0.055102
C35   C     C_R   0.295165 0.426789 0.873092 -0.060172
C36   C     C_R   0.158266 0.482974 0.894369 -0.096510
C37   C     C_R   0.075177 0.549997 0.866864 -0.223897
C38   C     C_R   0.124554 0.554141 0.816826 0.556913
N2    N     N_R   0.262658 0.500028 0.796612 -0.169086
C39   C     C_R   0.349826 0.438808 0.825488 0.586763
C40   C     C_2   0.468754 0.504379 0.733443 -0.154415
C41   C     C_3   0.520798 0.510226 0.679910 0.184307
C42   C     C_1   0.227413 0.534658 0.658317 0.186394
C43   C     C_2   0.190565 0.513464 0.702499 -0.235874
C44   C     C_2   0.312436 0.505849 0.744868 0.107455
O26   O     O_2   0.475176 0.393683 0.809692 -0.515740
C45   C     C_R   0.143262 0.398489 0.020798 0.048840
C46   C     C_R   0.006582 0.456745 0.042277 0.059689
C47   C     C_R   0.911140 0.517202 0.012838 0.007537
C48   C     C_R   0.227841 0.335328 0.050406 -0.283894
H28   H     H_    0.560098 0.503236 0.762933 0.183196
H29   H     H_    0.480648 0.314090 0.884258 0.196383
H30   H     H_    0.395387 0.293916 0.964210 0.138078
H31   H     H_    0.331679 0.288515 0.036726 0.131953
O27   O     O_2   0.717221 0.584801 0.189360 -0.560510
C49   C     C_R   0.723934 0.563904 0.083697 0.155667
H32   H     H_    0.619004 0.490386 0.247625 0.218413
C50   C     C_R   0.898603 0.601690 0.938897 -0.284492
C51   C     C_R   0.945316 0.610729 0.890498 0.432017
O28   O     O_2   0.043759 0.606030 0.791282 -0.560609
C52   C     C_R   0.758066 0.560294 0.031766 0.057004
H33   H     H_    0.810765 0.655514 0.956658 0.182340
H34   H     H_    0.070065 0.504035 0.708842 0.206056
H35   H     H_    0.853965 0.570006 0.390671 0.181069
H36   H     H_    0.404007 0.543679 0.606741 0.182059
C53   C     C_R   0.850226 0.832644 0.475475 0.293570
C54   C     C_R   0.785929 0.925776 0.479132 -0.016433
C55   C     C_R   0.647360 0.112010 0.484101 -0.063427
C56   C     C_R   0.793187 0.077238 0.460088 -0.100779
C57   C     C_R   0.864141 0.987234 0.459346 -0.085598
C58   C     C_R   0.580014 0.205451 0.488748 0.214654
H37   H     H_    0.854240 0.118954 0.441343 0.181599
H38   H     H_    0.979234 0.966263 0.441680 0.184602
C59   C     C_R   0.431354 0.233920 0.512000 -0.455306
C60   C     C_R   0.618178 0.805343 0.518337 0.160112
C61   C     C_R   0.550494 0.897119 0.520427 -0.046255
C62   C     C_R   0.634913 0.957928 0.501522 0.047673
C63   C     C_R   0.397607 0.929075 0.539105 -0.061091
C64   C     C_R   0.329556 0.018638 0.541576 -0.204269
C65   C     C_R   0.412411 0.081157 0.525107 -0.071319
C66   C     C_R   0.565409 0.050680 0.503820 0.020671
C67   C     C_R   0.345473 0.172869 0.528879 0.239913
C68   C     C_R   0.766302 0.774480 0.495474 -0.417129
H39   H     H_    0.208815 0.036374 0.554959 0.222227
H40   H     H_    0.324946 0.884296 0.549404 0.249834
H41   H     H_    0.377375 0.304044 0.514464 0.180270
H42   H     H_    0.817402 0.703894 0.493206 0.180138
N3    N     N_2   0.778797 0.193316 0.622285 -0.112327
H43   H     H_    0.793369 0.229739 0.593599 0.249057
C69   C     C_3   0.794413 0.097526 0.604618 -0.901617
H44   H     H_    0.863404 0.080452 0.569137 0.299221
H45   H     H_    0.676293 0.076606 0.597763 0.218148
H46   H     H_    0.861242 0.058201 0.632887 0.274918
N4    N     N_R   0.133358 0.817076 0.610439 0.228773
O29   O     O_R   0.220002 0.877722 0.626879 -0.473287
O30   O     O_R   0.046620 0.826202 0.569732 -0.406668
N5    N     N_2   0.897197 0.810744 0.699574 -0.083095
H47   H     H_    0.857192 0.809393 0.735423 0.239564
C70   C     C_3   0.819354 0.890343 0.678502 -0.878587
H48   H     H_    0.689303 0.902670 0.686014 0.243960
H49   H     H_    0.833504 0.881550 0.636958 0.287799
H50   H     H_    0.868427 0.950293 0.696204 0.234693
N6    N     N_2   0.138185 0.733970 0.733508 -0.093376
H51   H     H_    0.232099 0.684397 0.721858 0.158521
C71   C     C_3   0.176283 0.783191 0.781549 -0.676896
H52   H     H_    0.215492 0.735745 0.809397 0.270830
H53   H     H_    0.070318 0.831777 0.796431 0.263969
H54   H     H_    0.275714 0.820101 0.776945 0.204232
N7    N     N_R   0.704966 0.244581 0.280280 0.262937
O31   O     O_R   0.703715 0.159923 0.264946 -0.359868
O32   O     O_R   0.619386 0.305160 0.256196 -0.414926
N8    N     N_2   0.503718 0.249305 0.626355 -0.139471
H55   H     H_    0.459050 0.191934 0.613849 0.104380
C72   C     C_3   0.391806 0.331736 0.634322 -0.791827
H56   H     H_    0.271162 0.323912 0.627351 0.203381
H57   H     H_    0.410177 0.373398 0.605181 0.240541
H58   H     H_    0.393990 0.361507 0.674139 0.273425
N9    N     N_R   0.551824 0.219740 0.742230 0.300695
O33   O     O_R   0.627336 0.215010 0.785353 -0.349446
O34   O     O_R   0.401839 0.256055 0.741664 -0.431241
N10   N     N_2   0.026765 0.678113 0.329155 -0.138126
H59   H     H_    0.092522 0.615820 0.331010 0.187715
C73   C     C_3   0.926337 0.682658 0.284200 -0.821262
H60   H     H_    0.998642 0.663256 0.249497 0.267818
H61   H     H_    0.855113 0.749387 0.283812 0.294540
H62   H     H_    0.837980 0.638265 0.284360 0.273519
N11   N     N_2   0.052657 0.846181 0.276523 -0.043383
H63   H     H_    0.026995 0.817252 0.240588 0.206193
C74   C     C_3   0.069333 0.939346 0.277497 -0.600065
H64   H     H_    0.185090 0.944150 0.260898 0.193659
H65   H     H_    0.061709 0.973679 0.316844 0.244831
H66   H     H_    0.970517 0.974110 0.255225 0.265245
N12   N     N_R   0.705960 0.890568 0.324415 0.238624
O35   O     O_R   0.699739 0.898463 0.276384 -0.395638
O36   O     O_R   0.799938 0.934966 0.353235 -0.394743
N13   N     N_2   0.511056 0.927910 0.389380 -0.128559
H67   H     H_    0.528793 0.992534 0.387135 0.219742
C75   C     C_3   0.349348 0.927085 0.403400 -0.987407
H68   H     H_    0.265040 0.956285 0.375226 0.253940
H69   H     H_    0.324068 0.967294 0.440603 0.284204
H70   H     H_    0.331530 0.857913 0.405561 0.292976
N14   N     N_R   0.171557 0.462772 0.269941 0.259867
O37   O     O_R   0.189807 0.515005 0.236681 -0.442462
O38   O     O_R   0.290557 0.401270 0.279421 -0.349375
N15   N     N_2   0.279352 0.265738 0.127035 -0.089539
H71   H     H_    0.307960 0.203408 0.105866 0.166999
C76   C     C_3   0.418662 0.295661 0.151761 -0.643050
H72   H     H_    0.481795 0.242784 0.173563 0.283371
H73   H     H_    0.383080 0.358356 0.178168 0.291112
H74   H     H_    0.501822 0.308013 0.123331 0.184366
N16   N     N_2   0.576093 0.612968 0.103705 -0.073349
H75   H     H_    0.540417 0.675805 0.092863 0.165881
C77   C     C_3   0.448688 0.561132 0.104436 -0.765516
H76   H     H_    0.348246 0.601856 0.127094 0.255023
H77   H     H_    0.490782 0.499015 0.122004 0.246154
H78   H     H_    0.403829 0.542901 0.065517 0.217372
N17   N     N_R   0.862934 0.685508 0.867396 0.263564
O39   O     O_R   0.935547 0.752466 0.863103 -0.389284
O40   O     O_R   0.708330 0.695964 0.861630 -0.395801
N18   N     N_2   0.632307 0.589636 0.997605 -0.114363
H79   H     H_    0.542641 0.640298 0.011750 0.173273
C78   C     C_3   0.573035 0.518301 0.964940 -0.829838
H80   H     H_    0.478028 0.547808 0.939457 0.248855
H81   H     H_    0.522524 0.474643 0.987850 0.239486
H82   H     H_    0.670025 0.476775 0.941154 0.263615
N19   N     N_2   0.111594 0.080423 0.697074 -0.063975
H83   H     H_    0.043768 0.055150 0.721069 0.178115
C79   C     C_3   0.279793 0.043217 0.700761 -0.687261
H84   H     H_    0.294477 0.972117 0.707745 0.236098
H85   H     H_    0.338251 0.080501 0.732793 0.236811
H86   H     H_    0.339183 0.045071 0.664710 0.245257
N20   N     N_2   0.271768 0.184951 0.413186 -0.122203
H87   H     H_    0.376936 0.141369 0.417509 0.131636
C80   C     C_3   0.139073 0.138554 0.398901 -0.793585
H88   H     H_    0.134789 0.088167 0.424710 0.233928
H89   H     H_    0.151354 0.105279 0.359309 0.217855
H90   H     H_    0.025317 0.186154 0.403084 0.280726

loop_
_geom_bond_atom_site_label_1
_geom_bond_atom_site_label_2
_geom_bond_distance
_ccdc_geom_bond_type
C1    N9    1.457394 S    
C24   C25   1.415885 A    
N4    O29   1.299535 A    
N1    C18   1.387909 Am   
N2    C39   1.388197 Am   
C75   H69   1.101233 S    
C75   H68   1.103162 S    
C46   C47   1.419423 A    
C5    H8    1.100238 S    
C19   H32   1.085513 S    
C55   C58   1.430276 A    
C54   C62   1.415460 A    
N4    O30   1.299432 A    
C2    C3    1.529654 S    
C58   C59   1.401581 A    
N17   O40   1.301036 A    
C34   C35   1.400718 A    
O2    Ba2   2.747376 S    
C14   N11   1.454808 S    
C22   N14   1.437708 S    
P4    O13   1.527431 S    
N9    O33   1.301111 A    
C13   N10   1.450559 S    
O17   Ba2   2.768912 S    
N11   H63   1.031666 S    
C28   H35   1.087070 S    
O7    Ba1   2.915377 S    
P3    O8    1.769762 S    
C4    C5    1.529458 S    
C59   C67   1.405398 A    
C9    H13   1.107747 S    
C5    H7    1.110915 S    
P4    C21   1.838271 S    
C47   C52   1.428623 A    
C29   C42   1.337587 D    
P2    O10   1.749750 S    
C15   C16   1.570931 S    
P2    O7    1.544223 D    
P3    O9    1.534445 D    
C32   C36   1.437332 A    
P7    C60   1.863387 S    
C12   H19   1.110640 S    
C26   N15   1.422723 S    
C24   C46   1.432151 A    
C42   C43   1.326891 D    
C17   C25   1.425561 A    
C65   C66   1.415164 A    
Ba1   O13   2.746774 S    
O14   P8    1.748952 S    
C8    C9    1.535530 S    
N10   H59   1.021209 S    
P1    O1    1.556522 D    
Ba1   Ba2   4.664763 S    
C31   C47   1.436113 A    
P7    O22   1.748848 S    
P2    O20   1.594100 S    
C45   C46   1.421151 A    
N17   O39   1.299973 A    
N1    C23   1.472711 S    
C16   N12   1.463085 S    
C63   H40   1.063996 S    
C78   H81   1.109337 S    
C68   H42   1.082511 S    
C71   H54   1.111762 S    
N18   H79   1.028358 S    
N7    O32   1.299445 A    
C56   C57   1.397281 A    
C72   H57   1.100484 S    
P8    O24   1.773478 S    
C57   H38   1.079816 S    
N3    H43   1.028091 S    
C77   H78   1.109038 S    
O8    Ba1   2.768455 S    
N2    C44   1.478448 S    
C3    N19   1.451700 S    
C21   C28   1.310966 D    
O19   C13   1.404534 S    
C69   H45   1.105768 S    
C1    H15   1.107593 S    
C37   C51   1.418283 A    
C7    N5    1.457112 S    
P5    O18   1.543040 D    
C30   C45   1.434272 A    
C71   H53   1.110143 S    
C5    H6    1.110416 S    
C10   N3    1.458757 S    
N13   H67   1.031680 S    
C30   C32   1.421180 A    
C49   C52   1.418987 A    
C80   H88   1.105342 S    
N3    C69   1.456342 S    
N6    C71   1.450034 S    
N20   C80   1.444156 S    
C59   H41   1.081720 S    
C31   C32   1.416897 A    
C29   H36   1.085583 S    
O13   Ba2   3.019395 S    
C40   C41   1.530482 S    
O3    Ba1   2.753895 S    
N19   H83   1.030898 S    
P5    O17   1.759418 S    
C8    H11   1.109506 S    
C70   H49   1.107527 S    
C16   H27   1.098308 S    
N14   O38   1.296838 A    
C61   C62   1.418730 A    
C26   C48   1.399243 A    
Ba1   O16   2.831388 S    
C9    N7    1.455990 S    
C14   H23   1.078339 S    
C38   N2    1.392534 Am   
P2    C58   1.882708 S    
C21   C22   1.347977 D    
O6    P6    1.777757 S    
N8    C72   1.433911 S    
N9    O34   1.298633 A    
N15   H71   1.031881 S    
P4    O12   1.556730 D    
C17   O25   1.221159 D    
C1    H1    1.106116 S    
C12   H20   1.107067 S    
P4    O15   1.753011 S    
C13   C14   1.544428 S    
P5    C53   1.853201 S    
C22   C23   1.520954 S    
C18   O27   1.221133 D    
P1    O5    1.765621 S    
O3    P6    1.777747 S    
P1    O2    1.527429 S    
N5    C70   1.451115 S    
C3    H21   1.111438 S    
C74   H66   1.110444 S    
C50   H33   1.078516 S    
C6    H9    1.106071 S    
P6    C41   1.927762 S    
C70   H50   1.109452 S    
P3    O11   1.780812 S    
C52   N18   1.430078 S    
N8    H55   1.022457 S    
C45   C48   1.411689 A    
C7    N6    1.457144 S    
O16   Ba2   2.997615 S    
N20   H87   1.029682 S    
C72   H58   1.098212 S    
C33   C34   1.391561 A    
C3    H4    1.095981 S    
P8    O23   1.543455 D    
C2    H2    1.110431 S    
C53   C68   1.398465 A    
C79   H85   1.110719 S    
P1    Ba1   3.448726 S    
C38   O28   1.218757 D    
C77   H76   1.110143 S    
C69   H46   1.106463 S    
C10   N8    1.447825 S    
P8    C20   1.855002 S    
C1    C10   1.569242 S    
O12   Ba2   2.810766 S    
C50   C51   1.397324 A    
C51   N17   1.432469 S    
C72   H56   1.058710 S    
C48   H31   1.075112 S    
C18   C27   1.422832 A    
N12   O36   1.298270 A    
C71   H52   1.109588 S    
P4    Ba2   3.449244 S    
C19   C20   1.519617 S    
C30   C33   1.416137 A    
C76   H73   1.110712 S    
C80   H89   1.108677 S    
N6    H51   1.024667 S    
C75   H70   1.099981 S    
C40   H28   1.084009 S    
O4    P6    1.542072 D    
C24   C27   1.410234 A    
C54   C57   1.405209 A    
C34   H29   1.083643 S    
C13   H22   1.111653 S    
C43   C44   1.506758 S    
C73   H61   1.090762 S    
C78   H82   1.109960 S    
C40   C44   1.369362 D    
N7    O31   1.300953 A    
C53   C54   1.421338 A    
P2    Ba1   3.501952 S    
C65   C67   1.406334 A    
N14   O37   1.300851 A    
C11   H16   1.106435 S    
O2    Ba1   3.018614 S    
N11   C74   1.447697 S    
Ba2   O21   2.915660 S    
C78   H80   1.110272 S    
N16   H75   1.030147 S    
C64   H39   1.076124 S    
C7    H10   1.113345 S    
P3    C67   1.850979 S    
C4    H5    1.105219 S    
C62   C66   1.428492 A    
C43   H34   1.080597 S    
C77   H77   1.111455 S    
N12   O35   1.302507 A    
C16   N13   1.455580 S    
C15   O24   1.419717 S    
C6    N4    1.462164 S    
Ba1   O20   2.998487 S    
N18   C78   1.446850 S    
C11   H17   1.098429 S    
C70   H48   1.109295 S    
C76   H74   1.111813 S    
C20   C28   1.498928 S    
P1    C42   1.859699 S    
C36   C37   1.413037 A    
C39   O26   1.218978 D    
C74   H64   1.111460 S    
C73   H62   1.094429 S    
C9    H14   1.104471 S    
C73   H60   1.108400 S    
N16   C77   1.448201 S    
O6    C10   1.431546 S    
C15   H25   1.104204 S    
N19   C79   1.447993 S    
N15   C76   1.445512 S    
C19   C23   1.361304 D    
C55   C56   1.402295 A    
N5    H47   1.031702 S    
C15   H26   1.109012 S    
C61   C63   1.391487 A    
C8    H12   1.105573 S    
C12   H18   1.103010 S    
O11   C2    1.405348 S    
C60   C68   1.397090 A    
C56   H37   1.069664 S    
Ba2   O20   2.830790 S    
O16   P7    1.775344 S    
C37   C38   1.428022 A    
C2    H3    1.091017 S    
N10   C73   1.448392 S    
C79   H86   1.109434 S    
C17   N1    1.385207 Am   
C76   H72   1.109318 S    
P7    O21   1.581607 D    
C27   C49   1.417675 A    
C60   C61   1.411621 A    
O14   Ba2   2.753345 S    
C4    N20   1.453071 S    
C31   C50   1.409864 A    
P5    O19   1.768950 S    
C29   C41   1.526225 S    
O5    C6    1.418647 S    
C25   C26   1.415234 A    
C49   N16   1.427684 S    
C6    C7    1.570992 S    
C35   C36   1.407396 A    
C11   O22   1.390519 S    
C80   H90   1.102657 S    
C79   H84   1.109498 S    
N13   C75   1.439874 S    
C64   C65   1.402236 A    
C33   H30   1.075134 S    
O1    Ba1   2.810389 S    
C14   H24   1.112749 S    
C69   H44   1.109287 S    
C63   C64   1.380842 A    
O10   C8    1.393405 S    
C4    O15   1.401184 S    
C55   C66   1.422163 A    
C35   C39   1.414947 A    
C74   H65   1.106782 S    
C11   C12   1.522103 S    
