data_mof_unit_20720.cif
_audit_creation_date              2012-10-26T20:31:59-0400
_audit_creation_method            fapswitch 2.2
_symmetry_space_group_name_H-M    P1
_symmetry_Int_Tables_number       1
_space_group_crystal_system       triclinic
_cell_length_a                    10.626005
_cell_length_b                    10.839829
_cell_length_c                    9.57974
_cell_angle_alpha                 90.559364
_cell_angle_beta                  89.565303
_cell_angle_gamma                 90.812213
_cell_volume                      1103.23945115

loop_
_atom_site_label
_atom_site_type_symbol
_atom_type_description
_atom_site_fract_x
_atom_site_fract_y
_atom_site_fract_z
_atom_type_partial_charge
C1    C     C_R   0.496991 0.262450 0.499365 0.545650
C2    C     C_R   0.467443 0.938067 0.623972 -0.013964
C3    C     C_3   0.539069 0.934526 0.757456 -0.107612
C4    C     C_R   0.259333 0.499922 0.500113 0.559119
C5    C     C_3   0.544192 0.075574 0.753724 0.159231
C6    C     C_R   0.606961 0.528335 0.072773 0.149763
C7    C     C_R   0.401118 0.453141 0.075939 -0.021285
C8    C     C_R   0.402048 0.449709 0.927704 0.093333
C9    C     C_R   0.607445 0.527186 0.926179 0.137851
C10   C     C_3   0.688186 0.640225 0.920217 -0.272839
C11   C     C_3   0.684837 0.643519 0.079199 -0.266628
C12   C     C_3   0.959954 0.608212 0.450439 -0.129784
C13   C     C_R   0.496730 0.737671 0.500420 0.543606
C14   C     C_R   0.740583 0.499997 0.499739 0.543193
C15   C     C_3   0.039636 0.391568 0.548263 -0.115686
C16   C     C_3   0.957311 0.407323 0.417477 -0.132872
C17   C     C_3   0.877471 0.499867 0.499604 0.039288
C18   C     C_3   0.957578 0.484126 0.630618 -0.107366
C19   C     C_3   0.042310 0.592590 0.581411 -0.120522
C20   C     C_3   0.554890 0.168269 0.970213 -0.111241
C21   C     C_1   0.302541 0.380144 0.861926 0.279247
C22   C     C_1   0.460875 0.882285 0.870863 0.259183
C23   C     C_3   0.042203 0.515627 0.368304 -0.114471
C24   C     C_3   0.122291 0.499939 0.499502 0.050392
C25   C     C_R   0.469603 0.065308 0.622657 0.079881
C26   C     C_R   0.482916 0.129343 0.497924 -0.025387
C27   C     C_R   0.476845 0.062807 0.371551 -0.167632
C28   C     C_R   0.476923 0.934134 0.372358 -0.157055
C29   C     C_R   0.482148 0.870745 0.499811 -0.021144
Cu1   Cu    Cu3+1 0.499990 0.499980 0.640670 0.979662
Cu2   Cu    Cu3+1 0.500010 0.500020 0.359330 0.931546
H1    H     H_    0.919410 0.331657 0.350366 0.112405
H2    H     H_    0.920778 0.470651 0.738227 0.119926
H3    H     H_    0.080108 0.668266 0.648581 0.121136
H4    H     H_    0.924057 0.696648 0.410237 0.107017
H5    H     H_    0.079347 0.528515 0.260702 0.122064
H6    H     H_    0.479034 0.109442 0.272396 0.137254
H7    H     H_    0.479691 0.885245 0.273262 0.159530
H8    H     H_    0.624355 0.239712 0.935879 0.113485
H9    H     H_    0.603890 0.086862 0.012752 0.102792
H10   H     H_    0.497985 0.209187 0.055660 0.140293
H11   H     H_    0.633041 0.892072 0.745289 0.051939
H12   H     H_    0.639928 0.115667 0.733209 0.080436
H13   H     H_    0.321684 0.414762 0.132962 0.119640
H14   H     H_    0.783200 0.620942 0.876704 0.118587
H15   H     H_    0.640126 0.717849 0.871588 0.150000
H16   H     H_    0.778353 0.628011 0.126697 0.125614
H17   H     H_    0.632236 0.723111 0.123068 0.154113
H18   H     H_    0.074142 0.301961 0.586387 0.142138
N1    N     N_R   0.500800 0.500930 0.147930 -0.239959
N2    N     N_R   0.500800 0.500890 0.852020 -0.239338
N3    N     N_1   0.222257 0.322346 0.811550 -0.308060
N4    N     N_1   0.399674 0.841114 0.959849 -0.307033
O1    O     O_R   0.500000 0.319640 0.618810 -0.471135
O2    O     O_R   0.500010 0.319680 0.381230 -0.518769
O3    O     O_R   0.316850 0.499950 0.618770 -0.491596
O4    O     O_R   0.316860 0.499990 0.381190 -0.515279
O5    O     O_R   0.499990 0.680320 0.618770 -0.500907
O6    O     O_R   0.500000 0.680360 0.381190 -0.502360
O7    O     O_R   0.683140 0.500010 0.618810 -0.515096
O8    O     O_R   0.683150 0.500050 0.381230 -0.505633
O9    O     O_3   0.473679 0.134114 0.860416 -0.528660

loop_
_geom_bond_atom_site_label_1
_geom_bond_atom_site_label_2
_ccdc_geom_bond_type
C4    O4    A    
C12   C17   S    
C15   C18   S    
Cu1   N2    S    
C3    H11   S    
C10   H15   S    
C13   O6    A    
C16   C23   S    
C14   O7    A    
C9    C10   S    
Cu2   O8    S    
C11   H16   S    
C14   C17   S    
C20   H9    S    
C28   H7    S    
C1    O1    A    
Cu2   O4    S    
C6    C9    A    
C2    C3    S    
C5    H12   S    
C7    C8    A    
C7    H13   S    
C4    O3    A    
C12   H4    S    
C20   O9    S    
Cu1   O1    S    
C8    N2    A    
C28   C29   A    
C11   H17   S    
Cu1   Cu2   S    
C27   H6    S    
C2    C29   A    
C20   H10   S    
C22   N4    T    
Cu1   O5    S    
C12   C19   S    
C13   C29   S    
C15   C24   S    
C5    O9    S    
C19   C24   S    
C2    C25   A    
C15   H18   S    
C26   C27   A    
C1    C26   S    
C4    C24   S    
C18   H2    S    
C5    C25   S    
C1    O2    A    
C16   H1    S    
C10   C11   S    
Cu2   N1    S    
C15   C16   S    
C6    C11   S    
C8    C21   S    
C17   C18   S    
C23   H5    S    
C10   H14   S    
Cu2   O6    S    
C27   C28   A    
C20   H8    S    
C18   C19   S    
C3    C22   S    
C12   C23   S    
C13   O5    A    
C23   C24   S    
Cu2   O2    S    
C25   C26   A    
C14   O8    A    
Cu1   O3    S    
C21   N3    T    
C6    N1    A    
C7    N1    A    
Cu1   O7    S    
C16   C17   S    
C3    C5    S    
C19   H3    S    
C9    N2    A    
