data_mof_unit_18526.cif
_audit_creation_date              2012-12-10T20:32:42-0500
_audit_creation_method            fapswitch 2.2
_symmetry_space_group_name_H-M    P1
_symmetry_Int_Tables_number       1
_space_group_crystal_system       triclinic
_cell_length_a                    11.539185
_cell_length_b                    10.671656
_cell_length_c                    9.884014
_cell_angle_alpha                 89.979732
_cell_angle_beta                  89.837453
_cell_angle_gamma                 90.137537
_cell_volume                      1217.13087182

loop_
_atom_site_label
_atom_site_type_symbol
_atom_type_description
_atom_site_fract_x
_atom_site_fract_y
_atom_site_fract_z
_atom_type_partial_charge
C1    C     C_R   0.506452 0.260491 0.500043 0.916159
C2    C     C_R   0.522019 0.128722 0.502442 -0.149329
C3    C     C_R   0.582421 0.063244 0.399276 -0.047995
C4    C     C_R   0.575262 0.932581 0.398988 -0.153945
C5    C     C_R   0.514034 0.871102 0.502019 -0.133556
C6    C     C_R   0.475271 0.936880 0.614131 -0.033596
C7    C     C_3   0.364701 0.930967 0.694050 -0.257355
C8    C     C_3   0.367811 0.074694 0.693765 0.133784
C9    C     C_R   0.439055 0.411193 0.071860 0.211524
C10   C     C_R   0.568938 0.579696 0.071618 -0.088863
C11   C     C_R   0.569316 0.579331 0.927756 -0.069652
C12   C     C_R   0.281960 0.499980 0.500160 0.957917
C13   C     C_R   0.436579 0.413376 0.929590 0.192017
C14   C     C_3   0.307433 0.393907 0.929443 -0.322961
C15   C     C_3   0.312361 0.386571 0.083182 -0.500244
C16   C     C_R   0.501613 0.739677 0.500049 0.874650
C17   C     C_R   0.718073 0.499990 0.499845 0.876599
C18   C     C_1   0.161544 0.499843 0.500423 -0.132982
C19   C     C_1   0.059376 0.499759 0.500310 0.040528
C20   C     C_1   0.940728 0.499753 0.499895 0.026279
C21   C     C_1   0.838540 0.499835 0.499635 -0.164825
C22   C     C_R   0.478070 0.063877 0.613614 0.060681
H1    H     H_    0.281647 0.303936 0.881618 0.169991
H2    H     H_    0.265300 0.462574 0.137021 0.239959
H3    H     H_    0.294413 0.290982 0.122852 0.205295
H4    H     H_    0.615949 0.879000 0.318749 0.192740
H5    H     H_    0.378474 0.890510 0.796537 0.192462
H6    H     H_    0.383631 0.114730 0.795841 0.124911
H7    H     H_    0.622750 0.645960 0.125570 0.150473
H8    H     H_    0.623606 0.645110 0.873375 0.149750
N1    N     N_R   0.499240 0.499140 0.142800 -0.106396
N2    N     N_R   0.499240 0.499180 0.857150 -0.101145
O1    O     O_R   0.500010 0.316790 0.614690 -0.607187
O2    O     O_R   0.500000 0.316760 0.385350 -0.632889
O3    O     O_R   0.334450 0.500030 0.614670 -0.596844
O4    O     O_R   0.334440 0.500000 0.385330 -0.617456
O5    O     O_R   0.500000 0.683240 0.614650 -0.601658
O6    O     O_R   0.499990 0.683210 0.385310 -0.622768
O7    O     O_R   0.665560 0.500000 0.614670 -0.616144
O8    O     O_R   0.665550 0.499970 0.385330 -0.627195
Zn1   Zn    Zn3+2 0.500010 0.500020 0.653130 0.996541
Zn2   Zn    Zn3+2 0.499990 0.499980 0.346870 0.964495
C23   C     C_2   0.652947 0.127490 0.293851 0.426818
H9    H     H_    0.680055 0.224046 0.306804 0.082405
O9    O     O_2   0.683796 0.072245 0.191785 -0.566914
C24   C     C_2   0.266178 0.870717 0.617887 0.557151
H10   H     H_    0.250474 0.894255 0.512630 0.089567
O10   O     O_2   0.203951 0.793901 0.673871 -0.544392
Cl1   Cl    Cl    0.253263 0.152031 0.603900 -0.652197
C25   C     C_2   0.237652 0.504297 0.880583 0.577843
H11   H     H_    0.161749 0.488038 0.818487 0.070468
O11   O     O_2   0.263556 0.611447 0.912065 -0.532517

loop_
_geom_bond_atom_site_label_1
_geom_bond_atom_site_label_2
_ccdc_geom_bond_type
C14   H1    S    
C2    C22   A    
C8    C22   S    
N2    Zn1   S    
C6    C7    S    
N1    Zn2   S    
C12   O4    A    
C13   N2    A    
C25   O11   D    
C19   C20   S    
O2    Zn2   S    
C16   O5    A    
C23   H9    S    
O1    Zn1   S    
O8    Zn2   S    
C25   H11   S    
C9    C15   S    
C1    O1    A    
C7    C8    S    
O7    Zn1   S    
C13   C14   S    
C12   O3    A    
C23   O9    D    
C10   H7    S    
C3    C23   S    
C14   C25   S    
O3    Zn1   S    
C8    Cl1   S    
C15   H2    S    
C11   N2    A    
O6    Zn2   S    
C2    C3    A    
O5    Zn1   S    
C5    C6    A    
C8    H6    S    
C24   O10   D    
C4    H4    S    
C15   H3    S    
C10   C11   A    
C9    N1    A    
C1    O2    A    
C3    C4    A    
C6    C22   A    
C7    C24   S    
C7    H5    S    
C20   C21   T    
C1    C2    S    
C17   O7    A    
C12   C18   S    
C9    C13   A    
C14   C15   S    
C18   C19   T    
C5    C16   S    
C24   H10   S    
O4    Zn2   S    
C10   N1    A    
C17   C21   S    
C11   H8    S    
C16   O6    A    
C4    C5    A    
C17   O8    A    
