data_mof_unit_66172.cif
_audit_creation_date              2012-12-10T19:25:16-0500
_audit_creation_method            fapswitch 2.2
_symmetry_space_group_name_H-M    P1
_symmetry_Int_Tables_number       1
_space_group_crystal_system       triclinic
_cell_length_a                    18.61885
_cell_length_b                    18.592319
_cell_length_c                    19.015007
_cell_angle_alpha                 109.781537
_cell_angle_beta                  109.597275
_cell_angle_gamma                 108.925828
_cell_volume                      5073.68936608

loop_
_atom_site_label
_atom_site_type_symbol
_atom_type_description
_atom_site_fract_x
_atom_site_fract_y
_atom_site_fract_z
_atom_type_partial_charge
C1    C     C_R   0.879376 0.379486 0.999087 0.875598
C2    C     C_R   0.814912 0.311633 0.998386 -0.081260
C3    C     C_R   0.741967 0.240542 0.919556 -0.211274
C4    C     C_R   0.677483 0.176325 0.919558 -0.219972
C5    C     C_R   0.688021 0.182455 0.998275 -0.093153
C6    C     C_R   0.766798 0.246237 0.074519 0.145864
C7    C     C_3   0.782096 0.308919 0.159026 -0.489247
C8    C     C_3   0.851028 0.380418 0.159062 -0.470691
C9    C     C_R   0.260400 0.508587 0.182593 0.153134
C10   C     C_R   0.182214 0.495253 0.181713 -0.149809
C11   C     C_R   0.162627 0.471155 0.237836 -0.210442
C12   C     C_R   0.882618 0.502947 0.880913 0.958531
C13   C     C_R   0.226327 0.470215 0.301212 -0.205937
C14   C     C_R   0.309561 0.495198 0.308838 -0.096446
C15   C     C_R   0.324073 0.509108 0.246032 0.052294
C16   C     C_3   0.396053 0.584268 0.255378 -0.545198
C17   C     C_3   0.325118 0.584445 0.186059 0.277283
C18   C     C_R   0.250163 0.763396 0.073438 0.129447
C19   C     C_R   0.183740 0.685879 0.998385 -0.102958
C20   C     C_R   0.181719 0.672490 0.920067 -0.204754
C21   C     C_R   0.246035 0.737452 0.919857 -0.208589
C22   C     C_R   0.313504 0.814125 0.998260 -0.104979
C23   C     C_R   0.119943 0.620246 0.000138 0.886182
C24   C     C_R   0.313514 0.824008 0.073580 0.121088
C25   C     C_3   0.361164 0.883267 0.168734 -0.504769
C26   C     C_3   0.288662 0.813317 0.168766 -0.482893
C27   C     C_R   0.497674 0.379419 0.377955 0.894180
C28   C     C_R   0.616567 0.497385 0.613973 0.978514
C29   C     C_R   0.496745 0.620168 0.616524 0.873914
C30   C     C_R   0.376932 0.499773 0.377427 0.884600
C31   C     C_R   0.501424 0.880157 0.881134 0.883142
C32   C     C_R   0.620572 0.120189 0.000262 0.874941
C33   C     C_R   0.498668 0.120137 0.118960 0.876248
C34   C     C_R   0.119342 0.499611 0.118674 0.890562
C35   C     C_R   0.379784 0.880169 0.999842 0.884693
C36   C     C_R   0.479391 0.311432 0.234268 0.100971
C37   C     C_R   0.494583 0.311576 0.311110 -0.074705
C38   C     C_R   0.496633 0.239833 0.318948 -0.192018
C39   C     C_R   0.496981 0.175490 0.254957 -0.217502
C40   C     C_R   0.492507 0.182154 0.182506 -0.093115
C41   C     C_R   0.477346 0.246656 0.170035 0.148751
C42   C     C_3   0.524150 0.309557 0.147678 -0.496506
C43   C     C_3   0.526555 0.381147 0.218859 -0.465417
C44   C     C_R   0.507086 0.762488 0.686420 0.134780
C45   C     C_2   0.755748 0.497748 0.675489 0.434776
C46   C     C_R   0.500834 0.686069 0.685555 -0.094918
C47   C     C_R   0.498372 0.674898 0.754580 -0.211922
C48   C     C_R   0.501062 0.740332 0.821333 -0.220827
C49   C     C_R   0.503502 0.815173 0.817205 -0.094017
C50   C     C_R   0.506612 0.823561 0.748653 0.133522
C51   C     C_3   0.506937 0.879222 0.707819 -0.493518
C52   C     C_3   0.506740 0.808573 0.635821 -0.489614
C53   C     C_2   0.681426 0.490609 0.675057 -0.431945
C54   C     C_2   0.816063 0.487448 0.739061 -0.195394
C55   C     C_2   0.824428 0.513324 0.817527 -0.405398
C56   C     C_R   0.829288 0.310903 0.074721 0.101950
H1    H     H_    0.918827 0.407206 0.210729 0.198555
H2    H     H_    0.099656 0.455779 0.234130 0.150032
H3    H     H_    0.212236 0.454753 0.346766 0.166214
H4    H     H_    0.431224 0.644565 0.319550 0.177686
H5    H     H_    0.439083 0.564342 0.234813 0.216967
H6    H     H_    0.316435 0.643140 0.208764 0.045605
H7    H     H_    0.130559 0.612895 0.859698 0.168584
H8    H     H_    0.244081 0.727328 0.859534 0.160621
H9    H     H_    0.426666 0.889436 0.200843 0.206048
H10   H     H_    0.663090 0.471027 0.716918 0.128703
H11   H     H_    0.360175 0.946253 0.186691 0.203474
H12   H     H_    0.312333 0.779159 0.200901 0.182801
H13   H     H_    0.245969 0.835999 0.187111 0.217024
H14   H     H_    0.502770 0.236260 0.376230 0.158530
H15   H     H_    0.503235 0.122467 0.263048 0.157912
H16   H     H_    0.590067 0.317587 0.161434 0.193670
H17   H     H_    0.481824 0.295748 0.082077 0.211558
H18   H     H_    0.593943 0.430725 0.274042 0.225786
H19   H     H_    0.485657 0.408703 0.194360 0.202467
H20   H     H_    0.494655 0.616443 0.756908 0.160647
H21   H     H_    0.855589 0.460750 0.722029 0.195386
H22   H     H_    0.498719 0.731484 0.874142 0.156878
H23   H     H_    0.445386 0.882647 0.686133 0.213393
H24   H     H_    0.568684 0.943477 0.747054 0.198499
H25   H     H_    0.444873 0.771041 0.572824 0.198442
H26   H     H_    0.568186 0.832014 0.632992 0.213436
H27   H     H_    0.792020 0.548309 0.838072 0.161158
H28   H     H_    0.732780 0.237400 0.859005 0.156072
H29   H     H_    0.618928 0.123765 0.859027 0.156827
H30   H     H_    0.724419 0.317581 0.153265 0.192270
H31   H     H_    0.810104 0.294397 0.210643 0.213695
H32   H     H_    0.833289 0.430586 0.153216 0.219038
O1    O     O_R   0.908050 0.460100 0.051390 -0.626297
O2    O     O_R   0.445680 0.356610 0.405790 -0.629025
O3    O     O_R   0.639540 0.551640 0.587850 -0.559384
O4    O     O_R   0.536110 0.448210 0.587860 -0.637419
O5    O     O_R   0.547900 0.643240 0.587840 -0.623915
O6    O     O_R   0.444470 0.539800 0.587850 -0.627457
O7    O     O_R   0.457480 0.551640 0.405780 -0.627621
O8    O     O_R   0.354050 0.448210 0.405780 -0.625958
O9    O     O_R   0.449170 0.908380 0.857510 -0.624766
O10   O     O_R   0.551950 0.908320 0.960240 -0.620441
O11   O     O_R   0.540220 0.091590 0.948580 -0.625506
O12   O     O_R   0.908730 0.356680 0.948620 -0.621835
O13   O     O_R   0.643000 0.091540 0.051310 -0.617217
O14   O     O_R   0.448050 0.091580 0.039660 -0.617972
O15   O     O_R   0.550830 0.091520 0.142390 -0.622078
O16   O     O_R   0.357000 0.908370 0.948590 -0.615735
O17   O     O_R   0.459780 0.908310 0.051320 -0.630347
O18   O     O_R   0.908630 0.551710 0.960350 -0.621550
O19   O     O_R   0.909310 0.448290 0.857570 -0.622758
O20   O     O_R   0.091270 0.643320 0.051380 -0.623644
O21   O     O_R   0.091950 0.539900 0.948610 -0.622796
O22   O     O_R   0.090690 0.551710 0.142430 -0.629935
O23   O     O_R   0.091370 0.448290 0.039650 -0.598113
O24   O     O_R   0.549120 0.460050 0.405790 -0.606099
Zn1   Zn    Zn3+2 0.999540 0.569060 0.068630 0.950990
Zn2   Zn    Zn3+2 0.000460 0.430940 0.931370 0.975988
Zn3   Zn    Zn3+2 0.565860 0.568990 0.496810 0.995186
Zn4   Zn    Zn3+2 0.427730 0.430860 0.496820 0.954931
Zn5   Zn    Zn3+2 0.431370 0.999990 0.931350 0.959803
Zn6   Zn    Zn3+2 0.568630 0.999910 0.068550 0.954128
Cl1   Cl    Cl    0.779858 0.509221 0.596399 -0.603997
O25   O     O_3   0.326202 0.557723 0.107666 -0.608768
C57   C     C_3   0.380575 0.632085 0.108845 0.088454
H33   H     H_    0.449814 0.662165 0.159812 0.142413
H34   H     H_    0.358671 0.681902 0.120809 0.131137
C58   C     C_3   0.375300 0.603697 0.021072 -0.306261
H35   H     H_    0.394186 0.551815 0.006229 0.226987
H36   H     H_    0.306689 0.575967 0.970390 0.233774
C59   C     C_3   0.435843 0.680960 0.019705 -0.960625
H37   H     H_    0.418920 0.734121 0.035427 0.277865
H38   H     H_    0.428486 0.658800 0.954413 0.260025
H39   H     H_    0.505248 0.707258 0.067292 0.262087

loop_
_geom_bond_atom_site_label_1
_geom_bond_atom_site_label_2
_ccdc_geom_bond_type
C12   O18   A    
C38   H14   S    
C41   C42   S    
C19   C20   A    
C18   C26   S    
C8    C56   S    
C7    C8    S    
C22   C35   S    
C37   C38   A    
C18   C24   A    
O13   Zn6   S    
C36   C37   A    
C31   C49   S    
C47   H20   S    
C18   C19   A    
C16   H4    S    
C5    C6    A    
C8    H1    S    
C7    H30   S    
C15   C16   S    
C27   O2    A    
C1    C2    S    
O5    Zn3   S    
C31   O10   A    
C48   H22   S    
C51   H24   S    
C57   C58   S    
C30   O8    A    
C17   O25   S    
C54   C55   D    
C7    H31   S    
O7    Zn3   S    
C16   C17   S    
C21   H8    S    
C25   H11   S    
C32   O13   A    
O2    Zn4   S    
C28   O3    A    
C11   H2    S    
C9    C10   A    
C5    C32   S    
C45   Cl1   S    
C43   H18   S    
C45   C53   D    
C21   C22   A    
C34   O23   A    
C36   C41   A    
C14   C30   S    
C1    O12   A    
C44   C46   A    
O10   Zn6   S    
C43   H19   S    
C38   C39   A    
C23   O21   A    
O1    Zn1   S    
C33   C40   S    
O18   Zn1   S    
C51   C52   S    
O12   Zn2   S    
C24   C25   S    
C10   C34   S    
C35   O16   A    
C39   C40   A    
O6    Zn4   S    
C4    H29   S    
C25   C26   S    
C33   O14   A    
C8    H32   S    
O20   Zn1   S    
C19   C23   S    
C59   H38   S    
O19   Zn2   S    
C30   O7    A    
C35   O17   A    
C17   H6    S    
O11   Zn5   S    
C47   C48   A    
C42   H16   S    
C50   C51   S    
C25   H9    S    
C28   O4    A    
C52   H26   S    
C53   H10   S    
O4    Zn4   S    
O22   Zn1   S    
C57   H33   S    
O14   Zn5   S    
O21   Zn2   S    
C58   C59   S    
C9    C17   S    
C48   C49   A    
C45   C54   S    
C34   O22   A    
C22   C24   A    
O17   Zn6   S    
O15   Zn6   S    
C16   H5    S    
C55   H27   S    
C3    C4    A    
O25   C57   S    
C58   H36   S    
O16   Zn5   S    
C44   C50   A    
C46   C47   A    
C40   C41   A    
C42   H17   S    
C1    O1    A    
C33   O15   A    
C6    C56   A    
C4    C5    A    
C27   O24   A    
C12   O19   A    
C28   C53   S    
C6    C7    S    
C13   H3    S    
C32   O11   A    
C29   C46   S    
C26   H12   S    
C54   H21   S    
C20   H7    S    
C2    C3    A    
C9    C15   A    
C59   H39   S    
C2    C56   A    
C29   O5    A    
C11   C13   A    
C44   C52   S    
C29   O6    A    
C27   C37   S    
C23   O20   A    
O3    Zn3   S    
O23   Zn2   S    
C31   O9    A    
O9    Zn5   S    
C52   H25   S    
C51   H23   S    
C57   H34   S    
C12   C55   S    
C10   C11   A    
C20   C21   A    
C49   C50   A    
C42   C43   S    
C3    H28   S    
C26   H13   S    
C39   H15   S    
C14   C15   A    
O8    Zn4   S    
C36   C43   S    
C13   C14   A    
O24   Zn3   S    
C59   H37   S    
C58   H35   S    
