data_mof_unit_16968.cif
_audit_creation_date              2012-12-11T16:09:26-0500
_audit_creation_method            fapswitch 2.2
_symmetry_space_group_name_H-M    P1
_symmetry_Int_Tables_number       1
_space_group_crystal_system       triclinic
_cell_length_a                    6.969847
_cell_length_b                    21.34483
_cell_length_c                    23.614295
_cell_angle_alpha                 90.092716
_cell_angle_beta                  90.275564
_cell_angle_gamma                 89.975801
_cell_volume                      3513.05784174

loop_
_atom_site_label
_atom_site_type_symbol
_atom_type_description
_atom_site_fract_x
_atom_site_fract_y
_atom_site_fract_z
_atom_type_partial_charge
O1    O     O_R   0.494270 0.443530 0.442350 -0.536791
O2    O     O_R   0.824060 0.436290 0.557250 -0.531874
O3    O     O_R   0.994370 0.556470 0.557650 -0.529456
C1    C     C_R   0.655619 0.421209 0.576637 0.723613
O4    O     O_R   0.823990 0.436120 0.442760 -0.537426
O5    O     O_R   0.994300 0.556300 0.442340 -0.536350
C2    C     C_R   0.654957 0.420957 0.423342 0.731169
O6    O     O_R   0.494350 0.443700 0.557660 -0.538969
O7    O     O_3   0.660800 0.539430 0.500000 -0.365196
V1    V     V_3+5 0.935650 0.492690 0.500000 1.491944
O8    O     O_R   0.324020 0.563710 0.442750 -0.532955
C3    C     C_R   0.154825 0.578771 0.423354 0.724502
O9    O     O_R   0.324090 0.563880 0.557240 -0.534765
C4    C     C_R   0.155670 0.578994 0.576624 0.718556
V2    V     V_3+5 0.435660 0.507310 0.500000 1.489810
O10   O     O_3   0.160640 0.460570 0.500000 -0.371210
C5    C     C_3   0.985735 0.727525 0.788760 0.140445
C6    C     C_3   0.173558 0.694766 0.769796 -0.130574
H1    H     H_    0.229099 0.649587 0.786356 0.160693
H2    H     H_    0.421981 0.766352 0.793655 0.147313
C7    C     C_1   0.146834 0.624704 0.622085 -0.128706
C8    C     C_1   0.072366 0.874501 0.877131 -0.165844
C9    C     C_3   0.935701 0.740727 0.726267 -0.010704
C10   C     C_3   0.121538 0.708528 0.707384 0.110555
C11   C     C_3   0.040026 0.804464 0.729551 -0.242299
C12   C     C_3   0.092414 0.790544 0.791836 0.110227
C13   C     C_3   0.227907 0.771822 0.710370 -0.140138
C14   C     C_3   0.280219 0.758560 0.773285 -0.140186
C15   C     C_1   0.137167 0.662587 0.660420 0.062296
C16   C     C_1   0.080461 0.836574 0.838792 0.006956
H3    H     H_    0.324550 0.790508 0.677255 0.136257
H4    H     H_    0.983884 0.849600 0.713048 0.136573
C17   C     C_3   0.317591 0.783199 0.228109 -0.137176
C18   C     C_3   0.980092 0.813907 0.258522 -0.255460
C19   C     C_3   0.987927 0.765215 0.308159 -0.177633
H5    H     H_    0.381989 0.762346 0.318737 0.168421
H6    H     H_    0.828600 0.818923 0.244244 0.125309
H7    H     H_    0.025443 0.861555 0.271756 0.223140
H8    H     H_    0.841440 0.745560 0.312770 0.138034
C20   C     C_1   0.143983 0.624560 0.378053 -0.126069
C21   C     C_3   0.104648 0.792069 0.207886 0.153079
C22   C     C_3   0.327993 0.737660 0.280347 -0.003501
C23   C     C_3   0.126519 0.709874 0.293106 0.129733
C24   C     C_3   0.053452 0.678279 0.237557 -0.292601
C25   C     C_3   0.028583 0.726920 0.189196 -0.352467
C26   C     C_1   0.135026 0.662743 0.339960 -0.031121
C27   C     C_1   0.088562 0.837421 0.159926 -0.078429
C28   C     C_1   0.076183 0.874908 0.121348 -0.170201
H9    H     H_    0.107039 0.710478 0.151012 0.175159
H10   H     H_    0.874188 0.730322 0.177305 0.180828
H11   H     H_    0.153594 0.641051 0.223415 0.205653
H12   H     H_    0.396446 0.761178 0.192374 0.117586
H13   H     H_    0.917945 0.653415 0.245026 0.201176
C29   C     C_3   0.438060 0.255501 0.705369 -0.356996
C30   C     C_3   0.799276 0.244868 0.707833 0.037603
C31   C     C_3   0.772469 0.193704 0.754098 -0.325041
H14   H     H_    0.390089 0.161456 0.739637 0.171138
H15   H     H_    0.430741 0.228746 0.664979 0.205362
H16   H     H_    0.936170 0.269725 0.716512 0.176841
H17   H     H_    0.744796 0.147454 0.733916 0.172208
H18   H     H_    0.907454 0.188011 0.778744 0.173044
C32   C     C_1   0.573335 0.124280 0.877614 -0.168994
C33   C     C_3   0.629650 0.292881 0.709000 0.180926
C34   C     C_3   0.417760 0.209537 0.756054 -0.361214
C35   C     C_3   0.601528 0.209995 0.793507 0.196818
C36   C     C_3   0.626713 0.277934 0.817696 -0.170806
C37   C     C_3   0.631181 0.327410 0.767892 -0.192589
C38   C     C_1   0.584406 0.162721 0.839818 -0.062312
C39   C     C_1   0.639184 0.338397 0.660978 0.035254
C40   C     C_1   0.646896 0.375850 0.622299 -0.121183
H19   H     H_    0.494314 0.354294 0.770116 0.107497
H20   H     H_    0.496401 0.288402 0.843200 0.107637
H21   H     H_    0.314018 0.288370 0.705123 0.176649
H22   H     H_    0.291083 0.223045 0.781869 0.190233
C41   C     C_3   0.570381 0.325833 0.234184 0.019807
C42   C     C_3   0.813592 0.256084 0.283330 -0.321722
C43   C     C_3   0.798629 0.208475 0.233520 -0.374392
H23   H     H_    0.670005 0.288675 0.152412 0.167336
H24   H     H_    0.849393 0.230526 0.323042 0.156635
H25   H     H_    0.933627 0.289167 0.275419 0.182047
H26   H     H_    0.908447 0.219917 0.201102 0.182577
H27   H     H_    0.831614 0.160578 0.249393 0.163264
C44   C     C_1   0.574291 0.124415 0.121235 -0.146901
C45   C     C_3   0.622083 0.292320 0.290901 0.184901
C46   C     C_3   0.558496 0.277553 0.184365 0.007628
C47   C     C_3   0.595290 0.209669 0.206259 0.187450
C48   C     C_3   0.448560 0.194600 0.253614 -0.319328
C49   C     C_3   0.462426 0.243304 0.302583 -0.370739
C50   C     C_1   0.583387 0.162734 0.159376 -0.023330
C51   C     C_1   0.635159 0.337844 0.338876 -0.029881
C52   C     C_1   0.644771 0.375406 0.377610 -0.143059
H28   H     H_    0.321636 0.267318 0.307441 0.153600
H29   H     H_    0.492716 0.218529 0.343088 0.170703
H30   H     H_    0.300087 0.194111 0.236201 0.171334
H31   H     H_    0.428817 0.349096 0.239480 0.156796
H32   H     H_    0.476807 0.146909 0.270720 0.162568
O11   O     O_R   0.724990 0.055630 0.941600 -0.535293
O12   O     O_R   0.395220 0.063160 0.056480 -0.533376
O13   O     O_R   0.225040 0.942970 0.056870 -0.537024
C53   C     C_R   0.564218 0.078377 0.075890 0.725339
O14   O     O_R   0.395270 0.063000 0.941990 -0.536033
O15   O     O_R   0.225080 0.942800 0.941570 -0.535936
C54   C     C_R   0.563766 0.078175 0.922664 0.727240
O16   O     O_R   0.724940 0.055790 0.056910 -0.536387
O17   O     O_3   0.558580 0.959880 0.999250 -0.368677
V3    V     V_3+5 0.283680 0.006590 0.999220 1.456812
O18   O     O_R   0.895380 0.935350 0.941950 -0.535818
C55   C     C_R   0.063810 0.920239 0.922587 0.723779
O19   O     O_R   0.895330 0.935520 0.056440 -0.538133
C56   C     C_R   0.064589 0.920404 0.075794 0.728437
V4    V     V_3+5 0.783690 0.991900 0.999180 1.450692
O20   O     O_3   0.058660 0.038680 0.999200 -0.365288
C57   C     C_2   0.034955 0.794270 0.365354 0.433206
H33   H     H_    0.018834 0.766175 0.403289 0.039775
O21   O     O_2   0.089492 0.848367 0.370225 -0.483475
I1    I     I_    0.531682 0.663615 0.265876 -0.510876
I2    I     I_    0.793164 0.691434 0.850812 -0.403807
I3    I     I_    0.841769 0.201714 0.626050 -0.439664
C58   C     C_2   0.785313 0.377292 0.775240 0.434038
H34   H     H_    0.777565 0.408620 0.811402 0.065627
O22   O     O_2   0.917399 0.383251 0.741901 -0.530146
C59   C     C_2   0.793173 0.282490 0.859315 0.353890
H35   H     H_    0.763891 0.288689 0.904071 0.073234
O23   O     O_2   0.959501 0.278489 0.843697 -0.531271
I4    I     I_    0.765453 0.401096 0.213620 -0.327326
I5    I     I_    0.289044 0.287126 0.139400 -0.403964
C60   C     C_2   0.741273 0.733283 0.700330 0.402190
H36   H     H_    0.628957 0.765314 0.712450 0.030030
O24   O     O_2   0.709293 0.692342 0.665445 -0.524101
C61   C     C_2   0.418786 0.844698 0.239492 0.363800
H37   H     H_    0.512430 0.864149 0.207422 0.040300
O25   O     O_2   0.392722 0.874002 0.283220 -0.492085

loop_
_geom_bond_atom_site_label_1
_geom_bond_atom_site_label_2
_ccdc_geom_bond_type
C17   C61   S    
C28   C56   S    
C48   C49   S    
C30   H16   S    
C18   H6    S    
H5    C22   S    
V4    O20   S    
C42   H24   S    
C1    O6    A    
C42   C45   S    
C1    C40   S    
C41   H31   S    
V3    O20   S    
C46   C47   S    
C17   H12   S    
C20   C26   T    
C5    C9    S    
C6    C10   S    
C17   C22   S    
C43   H27   S    
C4    C7    S    
C6    H1    S    
O19   V4    S    
O5    C3    A    
C19   H8    S    
O11   V4    S    
C41   C45   S    
C29   C33   S    
C31   C35   S    
C48   H30   S    
C53   O16   A    
C18   C19   S    
C10   C15   S    
C57   H33   S    
O8    V2    S    
C24   H13   S    
C41   C46   S    
C36   H20   S    
C33   C39   S    
C30   C33   S    
C9    C10   S    
C36   C59   S    
O15   C55   A    
O1    V2    S    
C43   H26   S    
C19   C23   S    
O7    V1    S    
C5    I2    S    
C11   H4    S    
C36   C37   S    
O17   V4    S    
O14   C54   A    
O1    C2    A    
O9    C4    A    
C46   I5    S    
C18   C21   S    
C45   C51   S    
C58   O22   D    
C44   C50   T    
C33   C37   S    
C13   H3    S    
C49   H28   S    
C6    C14   S    
C42   C43   S    
O4    C2    A    
C47   C48   S    
H2    C14   S    
C11   C12   S    
O13   C56   A    
C7    C15   T    
C31   H17   S    
C41   I4    S    
C45   C49   S    
C3    C20   S    
C61   O25   D    
C23   C24   S    
C60   O24   D    
C29   H21   S    
C27   C28   T    
C25   H9    S    
O18   C55   A    
C35   C38   S    
C2    C52   S    
C48   H32   S    
C30   C31   S    
C5    C6    S    
C21   C27   S    
O11   C54   A    
O3    C4    A    
C24   H11   S    
C22   I1    S    
C43   C47   S    
C12   C16   S    
O6    V2    S    
O12   C53   A    
C44   C53   S    
O9    V2    S    
C22   C23   S    
C5    C12   S    
C59   O23   D    
C60   H36   S    
O2    V1    S    
C10   C13   S    
C24   C25   S    
H23   C46   S    
H14   C34   S    
C9    C60   S    
C32   C54   S    
C29   H15   S    
O14   V3    S    
O13   V3    S    
C49   H29   S    
C21   C25   S    
C8    C16   T    
C18   H7    S    
O18   V4    S    
C42   H25   S    
C47   C50   S    
O5    V1    S    
O16   V4    S    
C58   H34   S    
C11   C13   S    
O17   V3    S    
C12   C14   S    
O12   V3    S    
C32   C38   T    
C17   C21   S    
C34   C35   S    
C61   H37   S    
O7    V2    S    
O4    V1    S    
O3    V1    S    
V1    O10   S    
O19   C56   A    
C51   C52   T    
C29   C34   S    
C25   H10   S    
C8    C55   S    
O2    C1    A    
C19   C57   S    
C37   H19   S    
C9    C11   S    
C39   C40   T    
C23   C26   S    
C35   C36   S    
O15   V3    S    
C13   C14   S    
C34   H22   S    
C31   H18   S    
C59   H35   S    
C37   C58   S    
V2    O10   S    
O8    C3    A    
C57   O21   D    
C30   I3    S    
