data_mof_unit_58963.cif
_audit_creation_date              2013-03-05T16:47:53-0500
_audit_creation_method            fapswitch 2.2
_symmetry_space_group_name_H-M    P1
_symmetry_Int_Tables_number       1
_space_group_crystal_system       triclinic
_cell_length_a                    10.948081
_cell_length_b                    10.823818
_cell_length_c                    9.831348
_cell_angle_alpha                 90.35586
_cell_angle_beta                  92.976732
_cell_angle_gamma                 92.031727
_cell_volume                      1162.67390408

loop_
_atom_site_label
_atom_site_type_symbol
_atom_site_description
_atom_site_fract_x
_atom_site_fract_y
_atom_site_fract_z
_atom_type_partial_charge
O1    O     O_R   0.499990 0.319640 0.618810 -0.591498
O2    O     O_R   0.500000 0.319660 0.381240 -0.590439
C1    C     C_R   0.494454 0.263455 0.499189 0.781906
O3    O     O_R   0.319640 0.500000 0.618780 -0.477625
O4    O     O_R   0.319650 0.500020 0.381210 -0.577284
C2    C     C_R   0.261686 0.503349 0.498116 0.834094
Cu1   Cu    Cu3+1 0.499990 0.499990 0.640660 1.001598
Cu2   Cu    Cu3+1 0.500010 0.500010 0.359340 0.964299
O5    O     O_R   0.500000 0.680340 0.618760 -0.623371
O6    O     O_R   0.500010 0.680360 0.381190 -0.583584
O7    O     O_R   0.680350 0.499980 0.618790 -0.602296
O8    O     O_R   0.680360 0.500000 0.381220 -0.609991
C3    C     C_R   0.494710 0.736744 0.501104 0.793995
C4    C     C_R   0.735907 0.493203 0.503707 0.811896
C5    C     C_R   0.147237 0.581557 0.065291 -0.238247
H1    H     H_    0.161749 0.670538 0.017824 0.213203
C6    C     C_R   0.109315 0.577459 0.195783 0.301113
C7    C     C_R   0.091801 0.460750 0.255801 0.005377
C8    C     C_R   0.105979 0.350813 0.184956 -0.237912
H2    H     H_    0.089560 0.261904 0.232031 0.193418
C9    C     C_R   0.140215 0.356482 0.052321 -0.234629
H3    H     H_    0.152042 0.271621 0.996696 0.170522
C10   C     C_R   0.161776 0.472057 0.993802 0.374584
C11   C     C_R   0.923622 0.447735 0.394510 -0.117871
H4    H     H_    0.868462 0.421744 0.303402 0.146607
C12   C     C_R   0.868448 0.482209 0.511249 -0.096384
C13   C     C_R   0.941769 0.513846 0.628660 -0.065636
C14   C     C_R   0.064348 0.552981 0.609518 0.439800
C15   C     C_R   0.124160 0.501940 0.499050 -0.112843
C16   C     C_R   0.049580 0.455242 0.389616 0.023392
C17   C     C_R   0.887319 0.533586 0.872966 -0.153145
H5    H     H_    0.897796 0.632540 0.867194 0.202382
C18   C     C_R   0.847937 0.482708 0.994003 -0.160892
H6    H     H_    0.835431 0.541928 0.080616 0.172967
C19   C     C_R   0.823205 0.356167 0.003237 -0.185889
H7    H     H_    0.790307 0.317385 0.096253 0.152927
C20   C     C_R   0.841900 0.279150 0.892945 -0.184409
H8    H     H_    0.824114 0.180614 0.902461 0.167616
C21   C     C_R   0.886057 0.327830 0.772126 0.390813
C22   C     C_R   0.907964 0.457871 0.760627 0.039747
H9    H     H_    0.602337 0.113803 0.330889 0.157149
C23   C     C_R   0.327697 0.126884 0.671386 -0.133626
H10   H     H_    0.307491 0.222502 0.654583 0.196554
C24   C     C_R   0.266149 0.065391 0.772420 -0.099949
H11   H     H_    0.204429 0.114434 0.834059 0.164548
C25   C     C_R   0.283172 0.940632 0.793181 -0.068514
H12   H     H_    0.235863 0.892900 0.872562 0.183272
C26   C     C_R   0.356188 0.875431 0.707909 -0.073104
H13   H     H_    0.357227 0.777992 0.725635 0.221594
C27   C     C_R   0.418832 0.935176 0.602295 0.093140
C28   C     C_R   0.410411 0.064971 0.591201 0.068655
C29   C     C_R   0.482278 0.129295 0.497495 -0.084253
C30   C     C_R   0.548278 0.065015 0.404182 -0.144085
H14   H     H_    0.601068 0.890797 0.332720 0.151006
C31   C     C_R   0.548303 0.937590 0.406151 -0.160591
C32   C     C_R   0.486653 0.871311 0.504981 -0.071274
H15   H     H_    0.403016 0.330040 0.119331 0.145261
C33   C     C_R   0.641249 0.681341 0.148989 -0.155540
H16   H     H_    0.661792 0.678576 0.255794 0.209366
C34   C     C_R   0.704213 0.774435 0.081951 -0.195167
H17   H     H_    0.760659 0.842461 0.139724 0.184876
C35   C     C_R   0.702834 0.774663 0.941481 -0.208117
H18   H     H_    0.758697 0.842390 0.889987 0.184906
C36   C     C_R   0.639539 0.680995 0.867331 -0.160764
H19   H     H_    0.660800 0.674781 0.763030 0.206034
C37   C     C_R   0.564860 0.591582 0.929943 0.217620
C38   C     C_R   0.565483 0.591397 0.078000 0.207717
N1    N     N_R   0.501190 0.501210 0.147910 -0.203292
C39   C     C_R   0.447844 0.406697 0.069620 -0.092288
H20   H     H_    0.410025 0.326196 0.868726 0.150724
C40   C     C_R   0.451134 0.405021 0.923763 0.041128
N2    N     N_R   0.501230 0.501290 0.852040 -0.176794
N3    N     N_R   0.203425 0.480502 0.862317 0.094105
O9    O     O_R   0.265938 0.580046 0.832018 -0.377646
O10   O     O_R   0.195247 0.384093 0.782274 -0.436382
N4    N     N_R   0.907943 0.243980 0.663009 0.101427
O11   O     O_R   0.012321 0.248676 0.605564 -0.352973
O12   O     O_R   0.832492 0.150270 0.636596 -0.369652
N5    N     N_R   0.087318 0.691437 0.264777 0.134186
O13   O     O_R   0.982964 0.707297 0.318790 -0.365091
O14   O     O_R   0.161793 0.786610 0.252131 -0.331176
N6    N     N_R   0.102911 0.676265 0.652191 0.141354
O15   O     O_R   0.155984 0.748775 0.566379 -0.328082
O16   O     O_R   0.063817 0.725090 0.762069 -0.404572

loop_
_geom_bond_atom_site_label_1
_geom_bond_atom_site_label_2
_geom_bond_distance
_ccdc_geom_bond_type
C31   C32   1.398819 A    
N3    O9    1.300345 A    
C8    H2    1.083752 S    
Cu1   Cu2   2.765768 S    
C29   C30   1.394402 A    
Cu1   O7    1.997341 S    
C12   C13   1.404786 A    
C15   C16   1.397288 A    
C14   C15   1.416183 A    
C19   C20   1.391572 A    
C20   H8    1.082857 S    
C11   C12   1.379855 A    
O4    C2    1.342335 A    
O7    C4    1.314936 A    
C33   C34   1.389630 A    
C5    H1    1.083064 S    
C6    N5    1.437945 S    
C17   C22   1.403683 A    
C34   C35   1.380321 A    
C7    C8    1.392546 A    
C39   C40   1.436313 A    
O5    C3    1.310873 A    
C35   C36   1.388543 A    
H14   C31   1.082099 S    
C37   N2    1.383476 A    
C19   H7    1.081868 S    
N1    C39   1.371571 A    
C17   C18   1.396334 A    
H20   C40   1.079357 S    
C7    C16   1.417798 S    
C23   C28   1.414629 A    
C3    C32   1.462695 S    
C5    C10   1.392364 A    
C37   C38   1.455279 A    
C9    H3    1.081226 S    
N3    O10   1.300794 A    
C23   C24   1.389121 A    
C10   N3    1.395354 S    
O3    Cu1   1.975037 S    
C24   C25   1.384633 A    
C18   H6    1.079930 S    
N4    O11   1.300253 A    
C30   C31   1.379486 A    
C25   C26   1.393602 A    
C14   N6    1.438613 S    
C38   N1    1.389466 A    
C11   H4    1.083867 S    
O3    C2    1.317252 A    
Cu1   N2    2.077447 S    
N5    O14   1.301532 A    
C27   C28   1.415675 A    
C33   H16   1.063203 S    
C27   C32   1.430544 A    
C28   C29   1.413120 A    
C34   H17   1.082926 S    
O1    C1    1.318200 A    
C36   C37   1.409809 A    
C35   H18   1.082916 S    
C17   H5    1.075297 S    
C13   C22   1.493685 S    
Cu2   O8    1.975037 S    
C6    C7    1.408738 A    
C21   N4    1.435947 S    
C4    C12   1.458233 S    
H9    C30   1.084071 S    
C26   H13   1.070391 S    
O8    C4    1.324227 A    
Cu2   N1    2.079471 S    
N6    O16   1.298603 A    
C9    C10   1.397761 A    
C23   H10   1.077917 S    
C21   C22   1.425595 A    
C24   H11   1.081466 S    
C5    C6    1.369283 A    
C25   H12   1.082707 S    
C8    C9    1.376493 A    
O1    Cu1   1.962533 S    
O2    Cu2   1.965239 S    
N4    O12   1.301392 A    
O6    C3    1.329039 A    
O4    Cu2   1.997341 S    
C1    C29   1.453432 S    
C36   H19   1.065477 S    
O2    C1    1.316021 A    
C40   N2    1.375695 A    
C20   C21   1.404133 A    
C26   C27   1.420396 A    
C18   C19   1.391164 A    
C11   C16   1.381871 A    
N5    O13   1.300954 A    
Cu1   O5    1.965239 S    
C33   C38   1.413181 A    
C2    C15   1.505691 S    
Cu2   O6    1.962532 S    
N6    O15   1.300816 A    
C13   C14   1.415173 A    
H15   C39   1.081306 S    
