data_mof_unit_22523.cif
_audit_creation_date              2012-12-10T16:51:17-0500
_audit_creation_method            fapswitch 2.2
_symmetry_space_group_name_H-M    P1
_symmetry_Int_Tables_number       1
_space_group_crystal_system       triclinic
_cell_length_a                    27.688561
_cell_length_b                    8.776811
_cell_length_c                    7.534777
_cell_angle_alpha                 103.218655
_cell_angle_beta                  95.300413
_cell_angle_gamma                 95.898106
_cell_volume                      1760.38833653

loop_
_atom_site_label
_atom_site_type_symbol
_atom_type_description
_atom_site_fract_x
_atom_site_fract_y
_atom_site_fract_z
_atom_type_partial_charge
C1    C     C_R   0.498222 0.200122 0.453669 0.834811
C2    C     C_R   0.501777 0.799878 0.546330 0.834808
C3    C     C_R   0.099237 0.510048 0.432044 -0.076654
C4    C     C_R   0.900762 0.489942 0.568200 -0.076660
C5    C     C_R   0.115839 0.375046 0.325750 -0.043526
C6    C     C_R   0.884160 0.624947 0.674488 -0.043517
C7    C     C_R   0.081713 0.242886 0.238414 -0.019388
C8    C     C_R   0.918287 0.757094 0.761853 -0.019388
C9    C     C_R   0.132308 0.650344 0.494587 -0.096350
C10   C     C_R   0.867688 0.349652 0.505638 -0.096354
C11   C     C_R   0.353949 0.489968 0.496832 -0.110108
C12   C     C_R   0.646053 0.510059 0.503187 -0.110119
C13   C     C_R   0.967430 0.354747 0.437309 -0.027979
C14   C     C_R   0.032570 0.645232 0.562965 -0.027978
C15   C     C_R   0.983675 0.633495 0.610116 0.070522
C16   C     C_R   0.016326 0.366481 0.390161 0.070522
C17   C     C_R   0.950629 0.493057 0.536018 0.070122
C18   C     C_R   0.049371 0.506923 0.464248 0.070122
C19   C     C_R   0.935252 0.209157 0.400081 -0.081759
C20   C     C_R   0.064746 0.790824 0.600192 -0.081759
C21   C     C_R   0.885381 0.207820 0.423824 0.177779
C22   C     C_R   0.114616 0.792169 0.576425 0.177769
C23   C     C_R   0.407567 0.498415 0.499574 0.784519
C24   C     C_R   0.592434 0.501589 0.500428 0.784506
C25   C     C_R   0.032563 0.245700 0.260387 -0.215194
C26   C     C_R   0.967438 0.754270 0.739899 -0.215197
C27   C     C_2   0.492555 0.032157 0.429962 -0.052543
C28   C     C_2   0.507443 0.967842 0.570033 -0.052562
C29   C     C_R   0.165993 0.382067 0.304036 0.558696
C30   C     C_R   0.834004 0.617941 0.696166 0.558696
C31   C     C_R   0.181890 0.641782 0.466034 0.602594
C32   C     C_R   0.818104 0.358232 0.534142 0.602605
C33   C     C_R   0.281916 0.603080 0.600457 -0.029045
C34   C     C_R   0.718096 0.397001 0.399581 -0.029052
C35   C     C_R   0.332932 0.614698 0.600165 -0.111401
C36   C     C_R   0.667077 0.385369 0.399811 -0.111395
C37   C     C_R   0.323569 0.351322 0.402034 -0.114190
C38   C     C_R   0.676430 0.648680 0.598100 -0.114211
C39   C     C_R   0.272339 0.342973 0.398215 -0.051854
C40   C     C_R   0.727660 0.657049 0.601956 -0.051851
C41   C     C_R   0.250652 0.481521 0.468861 0.183886
C42   C     C_R   0.749352 0.518524 0.531259 0.183891
Cu1   Cu    Cu3+1 0.505380 0.517380 0.684380 1.084683
Cu2   Cu    Cu3+1 0.494620 0.482620 0.315620 1.084685
H1    H     H_    0.007302 0.152448 0.170154 0.149848
H2    H     H_    0.992700 0.847510 0.830147 0.149848
N1    N     N_R   0.198723 0.498049 0.419837 -0.443512
N2    N     N_R   0.801276 0.501974 0.580336 -0.443511
N3    N     N_2   0.486510 0.456430 0.038510 0.014307
N4    N     N_2   0.513490 0.543570 0.961490 0.014307
O1    O     O_R   0.503500 0.286120 0.619780 -0.569404
O2    O     O_R   0.496500 0.713880 0.380220 -0.569411
O3    O     O_R   0.494410 0.256780 0.308360 -0.544381
O4    O     O_R   0.505590 0.743220 0.691640 -0.544377
O5    O     O_R   0.434810 0.514700 0.655690 -0.569486
O6    O     O_R   0.565190 0.485300 0.344310 -0.569480
O7    O     O_R   0.425720 0.485350 0.344280 -0.564091
O8    O     O_R   0.574280 0.514650 0.655720 -0.564100
O9    O     O_2   0.180255 0.290332 0.154153 -0.511197
O10   O     O_2   0.819739 0.709667 0.846046 -0.511211
O11   O     O_2   0.788045 0.227416 0.532756 -0.491736
O12   O     O_2   0.211937 0.772604 0.467357 -0.491733
C43   C     C_1   0.344714 0.214588 0.311098 0.289922
N5    N     N_1   0.360884 0.104428 0.237268 -0.213099
C44   C     C_1   0.655282 0.785365 0.689164 0.289940
N6    N     N_1   0.639110 0.895480 0.763107 -0.213032
I1    I     I_    0.427528 0.294270 0.898169 -0.120380
I2    I     I_    0.572470 0.705735 0.101836 -0.120388
C45   C     C_1   0.244772 0.186808 0.353590 0.372130
N7    N     N_1   0.223330 0.061246 0.316752 -0.141813
C46   C     C_1   0.755223 0.813225 0.646655 0.372157
N8    N     N_1   0.776660 0.938795 0.683549 -0.141831
C47   C     C_1   0.095797 0.095730 0.139831 0.361571
N9    N     N_1   0.106780 0.976727 0.063223 -0.230858
C48   C     C_1   0.904205 0.904250 0.860445 0.361568
N10   N     N_1   0.893224 0.023253 0.937061 -0.230865
C49   C     C_1   0.636863 0.239811 0.304900 0.299781
N11   N     N_1   0.612923 0.122478 0.231792 -0.208980
C50   C     C_1   0.363155 0.760259 0.695014 0.299776
N12   N     N_1   0.387102 0.877590 0.768077 -0.209028
C51   C     C_1   0.737043 0.299200 0.245519 0.333334
N13   N     N_1   0.751928 0.221591 0.121878 -0.192302
C52   C     C_1   0.262985 0.700913 0.754533 0.333348
N14   N     N_1   0.248113 0.778546 0.878188 -0.192298
I3    I     I_    0.838566 0.985733 0.318803 -0.197577
I4    I     I_    0.161431 0.014253 0.681464 -0.197547
C53   C     C_1   0.952647 0.056209 0.357635 0.297140
N15   N     N_1   0.965811 0.932951 0.322244 -0.279278
C54   C     C_1   0.047351 0.943772 0.642665 0.297147
N16   N     N_1   0.034186 0.067028 0.678077 -0.279274
I5    I     I_    0.453019 0.907431 0.168760 -0.177554
I6    I     I_    0.546980 0.092568 0.831229 -0.177573

loop_
_geom_bond_atom_site_label_1
_geom_bond_atom_site_label_2
_ccdc_geom_bond_type
Cu2   N3    S    
C53   N15   T    
C40   C46   S    
C8    C26   A    
C47   N9    T    
C14   C18   A    
C34   C42   A    
Cu1   Cu2   S    
C51   N13   T    
C39   C41   A    
C49   N11   T    
C29   N1    A    
C30   N2    A    
C19   C21   A    
C32   O11   S    
C19   C53   S    
C36   C49   S    
C9    C22   A    
C3    C18   A    
C15   C17   A    
C11   C23   S    
C11   C37   A    
C1    O3    A    
Cu1   O8    S    
Cu2   O3    S    
C29   O9    S    
C30   O10   S    
C27   I5    S    
C34   C51   S    
C12   C36   A    
Cu2   O2    S    
C40   C42   A    
C31   N1    A    
C32   N2    A    
C31   O12   S    
C37   C43   S    
C5    C29   A    
C10   C21   A    
C39   C45   S    
C21   I3    S    
C13   C19   A    
C24   O8    A    
C14   C20   A    
C4    C6    A    
C2    O4    A    
C5    C7    A    
C9    C31   A    
C15   C26   A    
C6    C8    A    
C8    C48   S    
C50   N12   T    
C48   N10   T    
C3    C9    A    
C1    O1    A    
Cu2   O6    S    
Cu1   O4    S    
C52   N14   T    
C38   C44   S    
Cu2   O7    S    
C7    C47   S    
C41   N1    S    
C28   I6    S    
C42   N2    S    
C33   C52   S    
C2    O2    A    
C4    C17   A    
Cu1   O5    S    
C6    C30   A    
C20   C22   A    
C44   N6    T    
C4    C10   A    
C25   H1    S    
C16   C25   A    
C23   O7    A    
N3    I1    S    
C3    C5    A    
Cu1   N4    S    
C23   O5    A    
C24   O6    A    
C20   C54   S    
C12   C24   S    
C7    C25   A    
C13   C17   A    
C33   C41   A    
C11   C35   A    
C46   N8    T    
C37   C39   A    
C38   C40   A    
Cu1   O1    S    
C35   C50   S    
C33   C35   A    
C34   C36   A    
C22   I4    S    
C12   C38   A    
C45   N7    T    
C26   H2    S    
C43   N5    T    
C10   C32   A    
C16   C18   A    
N3    N4    D    
C13   C16   A    
C27   C28   D    
C1    C27   S    
C14   C15   A    
C2    C28   S    
C54   N16   T    
N4    I2    S    
