data_mof_unit_16814.cif
_audit_creation_date              2012-12-10T19:09:07-0500
_audit_creation_method            fapswitch 2.2
_symmetry_space_group_name_H-M    P1
_symmetry_Int_Tables_number       1
_space_group_crystal_system       triclinic
_cell_length_a                    17.745603
_cell_length_b                    10.832935
_cell_length_c                    9.573997
_cell_angle_alpha                 90.295213
_cell_angle_beta                  90.286068
_cell_angle_gamma                 91.612876
_cell_volume                      1839.69822373

loop_
_atom_site_label
_atom_site_type_symbol
_atom_type_description
_atom_site_fract_x
_atom_site_fract_y
_atom_site_fract_z
_atom_type_partial_charge
C1    C     C_R   0.496361 0.262317 0.499597 0.769385
C2    C     C_R   0.884724 0.511537 0.505707 0.114309
C3    C     C_1   0.965317 0.514761 0.511331 0.016814
C4    C     C_1   0.032909 0.516576 0.513816 0.046529
C5    C     C_R   0.157680 0.598585 0.596278 -0.069968
C6    C     C_R   0.237336 0.595075 0.589450 -0.091243
C7    C     C_R   0.272291 0.508977 0.499659 -0.172356
C8    C     C_R   0.227234 0.427425 0.416021 -0.037090
C9    C     C_R   0.148389 0.431770 0.422204 0.147256
C10   C     C_R   0.113924 0.516373 0.511641 0.020381
C11   C     C_R   0.510095 0.064682 0.619897 0.038463
C12   C     C_R   0.355580 0.500750 0.499644 0.824005
C13   C     C_R   0.488227 0.128284 0.500343 -0.217471
C14   C     C_R   0.457620 0.058623 0.385981 -0.045033
C15   C     C_R   0.462537 0.929584 0.387025 -0.167525
C16   C     C_R   0.493917 0.869573 0.501804 -0.097490
C17   C     C_R   0.511879 0.937979 0.621318 0.109543
C18   C     C_3   0.578253 0.936563 0.719031 -0.191227
C19   C     C_3   0.576511 0.079185 0.717650 0.089369
C20   C     C_R   0.540010 0.588593 0.074386 0.204387
C21   C     C_R   0.455040 0.421034 0.075284 -0.033738
C22   C     C_R   0.454058 0.419507 0.926821 0.068309
C23   C     C_R   0.500279 0.737305 0.500417 0.885527
C24   C     C_R   0.540551 0.587856 0.927069 0.203957
C25   C     C_3   0.623800 0.610017 0.922227 -0.475495
C26   C     C_3   0.623383 0.612537 0.080856 -0.077080
C27   C     C_R   0.644255 0.501191 0.500294 0.813720
C28   C     C_R   0.844827 0.556993 0.619352 -0.167302
C29   C     C_R   0.766429 0.553834 0.617165 -0.160905
C30   C     C_R   0.726978 0.504769 0.501397 -0.046183
C31   C     C_R   0.767089 0.460075 0.386650 -0.213650
C32   C     C_R   0.846227 0.463125 0.387856 0.189235
Cu1   Cu    Cu3+1 0.500000 0.499980 0.640670 0.986386
Cu2   Cu    Cu3+1 0.500000 0.500020 0.359330 0.938920
H1    H     H_    0.874407 0.595181 0.709723 0.165154
H2    H     H_    0.441517 0.875788 0.298572 0.197442
H3    H     H_    0.563649 0.893759 0.821095 0.178593
H4    H     H_    0.420028 0.357254 0.133140 0.161274
H5    H     H_    0.653458 0.528942 0.880342 0.210281
H6    H     H_    0.639531 0.699702 0.873086 0.211891
H7    H     H_    0.655492 0.536805 0.128669 0.185100
H8    H     H_    0.736801 0.591660 0.705102 0.153151
H9    H     H_    0.736914 0.421660 0.297166 0.139616
N1    N     N_R   0.500470 0.500930 0.147930 -0.221475
N2    N     N_R   0.500480 0.500890 0.852020 -0.222120
O1    O     O_R   0.500000 0.319640 0.618810 -0.570602
O2    O     O_R   0.500010 0.319680 0.381230 -0.603086
O3    O     O_R   0.391250 0.499990 0.618840 -0.602283
O4    O     O_R   0.391260 0.500020 0.381250 -0.599858
O5    O     O_R   0.499990 0.680320 0.618770 -0.543540
O6    O     O_R   0.500000 0.680360 0.381190 -0.602425
O7    O     O_R   0.608740 0.499980 0.618750 -0.556754
O8    O     O_R   0.608750 0.500010 0.381160 -0.599592
N3    N     N_3   0.644771 0.881969 0.655626 -0.607551
H10   H     H_    0.692045 0.908674 0.715204 0.241487
H11   H     H_    0.652892 0.914050 0.553808 0.214044
N4    N     N_3   0.554768 0.131865 0.852730 -0.520292
H12   H     H_    0.596780 0.112586 0.925819 0.233993
H13   H     H_    0.505071 0.088455 0.888284 0.254977
C33   C     C_2   0.643435 0.147378 0.653345 0.443051
H14   H     H_    0.658791 0.129753 0.545629 0.027522
O9    O     O_2   0.680218 0.224055 0.720648 -0.529960
C34   C     C_2   0.402216 0.326598 0.858868 0.386111
H15   H     H_    0.391340 0.324457 0.748931 0.133512
O10   O     O_2   0.368822 0.248247 0.928096 -0.533235
N5    N     N_3   0.643756 0.734509 0.138603 -0.563423
H16   H     H_    0.607082 0.800681 0.100538 0.223331
H17   H     H_    0.636405 0.730830 0.246781 0.240670
N6    N     N_3   0.887655 0.416274 0.271288 -0.591237
H18   H     H_    0.850756 0.378732 0.195820 0.226504
H19   H     H_    0.915779 0.491305 0.224547 0.218306
C35   C     C_2   0.121124 0.690735 0.689071 0.391103
H20   H     H_    0.149448 0.725115 0.782457 0.060155
O11   O     O_2   0.059509 0.731760 0.661101 -0.522170
C36   C     C_2   0.283902 0.686973 0.670235 0.405497
H21   H     H_    0.274095 0.701224 0.780731 0.051908
O12   O     O_2   0.332821 0.749310 0.612667 -0.531297
C37   C     C_2   0.261435 0.336031 0.321557 0.399147
H22   H     H_    0.306731 0.363764 0.252723 0.068227
O13   O     O_2   0.238179 0.228870 0.318471 -0.488523
N7    N     N_3   0.103374 0.350823 0.333765 -0.510539
H23   H     H_    0.068008 0.296109 0.396583 0.245994
H24   H     H_    0.070039 0.404428 0.268790 0.222013
C38   C     C_2   0.418137 0.116262 0.267868 0.477156
H25   H     H_    0.392699 0.204482 0.282086 0.070444
O14   O     O_2   0.411807 0.064090 0.154857 -0.520429

loop_
_geom_bond_atom_site_label_1
_geom_bond_atom_site_label_2
_ccdc_geom_bond_type
C8    C9    A    
N5    H17   S    
C34   O10   D    
C29   H8    S    
Cu1   N2    S    
C14   C38   S    
C12   O3    A    
C12   O4    A    
C7    C8    A    
C19   N4    S    
Cu1   O7    S    
C11   C19   S    
Cu2   O6    S    
C31   H9    S    
C24   N2    A    
C2    C32   A    
C28   C29   A    
C18   H3    S    
C38   O14   D    
C5    C35   S    
C25   H6    S    
C5    C6    A    
C37   O13   D    
C1    O1    A    
N4    H13   S    
C15   C16   A    
C33   O9    D    
C18   C19   S    
N6    H19   S    
N7    H24   S    
C22   C34   S    
C21   H4    S    
C20   C24   A    
C28   H1    S    
C16   C17   A    
C9    C10   A    
N5    H16   S    
C13   C14   A    
C27   C30   S    
C8    C37   S    
Cu1   O1    S    
C20   N1    A    
Cu1   Cu2   S    
C7    C12   S    
N3    H11   S    
C26   N5    S    
C6    C36   S    
Cu2   N1    S    
C24   C25   S    
C35   O11   D    
C37   H22   S    
C1    O2    A    
C23   O5    A    
Cu1   O5    S    
N7    H23   S    
C33   H14   S    
C36   H21   S    
C29   C30   A    
C21   N1    A    
C23   O6    A    
C31   C32   A    
C17   C18   S    
C38   H25   S    
C36   O12   D    
C32   N6    S    
C16   C23   S    
C1    C13   S    
C4    C10   S    
C3    C4    T    
C15   H2    S    
C27   O7    A    
N3    H10   S    
C11   C17   A    
Cu2   O4    S    
C35   H20   S    
C27   O8    A    
C6    C7    A    
C19   C33   S    
C2    C3    S    
C25   C26   S    
C5    C10   A    
C25   H5    S    
C11   C13   A    
N4    H12   S    
C30   C31   A    
C20   C26   S    
N6    H18   S    
C18   N3    S    
C34   H15   S    
C22   N2    A    
Cu2   O8    S    
Cu1   O3    S    
C14   C15   A    
C2    C28   A    
Cu2   O2    S    
C21   C22   A    
C26   H7    S    
C9    N7    S    
