data_mof_unit_25210.cif
_audit_creation_date              2013-03-05T16:44:36-0500
_audit_creation_method            fapswitch 2.2
_symmetry_space_group_name_H-M    P1
_symmetry_Int_Tables_number       1
_space_group_crystal_system       triclinic
_cell_length_a                    27.137627
_cell_length_b                    10.714967
_cell_length_c                    9.905159
_cell_angle_alpha                 89.539762
_cell_angle_beta                  91.249739
_cell_angle_gamma                 90.596689
_cell_volume                      2879.28098788

loop_
_atom_site_label
_atom_site_type_symbol
_atom_site_description
_atom_site_fract_x
_atom_site_fract_y
_atom_site_fract_z
_atom_type_partial_charge
O1    O     O_R   0.500010 0.316790 0.614690 -0.592803
O2    O     O_R   0.500000 0.316760 0.385350 -0.641348
C1    C     C_R   0.501565 0.260085 0.500257 0.941473
O3    O     O_R   0.428760 0.500040 0.614660 -0.588556
O4    O     O_R   0.428750 0.500000 0.385310 -0.626933
C2    C     C_R   0.405899 0.499323 0.498568 1.030846
Zn1   Zn    Zn3+2 0.500000 0.500020 0.653130 1.055316
Zn2   Zn    Zn3+2 0.500000 0.499980 0.346870 0.980068
O5    O     O_R   0.500000 0.683240 0.614650 -0.602981
O6    O     O_R   0.499990 0.683210 0.385310 -0.622413
O7    O     O_R   0.571250 0.500000 0.614690 -0.560083
O8    O     O_R   0.571240 0.499960 0.385340 -0.628070
C3    C     C_R   0.501096 0.739859 0.499426 0.953981
C4    C     C_R   0.594105 0.498719 0.501269 0.971084
C5    C     C_R   0.178764 0.358926 0.566250 0.569292
O9    O     O_2   0.207398 0.329533 0.674727 -0.519774
N1    N     N_R   0.200195 0.409526 0.454559 -0.327820
C6    C     C_R   0.173051 0.443282 0.343049 0.514438
C7    C     C_R   0.269969 0.554605 0.464426 -0.237852
C8    C     C_R   0.320282 0.580018 0.481776 0.233311
C9    C     C_R   0.335449 0.354410 0.486581 0.164080
C10   C     C_R   0.284948 0.330879 0.464363 0.171020
C11   C     C_R   0.252310 0.431743 0.457209 0.178762
C12   C     C_R   0.098913 0.367967 0.451024 -0.098624
C13   C     C_R   0.127402 0.337976 0.568031 -0.070865
C14   C     C_R   0.103480 0.292248 0.683691 0.219809
C15   C     C_R   0.121975 0.424299 0.339747 -0.035506
C16   C     C_R   0.352961 0.478758 0.494197 -0.301638
C17   C     C_R   0.645844 0.467247 0.503278 -0.159401
C18   C     C_R   0.972754 0.264679 0.556307 -0.013151
C19   C     C_R   0.967293 0.356314 0.327868 0.046889
C20   C     C_R   0.944385 0.309640 0.445534 0.040492
C21   C     C_R   0.948111 0.195072 0.658574 0.082839
C22   C     C_R   0.896714 0.206311 0.671729 0.284506
C23   C     C_R   0.869028 0.270827 0.571622 -0.175682
C24   C     C_R   0.892456 0.309910 0.452667 -0.083243
C25   C     C_R   0.864039 0.353643 0.341905 -0.010845
C26   C     C_R   0.813891 0.374745 0.358033 0.574442
N2    N     N_R   0.793138 0.353425 0.480410 -0.347471
C27   C     C_R   0.818616 0.298030 0.584793 0.649454
C28   C     C_R   0.705726 0.305303 0.475818 -0.073179
C29   C     C_R   0.657175 0.343005 0.476720 -0.198778
C30   C     C_R   0.683326 0.555607 0.532120 0.218457
C31   C     C_R   0.732971 0.517609 0.528297 0.269422
C32   C     C_R   0.743571 0.391744 0.499426 0.130632
O10   O     O_2   0.795538 0.274543 0.701644 -0.431706
C33   C     C_R   0.024338 0.288890 0.559621 0.050100
C34   C     C_R   0.047281 0.344815 0.446290 0.029747
C35   C     C_R   0.018757 0.382774 0.330887 0.018698
C36   C     C_R   0.052795 0.271358 0.678793 -0.246544
H1    H     H_    0.628156 0.275030 0.455975 0.168360
H2    H     H_    0.714171 0.209412 0.452394 0.190357
H3    H     H_    0.036038 0.248759 0.773687 0.178567
O11   O     O_2   0.195602 0.494554 0.235496 -0.584762
C37   C     C_R   0.093589 0.467769 0.230796 -0.222536
H4    H     H_    0.243930 0.630525 0.459684 0.201834
H5    H     H_    0.110760 0.520889 0.150666 0.188766
C38   C     C_R   0.937441 0.372305 0.210489 -0.162578
C39   C     C_R   0.886508 0.375984 0.218499 -0.071352
O12   O     O_2   0.786296 0.419873 0.253993 -0.494794
C40   C     C_R   0.042451 0.455202 0.228749 0.175504
H6    H     H_    0.952595 0.382410 0.111254 0.189423
H7    H     H_    0.864964 0.398446 0.128342 0.221555
C41   C     C_R   0.518592 0.062418 0.617440 0.059491
C42   C     C_R   0.508749 0.128652 0.498697 -0.101242
C43   C     C_R   0.508396 0.065568 0.374818 -0.149589
H8    H     H_    0.505101 0.114457 0.279189 0.194900
C44   C     C_R   0.507911 0.936594 0.374133 -0.138828
H9    H     H_    0.504080 0.889257 0.278167 0.174875
C45   C     C_R   0.508022 0.871357 0.497436 -0.078047
C46   C     C_R   0.518064 0.935098 0.616690 0.053855
C47   C     C_3   0.496520 0.925850 0.754765 -0.102744
C48   C     C_3   0.498305 0.069198 0.756899 0.084585
H10   H     H_    0.458262 0.887468 0.752750 0.173108
H11   H     H_    0.461524 0.113352 0.760837 0.140805
C49   C     C_R   0.458688 0.529862 0.067523 0.095144
N3    N     N_R   0.499670 0.499140 0.142800 -0.147728
C50   C     C_R   0.542173 0.481773 0.076167 -0.155047
H12   H     H_    0.576074 0.467195 0.133162 0.203293
C51   C     C_R   0.542790 0.483726 0.933252 0.363415
N4    N     N_R   0.499670 0.499180 0.857150 -0.154325
C52   C     C_R   0.458932 0.532112 0.925933 0.061581
C53   C     C_3   0.407888 0.480361 0.911164 -0.453887
C54   C     C_3   0.407513 0.472870 0.066194 0.332175
H13   H     H_    0.382553 0.551508 0.867159 0.200741
H14   H     H_    0.406025 0.390513 0.856734 0.232592
N5    N     N_R   0.369016 0.252408 0.502722 0.187560
O13   O     O_R   0.392978 0.237101 0.616629 -0.433543
O14   O     O_R   0.372719 0.169291 0.408576 -0.412672
N6    N     N_R   0.671227 0.681745 0.566275 0.234756
O15   O     O_R   0.637417 0.741842 0.497883 -0.410607
O16   O     O_R   0.693248 0.736174 0.668243 -0.269121
N7    N     N_R   0.772402 0.607167 0.545130 0.239547
O17   O     O_R   0.770748 0.713789 0.481454 -0.283283
O18   O     O_R   0.811141 0.580563 0.619090 -0.348013
N8    N     N_2   0.015630 0.529517 0.133211 -0.333500
H15   H     H_    0.033037 0.543222 0.042623 0.221362
C55   C     C_3   0.997247 0.644713 0.187262 -0.714891
H16   H     H_    0.974477 0.693049 0.108837 0.252880
H17   H     H_    0.028478 0.706978 0.217855 0.235500
H18   H     H_    0.973821 0.625759 0.275860 0.260134
N9    N     N_2   0.266109 0.206383 0.456492 -0.271118
H19   H     H_    0.285462 0.141189 0.512733 0.296197
C56   C     C_3   0.254152 0.164826 0.320970 -0.671758
H20   H     H_    0.238114 0.069152 0.325068 0.250915
H21   H     H_    0.287859 0.163294 0.259340 0.264766
H22   H     H_    0.226637 0.227154 0.271684 0.236021
N10   N     N_2   0.527722 0.863038 0.855784 -0.302642
H23   H     H_    0.516826 0.873700 0.954036 0.250905
C57   C     C_3   0.580557 0.855755 0.838348 -0.433394
H24   H     H_    0.597489 0.805463 0.925761 0.238913
H25   H     H_    0.597714 0.949689 0.833015 0.265313
H26   H     H_    0.588602 0.804127 0.744870 0.271647
N11   N     N_R   0.534024 0.122264 0.853878 0.224741
O19   O     O_R   0.526468 0.113075 0.982707 -0.445194
O20   O     O_R   0.573267 0.180363 0.812475 -0.327908
N12   N     N_R   0.589934 0.478033 0.872620 0.232358
O21   O     O_R   0.610775 0.582399 0.836533 -0.383417
O22   O     O_R   0.618461 0.384696 0.902775 -0.288524
N13   N     N_2   0.371831 0.556564 0.124736 -0.308620
H27   H     H_    0.377126 0.649783 0.101470 0.230577
C58   C     C_3   0.320544 0.518130 0.114515 -0.658192
H28   H     H_    0.297405 0.587888 0.165018 0.266857
H29   H     H_    0.314763 0.426740 0.165665 0.247181
H30   H     H_    0.308405 0.511579 0.006986 0.244699
N14   N     N_2   0.403832 0.346207 0.122429 -0.287830
H31   H     H_    0.397137 0.343281 0.224236 0.278299
C59   C     C_3   0.437437 0.249733 0.082396 -0.639794
H32   H     H_    0.425689 0.159253 0.127389 0.248755
H33   H     H_    0.475244 0.270836 0.119956 0.262240
H34   H     H_    0.437343 0.237795 0.971660 0.237698
N15   N     N_2   0.129460 0.270389 0.807934 -0.249463
H35   H     H_    0.118090 0.190339 0.857372 0.224585
C60   C     C_3   0.131198 0.376876 0.896775 -0.679983
H36   H     H_    0.154502 0.354886 0.987224 0.260155
H37   H     H_    0.093488 0.399480 0.929842 0.193355
H38   H     H_    0.147433 0.459407 0.844878 0.258948
N16   N     N_R   0.872731 0.143377 0.780798 0.237751
O23   O     O_R   0.844249 0.047311 0.756826 -0.283890
O24   O     O_R   0.880274 0.180231 0.904440 -0.378249
N17   N     N_2   0.973633 0.102164 0.736200 -0.322533
H39   H     H_    0.959726 0.081628 0.829788 0.271632
C61   C     C_3   0.986043 0.991780 0.661538 -0.713215
H40   H     H_    0.007906 0.927955 0.727656 0.235155
H41   H     H_    0.008595 0.016901 0.572897 0.246420
H42   H     H_    0.951904 0.942350 0.626911 0.266662
N18   N     N_R   0.337221 0.707995 0.486567 0.218029
O25   O     O_R   0.311031 0.795757 0.429733 -0.373458
O26   O     O_R   0.376420 0.739459 0.556805 -0.419063

loop_
_geom_bond_atom_site_label_1
_geom_bond_atom_site_label_2
_geom_bond_distance
_ccdc_geom_bond_type
C7    H4    1.083148 S    
C38   H6    1.077973 S    
C61   H42   1.111445 S    
C43   C44   1.381952 A    
N5    O13   1.299998 A    
C9    N5    1.435767 S    
N7    O17   1.301258 A    
C17   C29   1.397740 A    
C28   C29   1.382333 A    
C7    C8    1.396667 A    
C12   C15   1.407984 A    
C59   H32   1.110399 S    
C49   C54   1.511084 S    
C60   H38   1.111233 S    
C56   H21   1.111077 S    
N11   O19   1.299638 A    
C40   N8    1.424539 S    
N3    C50   1.356588 A    
C31   C32   1.414649 A    
Zn1   O7    1.978822 S    
N14   H31   1.028719 S    
C53   C54   1.537303 S    
C20   C24   1.412575 A    
C19   C38   1.412808 A    
C24   C25   1.407244 A    
N18   O26   1.301256 A    
C14   C36   1.391140 A    
C26   N2    1.364315 A    
O7    C4    1.295319 A    
C15   C37   1.392174 A    
C5    C13   1.409959 A    
C3    C45   1.419571 S    
C61   H40   1.110375 S    
N10   H23   1.030850 S    
C5    N1    1.366751 A    
C22   C23   1.411698 A    
C41   C46   1.364230 A    
O5    C3    1.288996 A    
C57   H24   1.109725 S    
C31   N7    1.437725 S    
N18   O25   1.301657 A    
C2    C16   1.450903 S    
C47   N10   1.461241 S    
N10   C57   1.450908 S    
N15   H35   1.032008 S    
N8    C55   1.447113 S    
C41   C48   1.500721 S    
C45   C46   1.389637 A    
C28   H2    1.083103 S    
C54   N13   1.459127 S    
C29   H1    1.084568 S    
N2    C32   1.427330 S    
C43   H8    1.081179 S    
N7    O18   1.300932 A    
C9    C10   1.403829 A    
C17   C30   1.408635 A    
C48   H11   1.110629 S    
C1    C42   1.423987 S    
C19   C35   1.421918 A    
O3    Zn1   1.962310 S    
C56   H20   1.110317 S    
N13   C58   1.448998 S    
N4    C52   1.362251 A    
C33   C36   1.408800 A    
C54   N14   1.466171 S    
C36   H3    1.077788 S    
C35   C40   1.429892 A    
C30   N6    1.438902 S    
C18   C33   1.420776 A    
C12   C13   1.415737 A    
C47   C48   1.536533 S    
C47   H10   1.112558 S    
C49   C52   1.402646 A    
N2    C27   1.366322 A    
C50   H12   1.080923 S    
C44   H9    1.083504 S    
C60   H37   1.110988 S    
C8    C16   1.411377 A    
C21   N17   1.428551 S    
C38   C39   1.387203 A    
C22   N16   1.433619 S    
C48   N11   1.463653 S    
O1    C1    1.292055 A    
C23   C24   1.409645 A    
C12   C34   1.420271 A    
C7    C11   1.398115 A    
C30   C31   1.412857 A    
C25   C26   1.394676 A    
N17   C61   1.446538 S    
N6    O16   1.301251 A    
C33   C34   1.420834 A    
Zn2   O8    1.962310 S    
N8    H15   1.031881 S    
N1    C6    1.362738 A    
C8    N18   1.442546 S    
N1    C11   1.431435 S    
C49   N3    1.367024 A    
N9    C56   1.446762 S    
C57   H26   1.109306 S    
C25   C39   1.395723 A    
N16   O24   1.301104 A    
N15   C60   1.446261 S    
C26   O12   1.349993 S    
Zn2   O6    2.002888 S    
C34   C35   1.425390 A    
Zn1   N4    2.021013 S    
C9    C16   1.411971 A    
O8    C4    1.293308 A    
C55   H16   1.110301 S    
C55   H17   1.111549 S    
C37   H5    1.083703 S    
Zn2   N3    2.021262 S    
O3    C2    1.294663 A    
C27   O10   1.348652 S    
C4    C17   1.447084 S    
C58   H29   1.110185 S    
C59   H34   1.105262 S    
C14   N15   1.423862 S    
N13   H27   1.032566 S    
C61   H41   1.110910 S    
C51   N12   1.427219 S    
N14   C59   1.448957 S    
C18   C21   1.427111 A    
C53   H13   1.111915 S    
O1    Zn1   2.002889 S    
C19   C20   1.418007 A    
O2    Zn2   1.996846 S    
C6    C15   1.398535 A    
C51   N4    1.388703 A    
O6    C3    1.286925 A    
C59   H33   1.105472 S    
O4    Zn2   1.978825 S    
N11   O20   1.300407 A    
C60   H36   1.110464 S    
C55   H18   1.111010 S    
C39   H7    1.083477 S    
C10   N9    1.425711 S    
C41   C42   1.391125 A    
C58   H30   1.110535 S    
N12   O22   1.299993 A    
O2    C1    1.285824 A    
C13   C14   1.410951 A    
C46   C47   1.501201 S    
N17   H39   1.029778 S    
C18   C20   1.411047 A    
N6    O15   1.301386 A    
O4    C2    1.293534 A    
C37   C40   1.392606 A    
C21   C22   1.410182 A    
C23   C27   1.410788 A    
C50   C51   1.416037 A    
C42   C43   1.405454 A    
N9    H19   1.030901 S    
C57   H25   1.105922 S    
N16   O23   1.301043 A    
C6    O11   1.350292 S    
Zn1   O5    1.996845 S    
C53   H14   1.107330 S    
C44   C45   1.402299 A    
C52   C53   1.491359 S    
N5    O14   1.300827 A    
C28   C32   1.393018 A    
C10   C11   1.404826 A    
C58   H28   1.110263 S    
N12   O21   1.298995 A    
C56   H22   1.109565 S    
C5    O9    1.349349 S    
