data_mof_unit_31997.cif
_audit_creation_date              2012-12-11T14:44:09-0500
_audit_creation_method            fapswitch 2.2
_symmetry_space_group_name_H-M    P1
_symmetry_Int_Tables_number       1
_space_group_crystal_system       triclinic
_cell_length_a                    19.085769
_cell_length_b                    10.982594
_cell_length_c                    18.860878
_cell_angle_alpha                 90.27147
_cell_angle_beta                  90.238026
_cell_angle_gamma                 89.728768
_cell_volume                      3953.32983178

loop_
_atom_site_label
_atom_site_type_symbol
_atom_type_description
_atom_site_fract_x
_atom_site_fract_y
_atom_site_fract_z
_atom_type_partial_charge
Br1   Br    Br    0.912412 0.966990 0.556646 -0.237344
Br2   Br    Br    0.420726 0.373694 0.161874 -0.358097
Br3   Br    Br    0.056777 0.917013 0.840368 -0.404475
Br4   Br    Br    0.920719 0.873675 0.161874 -0.358089
Br5   Br    Br    0.422268 0.961588 0.390930 -0.324865
Br6   Br    Br    0.455396 0.890656 0.556702 -0.255225
Br7   Br    Br    0.922061 0.462147 0.390898 -0.325429
Br8   Br    Br    0.955492 0.390661 0.556618 -0.255223
Br9   Br    Br    0.576415 0.361049 0.608276 -0.267401
Br10  Br    Br    0.558658 0.423998 0.437749 -0.204999
Br11  Br    Br    0.076413 0.861121 0.608298 -0.267350
Br12  Br    Br    0.186083 0.155702 0.380828 -0.301488
Br13  Br    Br    0.058661 0.924059 0.437757 -0.204967
Br14  Br    Br    0.412397 0.466922 0.556623 -0.237313
Br15  Br    Br    0.686027 0.655668 0.380854 -0.301427
Br16  Br    Br    0.621357 0.970615 0.609282 -0.360913
Br17  Br    Br    0.337727 0.702317 0.445507 -0.300107
Br18  Br    Br    0.121402 0.470825 0.609339 -0.361056
Br19  Br    Br    0.837857 0.202438 0.445456 -0.299826
Br20  Br    Br    0.556785 0.417000 0.840367 -0.404483
C1    C     C_R   0.729466 0.376472 0.145811 0.554435
C2    C     C_R   0.970250 0.989513 0.037913 -0.095412
C3    C     C_R   0.992100 0.770521 0.036689 -0.056524
C4    C     C_R   0.508536 0.049963 0.031015 0.235794
C5    C     C_R   0.518987 0.056359 0.958263 0.247245
C6    C     C_R   0.008547 0.549960 0.031011 0.235781
C7    C     C_R   0.018995 0.556362 0.958259 0.247244
C8    C     C_R   0.494748 0.497725 0.968831 -0.106619
C9    C     C_R   0.470259 0.489520 0.037910 -0.095410
C10   C     C_R   0.701932 0.870076 0.037691 0.261575
C11   C     C_R   0.308048 0.876396 0.965202 0.206957
C12   C     C_R   0.201938 0.370066 0.037693 0.261583
C13   C     C_R   0.808050 0.376402 0.965203 0.206951
C14   C     C_R   0.708846 0.844766 0.966023 -0.050615
C15   C     C_R   0.304161 0.869088 0.038776 -0.102204
C16   C     C_R   0.208851 0.344757 0.966025 -0.050611
C17   C     C_R   0.269963 0.377088 0.853675 0.552488
C18   C     C_R   0.804163 0.369094 0.038777 -0.102208
C19   C     C_R   0.748954 0.920535 0.922859 0.001025
C20   C     C_R   0.245055 0.913456 0.074021 -0.002097
C21   C     C_R   0.248955 0.420531 0.922860 0.001032
C22   C     C_R   0.745057 0.413461 0.074022 -0.002098
C23   C     C_R   0.780395 0.024517 0.950951 -0.126793
C24   C     C_R   0.191596 0.971617 0.036012 -0.110141
C25   C     C_R   0.280394 0.524515 0.950952 -0.126791
C26   C     C_R   0.691599 0.471626 0.036014 -0.110145
C27   C     C_R   0.774035 0.050274 0.022266 -0.175394
C28   C     C_R   0.229466 0.876471 0.145811 0.554423
C29   C     C_R   0.195366 0.981139 0.964059 -0.162441
C30   C     C_R   0.274036 0.550271 0.022267 -0.175395
C31   C     C_R   0.695368 0.481146 0.964060 -0.162440
C32   C     C_R   0.735375 0.973995 0.066275 0.033215
C33   C     C_R   0.252993 0.934048 0.927168 0.029810
C34   C     C_R   0.235377 0.473990 0.066276 0.033218
C35   C     C_R   0.752994 0.434053 0.927169 0.029812
C36   C     C_R   0.469993 0.074071 0.453469 0.141708
C37   C     C_R   0.469007 0.057179 0.526079 0.130555
C38   C     C_R   0.969996 0.574185 0.453460 0.141818
C39   C     C_R   0.769963 0.877089 0.853675 0.552474
C40   C     C_R   0.969024 0.557233 0.526069 0.130528
C41   C     C_R   0.490542 0.153452 0.572137 -0.009109
C42   C     C_R   0.505494 0.173174 0.425656 0.000087
C43   C     C_R   0.990569 0.653474 0.572142 -0.009069
C44   C     C_R   0.005515 0.673237 0.425662 0.000150
C45   C     C_R   0.531659 0.154195 0.145744 0.581729
C46   C     C_R   0.470534 0.155798 0.852429 0.596658
C47   C     C_R   0.031660 0.654194 0.145743 0.581749
C48   C     C_R   0.970534 0.655798 0.852428 0.596669
C49   C     C_R   0.526198 0.252966 0.544865 0.158783
C50   C     C_R   0.511492 0.392700 0.930416 0.160973
C51   C     C_R   0.530246 0.267028 0.471463 0.152145
C52   C     C_R   0.026223 0.753011 0.544877 0.158798
C53   C     C_R   0.030283 0.767079 0.471477 0.152082
C54   C     C_R   0.811393 0.903559 0.454239 0.255087
C55   C     C_R   0.221875 0.058829 0.518157 0.218824
C56   C     C_R   0.311368 0.403444 0.454235 0.255077
C57   C     C_R   0.721846 0.558770 0.518165 0.218894
C58   C     C_R   0.821550 0.910865 0.526752 0.130030
C59   C     C_R   0.223534 0.035496 0.445667 0.180110
C60   C     C_R   0.321544 0.410742 0.526746 0.129981
C61   C     C_R   0.468664 0.377341 0.072314 0.174175
C62   C     C_R   0.723506 0.535462 0.445676 0.180175
C63   C     C_R   0.762742 0.911518 0.572640 0.006412
C64   C     C_R   0.251664 0.924377 0.421398 0.020720
C65   C     C_R   0.262747 0.411480 0.572643 0.006533
C66   C     C_R   0.751662 0.424373 0.421396 0.020768
C67   C     C_R   0.696682 0.938117 0.545725 0.168417
C68   C     C_R   0.286513 0.846136 0.469637 0.132880
C69   C     C_R   0.196691 0.438227 0.545748 0.168508
C70   C     C_R   0.786575 0.346181 0.469610 0.132957
C71   C     C_R   0.688200 0.950904 0.472853 -0.099285
C72   C     C_R   0.011486 0.892702 0.930418 0.160972
C73   C     C_R   0.289434 0.875846 0.540387 -0.098208
C74   C     C_R   0.188196 0.451066 0.472880 -0.099113
C75   C     C_R   0.789510 0.375903 0.540366 -0.098325
C76   C     C_R   0.745727 0.932179 0.427169 0.013270
C77   C     C_R   0.259949 0.983339 0.564800 -0.025646
C78   C     C_R   0.245711 0.432210 0.427184 0.013417
C79   C     C_R   0.759958 0.483322 0.564797 -0.025707
C80   C     C_R   0.729444 0.010977 0.139990 0.555708
C81   C     C_R   0.259675 0.971763 0.853574 0.582814
C82   C     C_R   0.229445 0.510974 0.139990 0.555711
C83   C     C_R   0.968658 0.877332 0.072315 0.174176
C84   C     C_R   0.759675 0.471765 0.853574 0.582816
C85   C     C_R   0.730303 0.379107 0.352051 0.593707
C86   C     C_R   0.272529 0.376494 0.646364 0.581892
C87   C     C_R   0.230305 0.879113 0.352049 0.593671
C88   C     C_R   0.772525 0.876506 0.646366 0.581862
C89   C     C_R   0.533217 0.158943 0.354033 0.594410
C90   C     C_R   0.466380 0.154554 0.645561 0.597279
C91   C     C_R   0.033230 0.658953 0.354043 0.594417
C92   C     C_R   0.966386 0.654557 0.645562 0.597293
C93   C     C_R   0.740190 0.973583 0.354885 0.616861
C94   C     C_R   0.994738 0.997723 0.968834 -0.106621
C95   C     C_R   0.270245 0.017500 0.638334 0.550101
C96   C     C_R   0.240186 0.473589 0.354898 0.616880
C97   C     C_R   0.770243 0.517482 0.638331 0.550121
C98   C     C_R   0.506872 0.166003 0.922269 -0.015733
C99   C     C_R   0.502349 0.157942 0.072212 -0.023191
C100  C     C_R   0.006874 0.666006 0.922266 -0.015726
C101  C     C_R   0.002353 0.657937 0.072210 -0.023198
C102  C     C_R   0.503593 0.276323 0.962057 -0.054116
C103  C     C_R   0.492101 0.270526 0.036690 -0.056522
C104  C     C_R   0.003592 0.776324 0.962056 -0.054117
Cl1   Cl    Cl    0.496978 0.902601 0.067370 -0.444194
Cl2   Cl    Cl    0.381703 0.809044 0.924546 -0.528637
Cl3   Cl    Cl    0.156914 0.261832 0.088803 -0.503848
Cl4   Cl    Cl    0.881707 0.309053 0.924548 -0.528650
Cl5   Cl    Cl    0.549332 0.924888 0.912482 -0.456739
Cl6   Cl    Cl    0.997008 0.402587 0.067362 -0.444173
Cl7   Cl    Cl    0.049345 0.424898 0.912472 -0.456737
Cl8   Cl    Cl    0.882145 0.872215 0.396766 -0.446579
Cl9   Cl    Cl    0.161123 0.167147 0.549415 -0.406820
Cl10  Cl    Cl    0.382097 0.372037 0.396747 -0.446787
Cl11  Cl    Cl    0.661067 0.667023 0.549433 -0.406639
Cl12  Cl    Cl    0.656897 0.761852 0.088798 -0.503848
Cr1   Cr    Cr6+3 0.772000 0.169640 0.250110 1.153000
Cr2   Cr    Cr6+3 0.383330 0.010620 0.749160 1.175843
Cr3   Cr    Cr6+3 0.116670 0.510620 0.250840 1.186064
Cr4   Cr    Cr6+3 0.883330 0.510620 0.749160 1.175816
Cr5   Cr    Cr6+3 0.228000 0.169640 0.749890 1.171293
Cr6   Cr    Cr6+3 0.272000 0.669640 0.250110 1.153008
Cr7   Cr    Cr6+3 0.728000 0.669640 0.749890 1.171292
Cr8   Cr    Cr6+3 0.614960 0.323350 0.249260 1.160658
Cr9   Cr    Cr6+3 0.385040 0.323350 0.750740 1.148593
Cr10  Cr    Cr6+3 0.114960 0.823350 0.249260 1.160651
Cr11  Cr    Cr6+3 0.885040 0.823350 0.750740 1.148586
Cr12  Cr    Cr6+3 0.616670 0.010620 0.250840 1.186032
H1    H     H_    0.637706 0.979609 0.452315 0.168793
H2    H     H_    0.345440 0.823161 0.067938 0.192229
H3    H     H_    0.186186 0.261733 0.945046 0.176129
H4    H     H_    0.845443 0.323167 0.067939 0.192218
H5    H     H_    0.812619 0.082282 0.918358 0.202909
H6    H     H_    0.144448 0.005588 0.061167 0.207266
H7    H     H_    0.312615 0.582282 0.918358 0.202913
H8    H     H_    0.644451 0.505600 0.061169 0.207264
H9    H     H_    0.800710 0.128568 0.043687 0.144752
H10   H     H_    0.153248 0.029819 0.937998 0.188044
H11   H     H_    0.300709 0.628566 0.043687 0.144754
H12   H     H_    0.314893 0.813513 0.576752 0.214678
H13   H     H_    0.653250 0.529827 0.937999 0.188038
H14   H     H_    0.137709 0.479941 0.452355 0.168526
H15   H     H_    0.815018 0.313613 0.576720 0.214699
H16   H     H_    0.999944 0.086454 0.944687 0.218120
H17   H     H_    0.952896 0.071255 0.065097 0.193664
H18   H     H_    0.499957 0.586453 0.944682 0.218118
H19   H     H_    0.452909 0.571265 0.065093 0.193677
H20   H     H_    0.686179 0.761743 0.945043 0.176132
O1    O     O_R   0.787540 0.042690 0.170470 -0.468564
O2    O     O_R   0.454130 0.051100 0.669160 -0.457055
O3    O     O_R   0.045870 0.551100 0.330840 -0.468689
O4    O     O_R   0.954130 0.551100 0.669160 -0.457070
O5    O     O_R   0.681340 0.959300 0.325510 -0.489318
O6    O     O_R   0.318660 0.959300 0.674490 -0.497045
O7    O     O_R   0.181340 0.459300 0.325510 -0.489272
O8    O     O_R   0.818660 0.459300 0.674490 -0.497097
O9    O     O_3   0.667880 0.167870 0.250070 -0.358198
O10   O     O_3   0.332120 0.167870 0.749930 -0.352762
O11   O     O_3   0.167880 0.667870 0.250070 -0.358208
O12   O     O_R   0.212460 0.042690 0.829530 -0.494501
O13   O     O_3   0.832120 0.667870 0.749930 -0.352738
O14   O     O_R   0.765660 0.292160 0.175050 -0.525558
O15   O     O_R   0.234340 0.292160 0.824950 -0.493175
O16   O     O_R   0.265660 0.792160 0.175050 -0.525566
O17   O     O_R   0.734340 0.792160 0.824950 -0.493184
O18   O     O_R   0.670190 0.408980 0.168550 -0.491308
O19   O     O_R   0.329810 0.408980 0.831450 -0.498555
O20   O     O_R   0.170190 0.908980 0.168550 -0.491306
O21   O     O_R   0.829810 0.908980 0.831450 -0.498556
O22   O     O_R   0.556580 0.251450 0.175160 -0.483640
O23   O     O_R   0.287540 0.542690 0.170470 -0.468557
O24   O     O_R   0.443420 0.251450 0.824840 -0.473690
O25   O     O_R   0.056580 0.751450 0.175160 -0.483634
O26   O     O_R   0.943420 0.751450 0.824840 -0.473690
O27   O     O_R   0.545920 0.049510 0.170320 -0.437956
O28   O     O_R   0.454080 0.049510 0.829680 -0.418142
O29   O     O_R   0.045920 0.549510 0.170320 -0.437952
O30   O     O_R   0.954080 0.549510 0.829680 -0.418139
O31   O     O_R   0.681390 0.957840 0.176710 -0.419448
O32   O     O_R   0.318610 0.957840 0.823290 -0.443082
O33   O     O_R   0.181390 0.457840 0.176710 -0.419449
O34   O     O_R   0.712460 0.542690 0.829530 -0.494497
O35   O     O_R   0.818610 0.457840 0.823290 -0.443085
O36   O     O_R   0.787500 0.044280 0.330990 -0.408185
O37   O     O_R   0.212500 0.044280 0.669010 -0.398023
O38   O     O_R   0.287500 0.544280 0.330990 -0.408119
O39   O     O_R   0.712500 0.544280 0.669010 -0.398004
O40   O     O_R   0.765610 0.293630 0.323860 -0.458538
O41   O     O_R   0.234390 0.293630 0.676140 -0.449658
O42   O     O_R   0.265610 0.793630 0.323860 -0.458532
O43   O     O_R   0.734390 0.793630 0.676140 -0.449665
O44   O     O_R   0.670140 0.410570 0.329080 -0.444487
O45   O     O_R   0.556540 0.252920 0.323970 -0.448304
O46   O     O_R   0.329860 0.410570 0.670920 -0.473258
O47   O     O_R   0.170140 0.910570 0.329080 -0.444488
O48   O     O_R   0.829860 0.910570 0.670920 -0.473265
O49   O     O_R   0.443460 0.252920 0.676030 -0.453565
O50   O     O_R   0.056540 0.752920 0.323970 -0.448321
O51   O     O_R   0.943460 0.752920 0.676030 -0.453569
O52   O     O_R   0.545870 0.051100 0.330840 -0.468757

loop_
_geom_bond_atom_site_label_1
_geom_bond_atom_site_label_2
_ccdc_geom_bond_type
C24   C29   A    
C13   C35   A    
C63   C67   A    
Br4   C83   S    
Cr12  O9    S    
C54   Cl8   S    
Cr2   O2    S    
Cr5   O12   S    
C7    Cl7   S    
Br5   C36   S    
Cr6   O16   S    
Cr2   O32   S    
C5    Cl5   S    
C5    C98   A    
C81   O32   A    
C70   C75   A    
C3    C101  A    
C87   O42   A    
Cr8   O18   S    
C7    C100  A    
C36   C37   A    
C42   C89   S    
C6    C7    A    
C30   C34   A    
C85   O44   A    
Cr9   O19   S    
C40   C43   A    
C12   C16   A    
C12   Cl3   S    
Cr10  O20   S    
C8    C9    A    
C82   O33   A    
Br9   C49   S    
C18   C22   A    
C95   O6    A    
C89   O45   A    
C72   C104  A    
C98   C102  A    
Cr8   O45   S    
C75   C79   A    
C74   C78   A    
C56   C78   A    
Br17  C68   S    
Br12  C59   S    
C55   C77   A    
C64   C87   S    
C63   C88   S    
Cr11  O26   S    
C48   O30   A    
Br8   C40   S    
C22   C26   A    
C93   O36   A    
C12   C34   A    
C69   C74   A    
C49   C51   A    
C90   O49   A    
Cr4   O30   S    
Cr1   O9    S    
C71   C76   A    
C2    H17   S    
Cr3   O7    S    
C58   C63   A    
C3    C83   A    
C37   C41   A    
C33   C81   S    
C46   O24   A    
Cr9   O10   S    
Cr2   O6    S    
Br16  C67   S    
C44   C53   A    
C39   O17   A    
C25   H7    S    
C6    C101  A    
Br14  C60   S    
C77   C95   S    
C23   C27   A    
C74   H14   S    
Br7   C38   S    
Cr1   O1    S    
Cr10  O47   S    
C6    Cl6   S    
C8    H18   S    
C36   C42   A    
Br10  C51   S    
Cr11  O13   S    
Cr6   O38   S    
Cr4   O4    S    
Br1   C58   S    
Cr7   O17   S    
Br6   C37   S    
Br20  C50   S    
C16   C21   A    
C92   O4    A    
C14   H20   S    
C41   C90   S    
C47   C101  S    
C18   H4    S    
Br2   C61   S    
Br15  C62   S    
C38   C44   A    
C1    O14   A    
C86   O46   A    
Cr7   O39   S    
C67   C71   A    
C10   C14   A    
Cr5   O10   S    
C84   O35   A    
C54   C76   A    
C1    O18   A    
Cr3   O11   S    
C4    C5    A    
Cr11  O48   S    
Cr3   O33   S    
Cr4   O35   S    
C46   C98   S    
C28   O16   A    
C65   C69   A    
Br11  C52   S    
Cr8   O9    S    
C44   C91   S    
Cr7   O43   S    
Cr1   O14   S    
C31   C35   A    
C47   O29   A    
C62   C66   A    
C86   O41   A    
C38   C40   A    
C35   C84   S    
C32   C80   S    
C13   Cl4   S    
C2    C83   A    
C14   C19   A    
Br3   C72   S    
Cr5   O15   S    
C84   O34   A    
C73   H12   S    
C9    C61   A    
C60   C65   A    
C75   H15   S    
C79   C97   S    
C50   C102  A    
Cr12  O27   S    
C78   C96   S    
Cr6   O11   S    
Cr5   O41   S    
C20   C24   A    
Cr4   O8    S    
C19   C39   S    
C55   Cl9   S    
C82   O23   A    
C45   C99   S    
C93   O5    A    
C87   O47   A    
Cr12  O31   S    
C11   C33   A    
Cr10  O25   S    
Cr3   O3    S    
Cr9   O46   S    
Cr12  O52   S    
C88   O48   A    
C90   O2    A    
C97   O8    A    
C91   O50   A    
Br13  C53   S    
C89   O52   A    
C10   Cl12  S    
C95   O37   A    
Cr9   O24   S    
C66   C70   A    
C4    Cl1   S    
C11   C15   A    
C76   C93   S    
C39   O21   A    
C66   C85   S    
C56   C60   A    
Cr6   O42   S    
C65   C86   S    
Cr2   O10   S    
Cr7   O13   S    
Cr8   O44   S    
C88   O43   A    
C85   O40   A    
C71   H1    S    
C27   H9    S    
C41   C49   A    
C20   C28   S    
C10   C32   A    
C68   C73   A    
C4    C99   A    
C56   Cl10  S    
C59   C64   A    
C80   O1    A    
C43   C92   S    
Br18  C69   S    
Cr10  O11   S    
C34   C82   S    
C8    C50   A    
Cr4   O13   S    
C52   C53   A    
C97   O39   A    
C19   C23   A    
Cr3   O29   S    
C16   H3    S    
C28   O20   A    
C27   C32   A    
Cr1   O36   S    
C99   C103  A    
C30   H11   S    
C26   H8    S    
Cr12  O5    S    
C24   H6    S    
C9    H19   S    
C15   C20   A    
C81   O12   A    
C23   H5    S    
C55   C59   A    
C48   C100  S    
C25   C30   A    
C17   O19   A    
C64   C68   A    
Cr8   O22   S    
C57   C62   A    
Cr11  O21   S    
C29   C33   A    
Cr6   O23   S    
C26   C31   A    
C43   C52   A    
C92   O51   A    
C42   C51   A    
C31   H13   S    
C91   O3    A    
C96   O7    A    
C15   H2    S    
C17   C21   S    
C29   H10   S    
Cr5   O37   S    
C61   C103  A    
C46   O28   A    
Cr11  O51   S    
C57   Cl11  S    
C1    C22   S    
Cr10  O50   S    
C80   O31   A    
C94   H16   S    
C2    C94   A    
Cr7   O34   S    
Cr9   O49   S    
C45   O22   A    
C54   C58   A    
Br19  C70   S    
C21   C25   A    
C13   C18   A    
C48   O26   A    
Cr2   O28   S    
C57   C79   A    
C11   Cl2   S    
C102  C103  A    
C47   O25   A    
C3    C104  A    
C72   C94   A    
C96   O38   A    
C100  C104  A    
C73   C77   A    
C45   O27   A    
Cr1   O40   S    
C17   O15   A    
