data_mof_unit_23921.cif
_audit_creation_date              2012-12-10T18:58:14-0500
_audit_creation_method            fapswitch 2.2
_symmetry_space_group_name_H-M    P1
_symmetry_Int_Tables_number       1
_space_group_crystal_system       triclinic
_cell_length_a                    10.724924
_cell_length_b                    10.007208
_cell_length_c                    15.823004
_cell_angle_alpha                 90.00118
_cell_angle_beta                  93.661705
_cell_angle_gamma                 90.002626
_cell_volume                      1694.76146538

loop_
_atom_site_label
_atom_site_type_symbol
_atom_type_description
_atom_site_fract_x
_atom_site_fract_y
_atom_site_fract_z
_atom_type_partial_charge
C1    C     C_R   0.872418 0.499999 0.500304 -0.004827
C2    C     C_R   0.500463 0.378370 0.956185 -0.185537
C3    C     C_R   0.500540 0.500003 0.912970 0.173708
C4    C     C_R   0.499460 0.499997 0.087030 0.173708
C5    C     C_1   0.500768 0.500004 0.823979 -0.076784
C6    C     C_1   0.499232 0.499996 0.176021 -0.076784
C7    C     C_1   0.499248 0.499996 0.251022 -0.177319
C8    C     C_1   0.500752 0.500004 0.748978 -0.177320
C9    C     C_R   0.580703 0.071664 0.554419 0.203458
C10   C     C_R   0.419297 0.928336 0.445581 0.203459
C11   C     C_R   0.419305 0.071651 0.445575 0.203718
C12   C     C_R   0.127582 0.500001 0.499696 -0.004827
C13   C     C_R   0.580695 0.928349 0.554425 0.203718
C14   C     C_R   0.063787 0.378155 0.499124 -0.196797
C15   C     C_R   0.936213 0.621845 0.500876 -0.196797
C16   C     C_R   0.936067 0.378153 0.499457 -0.196649
C17   C     C_R   0.063933 0.621847 0.500543 -0.196649
C18   C     C_3   0.672033 0.142383 0.616052 -0.826627
C19   C     C_3   0.327967 0.857617 0.383948 -0.826627
C20   C     C_3   0.328055 0.142356 0.383890 -0.827138
C21   C     C_3   0.671944 0.857644 0.616110 -0.827138
C22   C     C_R   0.260324 0.499999 0.499675 0.850400
C23   C     C_R   0.739676 0.500001 0.500325 0.850399
C24   C     C_R   0.499457 0.499999 0.339623 0.896602
C25   C     C_R   0.500543 0.500001 0.660377 0.896601
C26   C     C_R   0.500076 0.621633 0.956173 -0.185558
C27   C     C_R   0.499924 0.378367 0.043827 -0.185558
C28   C     C_R   0.499537 0.621630 0.043815 -0.185537
H1    H     H_    0.499213 0.715686 0.077767 0.140053
H2    H     H_    0.653644 0.114840 0.682027 0.216940
H3    H     H_    0.769267 0.115066 0.603156 0.207680
H4    H     H_    0.331957 0.749483 0.386416 0.287822
H5    H     H_    0.230732 0.884934 0.396844 0.207680
H6    H     H_    0.346356 0.885160 0.317973 0.216940
H7    H     H_    0.331949 0.250488 0.386422 0.287769
H8    H     H_    0.346619 0.114902 0.317933 0.217051
H9    H     H_    0.230809 0.114933 0.396659 0.207454
H10   H     H_    0.668051 0.749512 0.613578 0.287769
H11   H     H_    0.769191 0.885067 0.603341 0.207454
H12   H     H_    0.500787 0.284314 0.922233 0.140053
H13   H     H_    0.653381 0.885098 0.682067 0.217051
H14   H     H_    0.500100 0.715691 0.922211 0.140053
H15   H     H_    0.499899 0.284309 0.077789 0.140053
H16   H     H_    0.111997 0.283059 0.498480 0.161443
H17   H     H_    0.888003 0.716941 0.501519 0.161443
H18   H     H_    0.887738 0.283053 0.498949 0.161663
H19   H     H_    0.112262 0.716947 0.501051 0.161663
H20   H     H_    0.668043 0.250517 0.613584 0.287822
N1    N     N_R   0.500000 0.857200 0.500000 -0.116268
N2    N     N_R   0.500000 0.142800 0.500000 -0.116268
O1    O     O_R   0.316770 0.614620 0.499990 -0.631981
O2    O     O_R   0.683230 0.385380 0.500010 -0.631981
O3    O     O_R   0.683230 0.614620 0.500010 -0.631846
O4    O     O_R   0.316770 0.385380 0.499990 -0.631846
O5    O     O_R   0.499980 0.614630 0.378020 -0.616795
O6    O     O_R   0.500020 0.385370 0.621980 -0.616795
O7    O     O_R   0.500020 0.614630 0.621980 -0.616841
O8    O     O_R   0.499980 0.385370 0.378020 -0.616842
Zn1   Zn    Zn3+2 0.500000 0.653120 0.500000 0.935154
Zn2   Zn    Zn3+2 0.500000 0.346880 0.500000 0.935154

loop_
_geom_bond_atom_site_label_1
_geom_bond_atom_site_label_2
_ccdc_geom_bond_type
C12   C17   A    
C5    C8    T    
C2    H12   S    
C23   O3    A    
C6    C7    T    
C1    C15   A    
O5    Zn1   S    
C26   C28   A    
N1    Zn1   S    
C25   O6    A    
C10   C19   S    
N2    Zn2   S    
C2    C3    A    
O3    Zn1   S    
C13   C21   S    
C22   O4    A    
C1    C16   A    
O4    Zn2   S    
C24   O5    A    
C13   N1    A    
C20   H9    S    
C20   H7    S    
C23   O2    A    
C2    C27   A    
C25   O7    A    
C21   H13   S    
C19   H4    S    
C24   O8    A    
C28   H1    S    
C4    C28   A    
C12   C14   A    
C1    C23   S    
C18   H2    S    
C14   C16   A    
C11   C20   S    
O7    Zn1   S    
C4    C6    S    
O1    Zn1   S    
C10   C11   A    
C15   H17   S    
C8    C25   S    
C7    C24   S    
C20   H8    S    
C12   C22   S    
C9    C18   S    
C4    C27   A    
O6    Zn2   S    
C26   H14   S    
C14   H16   S    
C19   H5    S    
C16   H18   S    
C11   N2    A    
C27   H15   S    
C9    C13   A    
C21   H10   S    
C18   H3    S    
O2    Zn2   S    
C15   C17   A    
C10   N1    A    
O8    Zn2   S    
C21   H11   S    
C3    C26   A    
C9    N2    A    
C17   H19   S    
C22   O1    A    
C3    C5    S    
C19   H6    S    
C18   H20   S    
