data_mof_unit_22313.cif
_audit_creation_date              2012-12-10T17:50:41-0500
_audit_creation_method            fapswitch 2.2
_symmetry_space_group_name_H-M    P1
_symmetry_Int_Tables_number       1
_space_group_crystal_system       triclinic
_cell_length_a                    14.745755
_cell_length_b                    14.750182
_cell_length_c                    15.83342
_cell_angle_alpha                 75.274893
_cell_angle_beta                  101.778531
_cell_angle_gamma                 115.505348
_cell_volume                      2988.37395726

loop_
_atom_site_label
_atom_site_type_symbol
_atom_type_description
_atom_site_fract_x
_atom_site_fract_y
_atom_site_fract_z
_atom_type_partial_charge
C1    C     C_R   0.880173 0.311338 0.515234 0.848747
C2    C     C_R   0.119611 0.688615 0.488567 0.833159
C3    C     C_R   0.778436 0.019047 0.570626 0.332190
C4    C     C_R   0.217521 0.975454 0.491025 0.336016
C5    C     C_R   0.846943 0.121437 0.550114 0.331334
C6    C     C_R   0.149821 0.875519 0.480810 0.337420
C7    C     C_R   0.708887 0.175868 0.529368 -0.314733
C8    C     C_R   0.289791 0.822559 0.516000 -0.319927
C9    C     C_R   0.638732 0.074289 0.548868 0.039690
C10   C     C_R   0.358597 0.921211 0.528210 0.041146
C11   C     C_R   0.674581 0.995163 0.569807 0.000751
C12   C     C_R   0.321901 0.998928 0.513243 -0.012430
C13   C     C_R   0.533092 0.049242 0.544140 0.109035
C14   C     C_R   0.464045 0.945399 0.550455 0.116770
C15   C     C_R   0.502645 0.869037 0.579442 -0.243293
C16   C     C_R   0.493896 0.124085 0.533387 -0.243774
C17   C     C_R   0.605546 0.893398 0.588811 -0.148162
C18   C     C_R   0.390637 0.098991 0.519828 -0.139605
C19   C     C_R   0.677544 0.577541 0.316938 -0.313836
C20   C     C_R   0.289711 0.341887 0.661910 -0.301808
C21   C     C_R   0.776693 0.599901 0.355997 0.362984
C22   C     C_R   0.207469 0.369610 0.634141 0.372052
C23   C     C_R   0.999347 0.499976 0.659841 0.817024
C24   C     C_R   0.000796 0.500229 0.340123 0.820365
C25   C     C_R   0.720172 0.529367 0.497208 0.267974
C26   C     C_R   0.282596 0.474345 0.503372 0.264654
C27   C     C_R   0.616125 0.501835 0.459360 -0.053520
C28   C     C_R   0.361076 0.434523 0.526617 -0.008878
C29   C     C_R   0.595893 0.526442 0.366927 0.032184
C30   C     C_R   0.368222 0.375007 0.610974 0.029947
C31   C     C_R   0.531616 0.453786 0.509693 0.011517
C32   C     C_R   0.437052 0.456655 0.471784 0.044132
C33   C     C_R   0.417059 0.467184 0.380451 -0.185237
C34   C     C_R   0.534947 0.391847 0.592402 -0.244046
C35   C     C_R   0.494802 0.502713 0.326468 0.160729
C36   C     C_R   0.452898 0.348025 0.642596 0.174598
C37   C     C_3   0.946495 0.405095 0.040378 -0.146194
C38   C     C_3   0.055616 0.595297 0.959801 -0.148644
C39   C     C_3   0.905230 0.469290 0.961983 -0.161510
C40   C     C_3   0.096889 0.531099 0.038227 -0.159324
C41   C     C_1   0.998467 0.500411 0.749386 -0.175285
C42   C     C_1   0.002098 0.500067 0.250556 -0.171419
C43   C     C_3   0.041257 0.436177 0.993980 -0.154159
C44   C     C_3   0.960856 0.564214 0.006171 -0.156059
C45   C     C_3   0.999969 0.500376 0.917139 0.184829
C46   C     C_3   0.002101 0.500028 0.083046 0.184785
C47   C     C_1   0.998793 0.500497 0.825100 -0.072833
C48   C     C_1   0.002527 0.500000 0.174958 -0.068307
C49   C     C_R   0.812152 0.201004 0.531077 -0.214445
C50   C     C_R   0.186232 0.797737 0.493132 -0.202223
Cu1   Cu    Cu3+1 0.081740 0.475690 0.522610 0.955355
Cu2   Cu    Cu3+1 0.918260 0.524310 0.477390 0.937395
H1    H     H_    0.826591 0.443958 0.929267 0.133218
H2    H     H_    0.175532 0.556358 0.070935 0.134471
H3    H     H_    0.665847 0.603101 0.246879 0.143274
H4    H     H_    0.289764 0.290959 0.724512 0.146079
H5    H     H_    0.339361 0.440685 0.352491 0.164692
H6    H     H_    0.600540 0.374115 0.615192 0.155423
H7    H     H_    0.901781 0.327023 0.074854 0.142625
H8    H     H_    0.100324 0.673357 0.925299 0.141189
H9    H     H_    0.927895 0.616781 0.012584 0.136424
H10   H     H_    0.074253 0.383675 0.987469 0.136880
H11   H     H_    0.629766 0.830803 0.609527 0.194300
H12   H     H_    0.365976 0.160243 0.511834 0.201449
H13   H     H_    0.316247 0.763695 0.521578 0.191604
H14   H     H_    0.684103 0.237572 0.510069 0.184503
H15   H     H_    0.454744 0.789359 0.597885 0.140297
H16   H     H_    0.540942 0.202937 0.537112 0.143189
N1    N     N_R   0.795440 0.560790 0.443380 -0.191583
N2    N     N_R   0.204560 0.439210 0.556620 -0.205468
O1    O     O_R   0.977900 0.338120 0.529810 -0.548613
O2    O     O_R   0.022100 0.661880 0.470190 -0.559803
O3    O     O_R   0.839850 0.379180 0.491620 -0.587141
O4    O     O_R   0.160150 0.620820 0.508380 -0.602454
O5    O     O_R   0.069010 0.479460 0.640020 -0.585193
O6    O     O_R   0.930990 0.520540 0.359980 -0.604040
O7    O     O_R   0.930960 0.520530 0.601820 -0.586981
O8    O     O_R   0.069040 0.479470 0.398180 -0.582439
C51   C     C_3   0.295200 0.565938 0.427881 -0.359812
C52   C     C_3   0.393780 0.658431 0.442881 -0.861131
H17   H     H_    0.408983 0.665727 0.512863 0.245178
H18   H     H_    0.458855 0.651622 0.424521 0.266756
H19   H     H_    0.388124 0.729422 0.401725 0.246319
H20   H     H_    0.288537 0.547863 0.363047 0.170829
H21   H     H_    0.234938 0.591949 0.418005 0.255596
C53   C     C_3   0.750116 0.554227 0.589239 -0.473892
C54   C     C_3   0.828923 0.663555 0.589641 -0.599433
H22   H     H_    0.899739 0.676046 0.566177 0.300673
H23   H     H_    0.798726 0.718855 0.546596 0.275111
H24   H     H_    0.846912 0.679072 0.657496 0.232485
H25   H     H_    0.685501 0.552331 0.616112 0.200687
H26   H     H_    0.774945 0.497190 0.635682 0.215693
C55   C     C_3   0.125113 0.315230 0.695768 -0.295061
C56   C     C_3   0.157375 0.355462 0.782104 -0.883698
H27   H     H_    0.187271 0.440226 0.769605 0.275253
H28   H     H_    0.091462 0.323900 0.820268 0.245275
H29   H     H_    0.216939 0.331430 0.822712 0.238557
H30   H     H_    0.051182 0.315077 0.668013 0.246541
H31   H     H_    0.109580 0.232280 0.711907 0.204006
C57   C     C_3   0.859958 0.672734 0.299050 -0.365772
C58   C     C_3   0.852378 0.776303 0.263993 -0.794376
H32   H     H_    0.844753 0.806851 0.318244 0.304297
H33   H     H_    0.921702 0.831614 0.233051 0.258794
H34   H     H_    0.786596 0.769556 0.213455 0.228131
H35   H     H_    0.935201 0.688988 0.335399 0.269960
H36   H     H_    0.855626 0.638543 0.242581 0.182650
Cl1   Cl    Cl    0.020542 0.852389 0.451863 -0.554134
Cl2   Cl    Cl    0.974536 0.146010 0.544887 -0.480778
Cl3   Cl    Cl    0.824140 0.920954 0.595067 -0.560901
Cl4   Cl    Cl    0.169998 0.071292 0.474747 -0.492174
C59   C     C_3   0.471946 0.518334 0.226408 -0.397817
C60   C     C_3   0.360221 0.481546 0.189747 -0.850016
H37   H     H_    0.319992 0.398305 0.214147 0.265489
H38   H     H_    0.323787 0.525021 0.207804 0.244091
H39   H     H_    0.353971 0.494800 0.116933 0.242550
H40   H     H_    0.508410 0.601259 0.198694 0.202603
H41   H     H_    0.505677 0.477218 0.201319 0.207032
C61   C     C_3   0.455888 0.275778 0.730683 -0.393687
C62   C     C_3   0.548047 0.248168 0.756645 -0.852668
H42   H     H_    0.618200 0.317321 0.765374 0.243403
H43   H     H_    0.554399 0.211028 0.706535 0.257215
H44   H     H_    0.539294 0.193291 0.820187 0.249712
H45   H     H_    0.452328 0.310782 0.783689 0.199003
H46   H     H_    0.388129 0.202783 0.728870 0.218419

loop_
_geom_bond_atom_site_label_1
_geom_bond_atom_site_label_2
_ccdc_geom_bond_type
C54   H22   S    
C55   C56   S    
C27   C29   A    
C24   C42   S    
C59   C60   S    
Cu1   O4    S    
C20   H4    S    
C60   H38   S    
C20   C30   A    
C40   C46   S    
C57   H35   S    
C1    O1    A    
C19   C21   A    
Cu1   O5    S    
C53   H25   S    
C51   H20   S    
C15   C17   A    
C9    C13   A    
C61   C62   S    
C57   C58   S    
C38   C45   S    
Cu2   N1    S    
C2    C50   S    
C40   C43   S    
C6    Cl1   S    
C59   H40   S    
C16   H16   S    
Cu1   N2    S    
C4    C12   A    
C36   C61   S    
C55   H31   S    
C2    O4    A    
C39   C45   S    
C45   C47   S    
C8    H13   S    
C58   H33   S    
C13   C14   A    
C5    C49   A    
Cu1   O1    S    
C52   H19   S    
C2    O2    A    
C60   H37   S    
C44   C46   S    
C62   H43   S    
C46   C48   S    
C27   C31   A    
Cu1   Cu2   S    
C58   H32   S    
C28   C32   A    
C7    C49   A    
C4    C6    A    
Cu2   O3    S    
C10   C14   A    
C21   C57   S    
C53   C54   S    
C24   O6    A    
C61   H46   S    
C56   H29   S    
Cu2   O6    S    
C6    C50   A    
C21   N1    A    
C37   C43   S    
C38   C44   S    
Cu2   O2    S    
C9    C11   A    
C31   C32   A    
C15   H15   S    
C41   C47   T    
C31   C34   A    
C16   C18   A    
C42   C48   T    
C23   O7    A    
C56   H28   S    
C43   C45   S    
C37   H7    S    
C10   C12   A    
C38   H8    S    
C24   O8    A    
C20   C22   A    
C58   H34   S    
C40   H2    S    
C54   H23   S    
C26   N2    A    
C22   C55   S    
C13   C16   A    
C25   N1    A    
Cu2   O7    S    
C19   C29   A    
C8    C50   A    
C51   H21   S    
C35   C59   S    
C62   H44   S    
C19   H3    S    
C7    C9    A    
C4    Cl4   S    
C11   C17   A    
C33   H5    S    
C57   H36   S    
C23   O5    A    
C52   H17   S    
C3    C5    A    
C62   H42   S    
C39   C44   S    
C44   H9    S    
C25   C27   A    
C29   C35   A    
C26   C28   A    
C26   C51   S    
C23   C41   S    
C30   C36   A    
C59   H41   S    
C1    O3    A    
C32   C33   A    
C28   C30   A    
Cu1   O8    S    
C37   C39   S    
C53   H26   S    
C17   H11   S    
C7    H14   S    
C38   C40   S    
C18   H12   S    
C39   H1    S    
C3    Cl3   S    
C25   C53   S    
C33   C35   A    
C52   H18   S    
C34   C36   A    
C61   H45   S    
C56   H27   S    
C3    C11   A    
C51   C52   S    
C8    C10   A    
C54   H24   S    
C12   C18   A    
C34   H6    S    
C14   C15   A    
C37   C46   S    
C1    C49   S    
C55   H30   S    
C22   N2    A    
C60   H39   S    
C43   H10   S    
C5    Cl2   S    
