data_mof_unit_15600.cif
_audit_creation_date              2012-12-10T17:49:35-0500
_audit_creation_method            fapswitch 2.2
_symmetry_space_group_name_H-M    P1
_symmetry_Int_Tables_number       1
_space_group_crystal_system       triclinic
_cell_length_a                    14.708343
_cell_length_b                    14.706581
_cell_length_c                    15.866931
_cell_angle_alpha                 77.119363
_cell_angle_beta                  102.92399
_cell_angle_gamma                 114.9226
_cell_volume                      3001.39131668

loop_
_atom_site_label
_atom_site_type_symbol
_atom_type_description
_atom_site_fract_x
_atom_site_fract_y
_atom_site_fract_z
_atom_type_partial_charge
C1    C     C_R   0.880246 0.312308 0.515861 0.796208
C2    C     C_3   0.056332 0.434915 0.073350 -0.383205
C3    C     C_3   0.996276 0.496101 0.082740 0.308808
C4    C     C_3   0.045898 0.606305 0.036735 -0.380888
C5    C     C_3   0.047609 0.607223 0.939262 -0.414223
C6    C     C_1   0.997520 0.496358 0.175162 -0.104089
C7    C     C_1   0.998653 0.499749 0.824505 -0.102111
C8    C     C_1   0.999429 0.500374 0.749030 -0.172208
C9    C     C_R   0.812672 0.204799 0.530205 -0.048539
C10   C     C_R   0.187644 0.794942 0.487136 -0.051974
C11   C     C_R   0.784529 0.027146 0.563844 -0.202204
C12   C     C_R   0.999948 0.500301 0.659591 0.832225
C13   C     C_R   0.850654 0.128489 0.551768 -0.197315
C14   C     C_R   0.708458 0.178866 0.523298 -0.255702
C15   C     C_R   0.640431 0.077378 0.537427 0.086033
C16   C     C_R   0.679852 0.001015 0.555435 0.164119
C17   C     C_R   0.534172 0.049769 0.530461 0.063007
C18   C     C_R   0.467914 0.946065 0.530701 0.063975
C19   C     C_R   0.510413 0.872060 0.550771 -0.225649
C20   C     C_R   0.614469 0.899353 0.563914 -0.231507
C21   C     C_R   0.492096 0.122092 0.524339 -0.227712
C22   C     C_R   0.388012 0.094705 0.512225 -0.230639
C23   C     C_R   0.119784 0.687730 0.486786 0.791096
C24   C     C_R   0.322119 0.994929 0.504302 0.162919
C25   C     C_R   0.361313 0.919780 0.512436 0.089275
C26   C     C_R   0.217066 0.969345 0.488537 -0.202338
C27   C     C_R   0.150133 0.869703 0.480786 -0.198516
C28   C     C_R   0.292319 0.821046 0.500264 -0.251284
C29   C     C_R   0.716682 0.670227 0.357766 -0.322928
C30   C     C_R   0.797668 0.639857 0.379610 0.076877
C31   C     C_R   0.714461 0.508643 0.487631 0.007109
C32   C     C_R   0.628954 0.535379 0.468232 -0.023896
C33   C     C_R   0.632445 0.618761 0.402050 0.164883
C34   C     C_R   0.999820 0.499384 0.340344 0.830523
C35   C     C_R   0.541399 0.483616 0.512081 0.081952
C36   C     C_R   0.459343 0.517282 0.489108 0.075172
C37   C     C_R   0.467938 0.601872 0.423573 -0.239173
C38   C     C_R   0.552465 0.650945 0.380866 -0.198641
C39   C     C_R   0.532993 0.399303 0.577857 -0.245020
C40   C     C_R   0.448325 0.349972 0.620372 -0.210334
C41   C     C_R   0.368053 0.381788 0.598809 0.167870
C42   C     C_R   0.371587 0.465223 0.532665 -0.022829
C43   C     C_R   0.283503 0.329979 0.642680 -0.325837
C44   C     C_R   0.202301 0.360082 0.620476 0.076620
C45   C     C_3   0.058260 0.437424 0.975641 -0.377989
C46   C     C_R   0.285841 0.491623 0.512851 0.005786
C47   C     C_3   0.885172 0.451537 0.937284 -0.113956
C48   C     C_3   0.885864 0.447202 0.036606 -0.405704
C49   C     C_1   0.998922 0.497564 0.250805 -0.182097
C50   C     C_3   0.996611 0.497588 0.916735 0.287342
Cu1   Cu    Cu3+1 0.081750 0.475690 0.522550 0.936009
Cu2   Cu    Cu3+1 0.918250 0.524310 0.477450 0.935276
H1    H     H_    0.021288 0.355040 0.104773 0.157544
H2    H     H_    0.138282 0.474190 0.962919 0.166171
H3    H     H_    0.135417 0.467340 0.107456 0.167992
H4    H     H_    0.002997 0.651342 0.041549 0.162697
H5    H     H_    0.643834 0.840278 0.579012 0.147754
H6    H     H_    0.318243 0.762900 0.499546 0.146398
H7    H     H_    0.069342 0.851052 0.470845 0.153295
H8    H     H_    0.358949 0.152452 0.507977 0.152629
H9    H     H_    0.815121 0.969046 0.578729 0.132253
H10   H     H_    0.931128 0.146961 0.558072 0.151691
H11   H     H_    0.681614 0.239225 0.503852 0.150812
H12   H     H_    0.029002 0.359322 0.959836 0.164462
H13   H     H_    0.465402 0.791784 0.559369 0.146908
H14   H     H_    0.537742 0.200384 0.531312 0.140798
H15   H     H_    0.186694 0.026321 0.483057 0.133359
H16   H     H_    0.555391 0.715323 0.330758 0.140597
H17   H     H_    0.280745 0.552288 0.462280 0.122645
H18   H     H_    0.136585 0.319559 0.653723 0.125459
H19   H     H_    0.445494 0.285648 0.670527 0.140974
H20   H     H_    0.720205 0.734081 0.306955 0.135146
H21   H     H_    0.863210 0.680168 0.346127 0.124706
H22   H     H_    0.719628 0.447969 0.538181 0.121977
H23   H     H_    0.851029 0.507027 0.902454 0.117515
H24   H     H_    0.410460 0.632647 0.403571 0.131244
H25   H     H_    0.590763 0.369000 0.598111 0.120450
H26   H     H_    0.279925 0.266091 0.693466 0.136583
H27   H     H_    0.849088 0.368381 0.069315 0.163383
H28   H     H_    0.840918 0.488923 0.044325 0.153776
H29   H     H_    0.127421 0.642927 0.926007 0.173546
H30   H     H_    0.007593 0.654652 0.897350 0.160848
H31   H     H_    0.124777 0.643285 0.069721 0.166456
N1    N     N_R   0.795410 0.560790 0.443550 -0.176311
N2    N     N_R   0.204590 0.439170 0.556520 -0.176255
O1    O     O_R   0.977910 0.338120 0.529720 -0.590370
O2    O     O_R   0.839850 0.379180 0.491640 -0.589640
O3    O     O_R   0.069060 0.479460 0.639610 -0.576705
O4    O     O_R   0.931000 0.520530 0.601530 -0.579961
O5    O     O_R   0.160150 0.620820 0.508360 -0.590010
O6    O     O_R   0.022090 0.661880 0.470280 -0.590749
O7    O     O_R   0.069000 0.479470 0.398470 -0.577312
O8    O     O_R   0.930940 0.520540 0.360390 -0.575793
C51   C     C_R   0.818699 0.351054 0.902886 0.133837
C52   C     C_R   0.824903 0.258459 0.945651 -0.146132
C53   C     C_R   0.765566 0.168699 0.910473 -0.146971
C54   C     C_R   0.699388 0.169876 0.832363 -0.102848
C55   C     C_R   0.691960 0.260771 0.789442 -0.130472
C56   C     C_R   0.750913 0.350734 0.824385 -0.156953
H32   H     H_    0.875096 0.254835 0.006324 0.117623
H33   H     H_    0.771059 0.098087 0.943823 0.125005
H34   H     H_    0.653824 0.100348 0.805100 0.128120
H35   H     H_    0.640706 0.261525 0.728860 0.119019
H36   H     H_    0.744623 0.420482 0.789301 0.118232

loop_
_geom_bond_atom_site_label_1
_geom_bond_atom_site_label_2
_ccdc_geom_bond_type
C10   C27   A    
C1    O2    A    
C40   H19   S    
C21   H14   S    
C41   C42   A    
C36   C42   A    
C52   C53   A    
C34   O8    A    
C9    C14   A    
C3    C6    S    
Cu1   N2    S    
C54   C55   A    
C7    C8    T    
C25   C28   A    
C26   C27   A    
C29   C30   A    
C26   H15   S    
C39   H25   S    
C48   H27   S    
C36   C37   A    
C24   C26   A    
C2    H3    S    
Cu1   O5    S    
C22   H8    S    
C55   H35   S    
C29   C33   A    
C3    C48   S    
C18   C19   A    
C42   C46   A    
Cu2   N1    S    
C9    C13   A    
C46   H17   S    
C13   H10   S    
C31   C32   A    
C44   H18   S    
C54   H34   S    
C8    C12   S    
C29   H20   S    
C56   H36   S    
C21   C22   A    
C4    H4    S    
C41   C43   A    
Cu2   O4    S    
C18   C25   A    
Cu1   O1    S    
C47   C50   S    
C2    C45   S    
C15   C16   A    
C12   O3    A    
Cu1   Cu2   S    
C32   C35   A    
C12   O4    A    
C1    C9    S    
C24   C25   A    
C39   C40   A    
C30   H21   S    
C52   H32   S    
C31   H22   S    
C17   C21   A    
C31   N1    A    
C43   H26   S    
C35   C36   A    
C35   C39   A    
C43   C44   A    
C37   C38   A    
Cu1   O7    S    
C5    H29   S    
C11   C16   A    
C47   C48   S    
C16   C20   A    
C53   C54   A    
C17   C18   A    
C23   O5    A    
Cu2   O8    S    
C40   C41   A    
C37   H24   S    
C38   H16   S    
C45   H2    S    
C23   O6    A    
C5    C50   S    
C3    C4    S    
C10   C28   A    
C1    O1    A    
C15   C17   A    
C34   C49   S    
Cu2   O2    S    
C7    C50   S    
C4    C5    S    
C11   H9    S    
C2    H1    S    
Cu1   O3    S    
C28   H6    S    
C10   C23   S    
C45   H12   S    
C33   C38   A    
C51   C56   A    
C32   C33   A    
C46   N2    A    
C19   C20   A    
C2    C3    S    
C47   H23   S    
C27   H7    S    
C5    H30   S    
C11   C13   A    
C48   H28   S    
C4    H31   S    
C45   C50   S    
C14   H11   S    
C47   C51   S    
C19   H13   S    
C22   C24   A    
C6    C49   T    
C30   N1    A    
C51   C52   A    
C34   O7    A    
C55   C56   A    
C14   C15   A    
Cu2   O6    S    
C20   H5    S    
C53   H33   S    
C44   N2    A    
