data_mof_unit_20892.cif
_audit_creation_date              2012-10-26T19:06:51-0400
_audit_creation_method            fapswitch 2.2
_symmetry_space_group_name_H-M    P1
_symmetry_Int_Tables_number       1
_space_group_crystal_system       triclinic
_cell_length_a                    12.353781
_cell_length_b                    13.233116
_cell_length_c                    27.647718
_cell_angle_alpha                 78.017112
_cell_angle_beta                  102.08901
_cell_angle_gamma                 117.176934
_cell_volume                      3898.96235571

loop_
_atom_site_label
_atom_site_type_symbol
_atom_type_description
_atom_site_fract_x
_atom_site_fract_y
_atom_site_fract_z
_atom_type_partial_charge
C1    C     C_R   0.855224 0.288843 0.498382 0.555364
C2    C     C_R   0.884069 0.359268 0.028267 -0.026534
C3    C     C_R   0.105261 0.485489 0.037357 0.009564
C4    C     C_R   0.998394 0.497405 0.592412 0.533692
C5    C     C_R   0.993508 0.423530 0.058059 -0.036372
C6    C     C_R   0.772902 0.311631 0.048506 -0.139444
C7    C     C_R   0.769915 0.312657 0.098631 0.259679
C8    C     C_R   0.879140 0.373643 0.129008 0.038650
C9    C     C_R   0.991237 0.427331 0.108740 -0.089437
C10   C     C_R   0.101457 0.485573 0.139088 -0.028403
C11   C     C_R   0.097900 0.493168 0.188466 0.396638
C12   C     C_R   0.979301 0.375354 0.727041 -0.124472
C13   C     C_R   0.880278 0.384539 0.178890 0.406546
C14   C     C_R   0.016231 0.385545 0.296930 -0.082166
C15   C     C_R   0.020040 0.400638 0.345677 -0.180617
C16   C     C_R   0.145933 0.713426 0.494724 0.535390
C17   C     C_R   0.966160 0.560288 0.315149 0.050789
C18   C     C_R   0.962015 0.543866 0.266067 -0.059671
C19   C     C_R   0.987335 0.457065 0.257072 0.219414
C20   C     C_R   0.888778 0.349584 0.978496 0.032879
C21   C     C_R   0.994307 0.429673 0.955751 -0.034042
C22   C     C_R   0.101015 0.502680 0.984592 0.004205
C23   C     C_R   0.986648 0.466256 0.748059 0.260148
C24   C     C_R   0.792929 0.264834 0.949899 0.088570
C25   C     C_R   0.194770 0.596987 0.908167 -0.105235
C26   C     C_R   0.216378 0.526211 0.070682 0.279790
C27   C     C_R   0.213147 0.531763 0.120089 -0.109283
C28   C     C_R   0.999433 0.498916 0.407601 0.553223
C29   C     C_R   0.196168 0.593598 0.958993 0.265066
C30   C     C_R   0.267605 0.033945 0.472537 -0.127987
C31   C     C_R   0.230711 0.835503 0.489956 -0.001195
C32   C     C_R   0.821942 0.090963 0.489192 0.256680
C33   C     C_R   0.740629 0.975439 0.485287 -0.136020
C34   C     C_R   0.992970 0.437237 0.903737 -0.055558
C35   C     C_R   0.615031 0.937973 0.483116 -0.164869
C36   C     C_R   0.564411 0.016692 0.478346 -0.033341
C37   C     C_R   0.643947 0.134608 0.471839 -0.055336
C38   C     C_R   0.437363 0.982805 0.478279 -0.002014
C39   C     C_R   0.391255 0.066891 0.468058 0.036909
C40   C     C_R   0.888873 0.374644 0.823141 0.402034
C41   C     C_R   0.467520 0.180805 0.451008 0.114336
C42   C     C_R   0.591351 0.211421 0.448579 0.286928
C43   C     C_R   0.354962 0.867701 0.489044 -0.122934
C44   C     C_R   0.189137 0.919513 0.484615 -0.160546
C45   C     C_R   0.890113 0.362761 0.874971 0.003174
C46   C     C_R   0.772885 0.170538 0.485793 0.001406
C47   C     C_R   0.346941 0.326143 0.576407 -0.148998
C48   C     C_R   0.758358 0.643845 0.432080 0.413912
C49   C     C_R   0.652333 0.659492 0.412091 -0.144781
C50   C     C_R   0.545180 0.599362 0.434098 0.032324
C51   C     C_R   0.544427 0.525659 0.479379 0.017173
C52   C     C_R   0.092624 0.523471 0.829054 0.434256
C53   C     C_R   0.650642 0.502909 0.495866 0.114473
C54   C     C_R   0.442070 0.469182 0.507876 -0.006444
C55   C     C_R   0.443385 0.383102 0.547820 -0.031080
C56   C     C_R   0.792821 0.275668 0.898605 -0.062117
C57   C     C_R   0.543091 0.356688 0.560638 -0.174153
C58   C     C_R   0.645419 0.417321 0.536218 -0.082417
C59   C     C_R   0.339507 0.495471 0.499952 0.018336
C60   C     C_R   0.252095 0.359840 0.568399 0.427999
C61   C     C_R   0.994311 0.568726 0.717643 0.329116
C62   C     C_R   0.993951 0.576694 0.665655 -0.148163
C63   C     C_R   0.981159 0.385438 0.676162 -0.184362
C64   C     C_3   0.061100 0.766730 0.719200 0.006892
C65   C     C_3   0.200030 0.801821 0.727988 -0.249367
C66   C     C_3   0.270929 0.921760 0.701906 -0.497756
C67   C     C_R   0.094734 0.519049 0.880366 -0.021359
C68   C     C_3   0.342232 0.457697 0.053207 0.021486
C69   C     C_3   0.397273 0.415441 0.103660 -0.287418
C70   C     C_3   0.422156 0.314923 0.099824 -0.454698
C71   C     C_3   0.247244 0.763938 0.985107 0.021943
C72   C     C_3   0.352116 0.862756 0.010560 -0.244164
C73   C     C_3   0.311698 0.952005 0.016607 -0.498514
C74   C     C_3   0.998687 0.060241 0.521096 0.024510
C75   C     C_3   0.973546 0.036436 0.575457 -0.259437
C76   C     C_3   0.056372 0.987079 0.609575 -0.491479
C77   C     C_3   0.677273 0.280482 0.375724 0.021429
C78   C     C_R   0.991865 0.486926 0.645574 -0.034305
C79   C     C_3   0.673238 0.367306 0.330048 -0.244256
C80   C     C_3   0.542203 0.348840 0.308549 -0.408356
C81   C     C_3   0.218479 0.334663 0.650074 -0.003170
C82   C     C_3   0.172572 0.222310 0.685205 -0.286651
C83   C     C_3   0.218765 0.242210 0.739644 -0.473706
C84   C     C_3   0.899412 0.821405 0.399133 0.002048
C85   C     C_3   0.879902 0.862436 0.343238 -0.272324
C86   C     C_3   0.886881 0.982934 0.334553 -0.478900
C87   C     C_3   0.627174 0.138410 0.126885 0.024008
C88   C     C_3   0.507309 0.076133 0.149801 -0.258403
C89   C     C_R   0.994652 0.487352 0.355315 0.020439
C90   C     C_3   0.472098 0.948132 0.163175 -0.476227
Cu1   Cu    Cu3+1 0.098270 0.475420 0.511360 1.005219
Cu2   Cu    Cu3+1 0.901730 0.524580 0.488640 1.013494
H1    H     H_    0.973540 0.313667 0.660466 0.135845
H2    H     H_    0.772975 0.912389 0.484898 0.099715
H3    H     H_    0.544105 0.290880 0.591322 0.118060
H4    H     H_    0.348207 0.259730 0.606723 0.094996
H5    H     H_    0.333442 0.564696 0.473302 0.180141
H6    H     H_    0.717735 0.211813 0.877559 0.176086
H7    H     H_    0.650703 0.716026 0.377911 0.107804
H8    H     H_    0.718368 0.393232 0.550339 0.184796
H9    H     H_    0.041745 0.343548 0.376028 0.147234
H10   H     H_    0.036255 0.318561 0.290066 0.124635
H11   H     H_    0.685705 0.275531 0.025638 0.126097
H12   H     H_    0.270817 0.664756 0.890195 0.172243
H13   H     H_    0.995603 0.650990 0.640164 0.099679
H14   H     H_    0.044632 0.823740 0.738153 0.152342
H15   H     H_    0.026760 0.783176 0.679537 0.113244
H16   H     H_    0.232116 0.800907 0.768657 0.209905
H17   H     H_    0.221010 0.740856 0.713901 0.186343
H18   H     H_    0.248394 0.922540 0.660848 0.148412
H19   H     H_    0.371014 0.947440 0.711933 0.165543
H20   H     H_    0.248489 0.984709 0.713548 0.144185
H21   H     H_    0.406408 0.481883 0.025591 0.167642
H22   H     H_    0.254740 0.387090 0.039070 0.116137
H23   H     H_    0.299385 0.569286 0.143923 0.167151
H24   H     H_    0.484755 0.486486 0.116945 0.186175
H25   H     H_    0.332817 0.387660 0.131510 0.155536
H26   H     H_    0.335365 0.241745 0.087789 0.130878
H27   H     H_    0.462505 0.287278 0.136944 0.193819
H28   H     H_    0.487805 0.340540 0.072684 0.187868
H29   H     H_    0.917691 0.692880 0.290733 0.208477
H30   H     H_    0.027320 0.711789 0.340142 0.239248
H31   H     H_    0.169235 0.724463 0.007538 0.132933
H32   H     H_    0.217312 0.798520 0.947084 0.122621
H33   H     H_    0.384917 0.828554 0.047946 0.186364
H34   H     H_    0.941088 0.599444 0.234743 0.114077
H35   H     H_    0.429656 0.904464 0.987987 0.181592
H36   H     H_    0.278122 0.987197 0.979660 0.152176
H37   H     H_    0.390851 0.023402 0.034193 0.143604
H38   H     H_    0.237607 0.913219 0.040814 0.152089
H39   H     H_    0.483341 0.342791 0.421082 0.272985
H40   H     H_    0.386961 0.274401 0.463058 0.226982
H41   H     H_    0.099580 0.106424 0.520759 0.158929
H42   H     H_    0.969571 0.979837 0.505304 0.097485
H43   H     H_    0.989431 0.116914 0.588084 0.222181
H44   H     H_    0.876547 0.974271 0.578535 0.143326
H45   H     H_    0.095233 0.896440 0.488688 0.103370
H46   H     H_    0.039334 0.904846 0.598141 0.142002
H47   H     H_    0.036977 0.971761 0.648528 0.135593
H48   H     H_    0.154288 0.048154 0.607915 0.149202
H49   H     H_    0.611062 0.192859 0.366334 0.117974
H50   H     H_    0.770537 0.283468 0.383514 0.120650
H51   H     H_    0.725665 0.455468 0.340344 0.223424
H52   H     H_    0.716887 0.358826 0.300751 0.154603
H53   H     H_    0.487147 0.260763 0.298290 0.147195
H54   H     H_    0.543985 0.410934 0.274494 0.143537
H55   H     H_    0.497892 0.362764 0.335885 0.187157
H56   H     H_    0.229794 0.095639 0.465991 0.129325
H57   H     H_    0.191700 0.395421 0.660712 0.170070
H58   H     H_    0.320960 0.376063 0.656001 0.111439
H59   H     H_    0.070591 0.180049 0.679931 0.164123
H60   H     H_    0.205897 0.164296 0.676220 0.155083
H61   H     H_    0.320679 0.281064 0.746056 0.163938
H62   H     H_    0.183126 0.159092 0.764052 0.147756
H63   H     H_    0.186467 0.299804 0.749820 0.158494
H64   H     H_    0.999236 0.863959 0.411086 0.154352
H65   H     H_    0.856438 0.851620 0.421278 0.094560
H66   H     H_    0.952479 0.864101 0.324819 0.156214
H67   H     H_    0.972915 0.296764 0.750410 0.135705
H68   H     H_    0.790056 0.803396 0.325168 0.168354
H69   H     H_    0.812324 0.983449 0.350917 0.153493
H70   H     H_    0.876141 0.011723 0.293879 0.146937
H71   H     H_    0.977069 0.043877 0.351769 0.156892
H72   H     H_    0.420160 0.579055 0.372159 0.253960
H73   H     H_    0.451230 0.692220 0.400988 0.224183
H74   H     H_    0.700487 0.122481 0.153792 0.145004
H75   H     H_    0.613875 0.102669 0.091831 0.109641
H76   H     H_    0.517651 0.112968 0.184073 0.190829
H77   H     H_    0.432468 0.088189 0.122778 0.154829
H78   H     H_    0.385332 0.801023 0.496857 0.124511
H79   H     H_    0.460532 0.909299 0.129405 0.149179
H80   H     H_    0.384007 0.905305 0.179097 0.162440
H81   H     H_    0.543972 0.933627 0.191288 0.152996
H82   H     H_    0.621724 0.160422 0.969272 0.221362
H83   H     H_    0.738293 0.136153 0.008824 0.234589
H84   H     H_    0.559890 0.847361 0.482344 0.112777
N1    N     N_R   0.989011 0.454939 0.801148 -0.363457
N2    N     N_R   0.988390 0.444405 0.206994 -0.401580
N3    N     N_R   0.246290 0.438210 0.528570 -0.231379
N4    N     N_R   0.754320 0.561170 0.471730 -0.221722
N5    N     N_3   0.943972 0.651527 0.324341 -0.588819
N6    N     N_3   0.416457 0.262345 0.432913 -0.627980
N7    N     N_3   0.436108 0.606354 0.406942 -0.658776
N8    N     N_3   0.705928 0.157533 0.971964 -0.653016
O1    O     O_R   0.972510 0.318140 0.514280 -0.422894
O2    O     O_R   0.082990 0.479230 0.439860 -0.515842
O3    O     O_R   0.917010 0.520730 0.420680 -0.412332
O4    O     O_2   0.788280 0.306938 0.794965 -0.512008
O5    O     O_3   0.992918 0.652807 0.740523 -0.546385
O6    O     O_3   0.329647 0.556926 0.056691 -0.520482
O7    O     O_3   0.289972 0.683341 0.982106 -0.517594
O8    O     O_3   0.948309 0.132338 0.490371 -0.556161
O9    O     O_3   0.654201 0.310001 0.417701 -0.538410
O10   O     O_3   0.163755 0.313704 0.600305 -0.549675
O11   O     O_3   0.862546 0.701198 0.408026 -0.506457
O12   O     O_2   0.774841 0.336850 0.199235 -0.479156
O13   O     O_3   0.658204 0.256956 0.116938 -0.545875
O14   O     O_2   0.193924 0.594666 0.807323 -0.530547
O15   O     O_2   0.202934 0.549699 0.217723 -0.513883
O16   O     O_R   0.806530 0.359640 0.495100 -0.499204
O17   O     O_R   0.082990 0.479270 0.579320 -0.465535
O18   O     O_R   0.917010 0.520770 0.560140 -0.535298
O19   O     O_R   0.193470 0.640360 0.504900 -0.530401
O20   O     O_R   0.027490 0.681860 0.485720 -0.472112

loop_
_geom_bond_atom_site_label_1
_geom_bond_atom_site_label_2
_ccdc_geom_bond_type
C10   C27   A    
C60   N3    A    
C87   C88   S    
C69   H24   S    
C8    C13   A    
C22   C29   A    
C24   N8    S    
C41   C42   A    
C54   C55   A    
C16   O20   A    
C35   C36   A    
C25   C67   A    
C56   H6    S    
C40   O4    S    
C33   H2    S    
C64   O5    S    
C26   O6    S    
Cu2   O3    S    
C60   O10   S    
C7    C8    A    
C39   C41   A    
C83   H62   S    
C85   C86   S    
C16   C31   S    
C4    C78   S    
C90   H81   S    
C26   C27   A    
C44   H45   S    
C31   C43   A    
C35   H84   S    
C71   H31   S    
C36   C37   A    
C38   C39   A    
H39   N6    S    
C75   H43   S    
C1    C46   S    
C14   H10   S    
C87   H74   S    
C83   H63   S    
C82   H60   S    
C84   O11   S    
C13   N2    A    
C74   H41   S    
C32   O8    S    
C18   C19   A    
C69   H25   S    
C37   C42   A    
C77   O9    S    
C52   N1    A    
Cu2   N4    S    
H40   N6    S    
C81   O10   S    
C77   H50   S    
H30   N5    S    
C87   H75   S    
C50   N7    S    
C45   C56   A    
C70   H28   S    
C8    C9    A    
C88   H76   S    
C13   O12   S    
Cu1   N3    S    
C90   H79   S    
C47   H4    S    
C29   O7    S    
C28   C89   S    
C86   H70   S    
C85   H68   S    
C66   H19   S    
C16   O19   A    
C9    C10   A    
C65   H16   S    
C82   H59   S    
Cu2   O20   S    
C68   H21   S    
C61   C62   A    
C80   H54   S    
Cu1   O1    S    
C47   C55   A    
C21   C22   A    
C61   O5    S    
C30   C44   A    
C2    C6    A    
C43   H78   S    
C81   C82   S    
C73   H37   S    
C54   C59   A    
C80   H55   S    
C25   C29   A    
C40   C45   A    
C79   H51   S    
C74   C75   S    
C72   H35   S    
C2    C20   A    
H73   N7    S    
C20   C24   A    
C71   H32   S    
C58   H8    S    
C84   C85   S    
C31   C44   A    
C28   O3    A    
H82   N8    S    
Cu1   Cu2   S    
C62   H13   S    
C12   C63   A    
C75   H44   S    
C68   C69   S    
C21   C34   A    
C50   C51   A    
C82   C83   S    
C15   H9    S    
C40   N1    A    
C51   C53   A    
C7    O13   S    
C42   O9    S    
C75   C76   S    
C5    C9    A    
C28   O2    A    
C15   C89   A    
C4    O18   A    
C79   H52   S    
C12   C23   A    
C68   O6    S    
C70   H27   S    
C53   C58   A    
C17   C18   A    
C77   C79   S    
C17   C89   A    
C86   H69   S    
C6    H11   S    
C66   H18   S    
C30   H56   S    
C19   N2    S    
C65   H17   S    
Cu1   O17   S    
C52   C67   A    
C34   C45   A    
C74   O8    S    
C48   C49   A    
Cu1   O2    S    
C88   C90   S    
C65   C66   S    
C76   H46   S    
C55   C57   A    
C48   O11   S    
C59   H5    S    
C41   N6    S    
C2    C5    A    
C52   O14   S    
C85   H66   S    
C87   O13   S    
C76   H48   S    
C53   N4    A    
C48   N4    A    
Cu2   O18   S    
C64   H15   S    
H29   N5    S    
C76   H47   S    
C73   H38   S    
C80   H53   S    
C88   H77   S    
C32   C46   A    
C14   C19   A    
C62   C78   A    
C3    C26   A    
C72   C73   S    
C3    C5    A    
C34   C67   A    
C84   H65   S    
C25   H12   S    
C64   H14   S    
C6    C7    A    
C83   H61   S    
C1    O1    A    
C24   C56   A    
C73   H36   S    
C63   H1    S    
C72   H33   S    
C51   C54   A    
C47   C60   A    
C32   C33   A    
C36   C38   A    
C37   C46   A    
C38   C43   A    
H72   N7    S    
C71   O7    S    
C64   C65   S    
C84   H64   S    
C49   H7    S    
C4    O17   A    
C70   H26   S    
C81   H57   S    
C74   H42   S    
C59   N3    A    
C33   C35   A    
C30   C39   A    
C12   H67   S    
C69   C70   S    
C11   O15   S    
C23   N1    S    
C10   C11   A    
C79   C80   S    
C1    O16   A    
C17   N5    S    
C23   C61   A    
C71   C72   S    
C20   C21   A    
C77   H49   S    
C49   C50   A    
C57   H3    S    
C90   H80   S    
Cu1   O19   S    
C14   C15   A    
C3    C22   A    
C86   H71   S    
C66   H20   S    
C57   C58   A    
Cu2   O16   S    
C11   N2    A    
C18   H34   S    
C81   H58   S    
C68   H22   S    
H83   N8    S    
C63   C78   A    
C27   H23   S    
