data_mof_unit_57866.cif
_audit_creation_date              2012-12-10T19:42:54-0500
_audit_creation_method            fapswitch 2.2
_symmetry_space_group_name_H-M    P1
_symmetry_Int_Tables_number       1
_space_group_crystal_system       triclinic
_cell_length_a                    10.888983
_cell_length_b                    13.040548
_cell_length_c                    11.651402
_cell_angle_alpha                 99.602703
_cell_angle_beta                  94.984962
_cell_angle_gamma                 89.654143
_cell_volume                      1625.06647413

loop_
_atom_site_label
_atom_site_type_symbol
_atom_type_description
_atom_site_fract_x
_atom_site_fract_y
_atom_site_fract_z
_atom_type_partial_charge
C1    C     C_R   0.500028 0.299564 0.478874 0.806499
C2    C     C_R   0.500012 0.700683 0.520972 0.852519
C3    C     C_R   0.872140 0.498187 0.503254 -0.081529
C4    C     C_R   0.127968 0.501239 0.496636 -0.082881
C5    C     C_R   0.949968 0.489895 0.605176 -0.000788
C6    C     C_R   0.050254 0.509088 0.394559 -0.000442
C7    C     C_R   0.503377 0.813627 0.532166 -0.118767
C8    C     C_R   0.495333 0.187059 0.466657 -0.101452
C9    C     C_R   0.396121 0.027409 0.368201 0.161496
C10   C     C_R   0.588575 0.976392 0.636695 0.169552
C11   C     C_R   0.412881 0.134011 0.379691 -0.288639
C12   C     C_R   0.571027 0.870443 0.628201 -0.250267
C13   C     C_R   0.566943 0.133457 0.543330 0.107377
C14   C     C_R   0.441330 0.863495 0.446591 0.104304
C15   C     C_R   0.538742 0.028004 0.544752 0.019546
C16   C     C_R   0.457329 0.972216 0.451881 0.049408
C17   C     C_R   0.417010 0.381791 0.019127 -0.347169
C18   C     C_R   0.582099 0.618583 0.980875 -0.349872
C19   C     C_R   0.420605 0.395615 0.141764 0.113519
C20   C     C_R   0.578673 0.604705 0.858250 0.113175
C21   C     C_R   0.530441 0.554306 0.158490 0.025778
C22   C     C_R   0.469401 0.445755 0.841504 0.030110
C23   C     C_R   0.261924 0.501158 0.498937 0.798963
C24   C     C_R   0.738115 0.498630 0.501044 0.781686
C25   C     C_R   0.528299 0.543936 0.035254 0.058818
C26   C     C_R   0.471231 0.456246 0.964743 0.060489
C27   C     C_R   0.163948 0.638696 0.156734 -0.135473
C28   C     C_R   0.848438 0.359578 0.847446 -0.125589
C29   C     C_R   0.128470 0.622437 0.264780 -0.139273
C30   C     C_R   0.883099 0.375437 0.739009 -0.176292
C31   C     C_R   0.095140 0.522607 0.281523 0.092308
C32   C     C_R   0.905642 0.476277 0.718337 0.098247
C33   C     C_R   0.096213 0.438531 0.187611 0.169580
C34   C     C_R   0.897310 0.561700 0.809586 0.177327
C35   C     C_R   0.130688 0.456072 0.079410 -0.109255
C36   C     C_R   0.865173 0.544561 0.918714 -0.108451
C37   C     C_R   0.164881 0.555661 0.064136 -0.152373
C38   C     C_R   0.839468 0.444051 0.937203 -0.152099
C39   C     C_R   0.923637 0.507739 0.399617 -0.250941
C40   C     C_R   0.076527 0.491477 0.600170 -0.251173
Cu1   Cu    Cu3+1 0.509250 0.507730 0.615930 0.942463
Cu2   Cu    Cu3+1 0.490750 0.492270 0.384070 0.947925
H1    H     H_    0.191739 0.568455 0.980307 0.141804
H2    H     H_    0.813785 0.431615 0.021557 0.141687
H3    H     H_    0.125214 0.687673 0.335271 0.126277
H4    H     H_    0.894433 0.309078 0.671488 0.124872
H5    H     H_    0.131286 0.392243 0.006918 0.145127
H6    H     H_    0.859562 0.609426 0.989345 0.143672
H7    H     H_    0.613432 0.831688 0.696874 0.172617
H8    H     H_    0.360007 0.175949 0.319423 0.154458
N1    N     N_R   0.523180 0.519350 0.790130 -0.179681
N2    N     N_R   0.476820 0.480650 0.209870 -0.177653
O1    O     O_R   0.506570 0.354460 0.582000 -0.581126
O2    O     O_R   0.493430 0.645540 0.418000 -0.562193
O3    O     O_R   0.490940 0.341410 0.386200 -0.599309
O4    O     O_R   0.509060 0.658590 0.613800 -0.608897
O5    O     O_R   0.327460 0.506540 0.597900 -0.591352
O6    O     O_R   0.672540 0.493460 0.402100 -0.592059
O7    O     O_R   0.311830 0.493480 0.402100 -0.573678
O8    O     O_R   0.688170 0.506520 0.597900 -0.580274
H9    H     H_    0.423358 0.379489 0.786765 0.126120
H10   H     H_    0.576536 0.620553 0.213220 0.123045
H11   H     H_    0.620783 0.662848 0.817785 0.128647
H12   H     H_    0.378185 0.337642 0.182266 0.125555
H13   H     H_    0.371815 0.313497 0.967400 0.136926
H14   H     H_    0.626918 0.687050 0.032606 0.138065
H15   H     H_    0.189517 0.715927 0.144395 0.142222
H16   H     H_    0.830236 0.281584 0.862384 0.146970
N3    N     N_3   0.063340 0.335126 0.200363 -0.621239
H17   H     H_    0.120727 0.313864 0.269087 0.215638
H18   H     H_    0.972451 0.335530 0.222792 0.220350
N4    N     N_3   0.921369 0.665939 0.793406 -0.617473
H19   H     H_    0.861607 0.682413 0.723727 0.218708
H20   H     H_    0.011769 0.670021 0.770683 0.221240
H21   H     H_    0.865089 0.515360 0.321302 0.158833
H22   H     H_    0.135107 0.484021 0.678526 0.159663
N5    N     N_3   0.361050 0.801477 0.357820 -0.574861
H23   H     H_    0.392430 0.802361 0.275713 0.248107
H24   H     H_    0.270836 0.828477 0.362692 0.233112
N6    N     N_3   0.675133 0.181521 0.610687 -0.609526
H25   H     H_    0.692019 0.255528 0.592893 0.226088
H26   H     H_    0.750813 0.138575 0.580692 0.197249
N7    N     N_3   0.313892 0.978101 0.272450 -0.636424
H27   H     H_    0.227169 0.012408 0.279341 0.219096
H28   H     H_    0.346657 0.992015 0.194628 0.223039
N8    N     N_3   0.649792 0.029237 0.744197 -0.593507
H29   H     H_    0.600471 0.095575 0.775564 0.248788
H30   H     H_    0.740085 0.048193 0.731554 0.232911

loop_
_geom_bond_atom_site_label_1
_geom_bond_atom_site_label_2
_ccdc_geom_bond_type
N4    H20   S    
C8    C13   A    
C27   C29   A    
C1    C8    S    
Cu1   Cu2   S    
C2    C7    S    
C35   H5    S    
Cu2   O6    S    
C12   H7    S    
N5    H23   S    
C23   O7    A    
C17   C26   A    
C35   C37   A    
C9    C16   A    
C20   N1    A    
C10   C15   A    
N8    H30   S    
C15   C16   A    
C14   N5    S    
N3    H18   S    
C1    O1    A    
C17   C19   A    
C19   N2    A    
C7    C14   A    
C4    C40   A    
C31   C33   A    
C39   H21   S    
C18   C20   A    
C33   N3    S    
C5    C32   S    
C6    C31   S    
C13   N6    S    
C3    C39   A    
C3    C24   S    
C18   C25   A    
N5    H24   S    
C7    C12   A    
N6    H26   S    
C2    O2    A    
C4    C23   S    
N8    H29   S    
N4    H19   S    
C25   C26   A    
C40   H22   S    
C29   H3    S    
C32   C34   A    
C37   H1    S    
Cu1   O4    S    
C38   H2    S    
Cu2   O3    S    
N7    H27   S    
C28   C38   A    
C19   H12   S    
C24   O8    A    
C9    C11   A    
Cu1   O1    S    
C21   H10   S    
C10   C12   A    
C9    N7    S    
C4    C6    A    
N7    H28   S    
C13   C15   A    
C14   C16   A    
C34   N4    S    
C23   O5    A    
C21   C25   A    
C10   N8    S    
C28   H16   S    
C30   H4    S    
Cu1   O8    S    
N6    H25   S    
C3    C5    A    
Cu2   O7    S    
C18   H14   S    
C17   H13   S    
C20   H11   S    
C36   C38   A    
C1    O3    A    
Cu1   O5    S    
C29   C31   A    
C11   H8    S    
C2    O4    A    
Cu2   O2    S    
C22   H9    S    
C30   C32   A    
C27   C37   A    
C8    C11   A    
C28   C30   A    
C33   C35   A    
C36   H6    S    
C34   C36   A    
N3    H17   S    
C27   H15   S    
C24   O6    A    
C22   C26   A    
C5    C40   A    
C6    C39   A    
Cu1   N1    S    
C21   N2    A    
Cu2   N2    S    
C22   N1    A    
