data_mof_unit_41774.cif
_audit_creation_date              2012-10-26T18:47:58-0400
_audit_creation_method            fapswitch 2.2
_symmetry_space_group_name_H-M    P1
_symmetry_Int_Tables_number       1
_space_group_crystal_system       triclinic
_cell_length_a                    15.862994
_cell_length_b                    8.687398
_cell_length_c                    7.450604
_cell_angle_alpha                 103.102073
_cell_angle_beta                  93.97941
_cell_angle_gamma                 92.293591
_cell_volume                      995.970528741

loop_
_atom_site_label
_atom_site_type_symbol
_atom_type_description
_atom_site_fract_x
_atom_site_fract_y
_atom_site_fract_z
_atom_type_partial_charge
C1    C     C_R   0.497475 0.199683 0.453170 0.550825
C2    C     C_2   0.503746 0.968298 0.573080 -0.148247
C3    C     C_R   0.340367 0.499453 0.502604 0.541637
C4    C     C_R   0.502533 0.800318 0.546829 0.550134
C5    C     C_R   0.659633 0.500463 0.497336 0.559939
C6    C     C_3   0.052967 0.470158 0.683125 -0.255163
C7    C     C_3   0.041123 0.355656 0.339782 0.060102
C8    C     C_3   0.942596 0.361295 0.331053 0.110218
C9    C     C_1   0.748976 0.499763 0.491736 0.019624
C10   C     C_3   0.082977 0.494931 0.497838 0.027175
C11   C     C_3   0.131877 0.244256 0.089162 -0.307814
C12   C     C_3   0.955273 0.464274 0.676664 -0.210654
C13   C     C_3   0.924288 0.837157 0.756781 -0.266578
C14   C     C_3   0.916593 0.496515 0.491235 0.075042
C15   C     C_3   0.955272 0.654861 0.454572 0.015640
C16   C     C_3   0.053324 0.657949 0.474010 -0.209022
C17   C     C_1   0.824413 0.498722 0.490094 0.022657
C18   C     C_1   0.175320 0.496241 0.505021 -0.062750
C19   C     C_1   0.250946 0.498129 0.507147 -0.039468
C20   C     C_2   0.496276 0.031705 0.426917 -0.147956
Cl1   Cl    Cl    0.894235 0.170852 0.332731 -0.696710
Cu1   Cu    Cu3+1 0.509300 0.517380 0.684380 0.973362
Cu2   Cu    Cu3+1 0.490700 0.482620 0.315620 0.968698
H1    H     H_    0.931998 0.345446 0.690705 0.179437
H2    H     H_    0.058226 0.243045 0.377481 0.180088
H3    H     H_    0.918632 0.385097 0.196406 0.151032
H4    H     H_    0.079585 0.752397 0.594185 0.133857
H5    H     H_    0.078930 0.689040 0.350814 0.093576
H6    H     H_    0.077623 0.465663 0.125523 0.245357
H7    H     H_    0.144451 0.251046 0.946561 0.134319
H8    H     H_    0.106872 0.122111 0.085034 0.156187
H9    H     H_    0.192330 0.269937 0.177248 0.154266
H10   H     H_    0.939658 0.898192 0.506592 0.294205
H11   H     H_    0.913963 0.964720 0.809356 0.176696
H12   H     H_    0.079855 0.567482 0.799868 0.117135
H13   H     H_    0.986249 0.812688 0.819850 0.128927
H14   H     H_    0.871689 0.769844 0.800415 0.166832
H15   H     H_    0.934923 0.547092 0.799540 0.107423
H16   H     H_    0.937283 0.651710 0.306329 0.119598
H17   H     H_    0.489244 0.959880 0.286161 0.135347
H18   H     H_    0.510779 0.040124 0.713835 0.137345
H19   H     H_    0.434824 0.376772 0.948689 0.236623
H20   H     H_    0.565166 0.623240 0.051319 0.245044
H21   H     H_    0.075838 0.357605 0.710226 0.122481
N1    N     N_2   0.476670 0.456430 0.038530 -0.256343
N2    N     N_2   0.523330 0.543570 0.961470 -0.252336
N3    N     N_2   0.070588 0.357384 0.158907 -0.536930
N4    N     N_2   0.922291 0.801268 0.556945 -0.507576
O1    O     O_R   0.506050 0.286130 0.619770 -0.505071
O2    O     O_R   0.490330 0.256780 0.308370 -0.497154
O3    O     O_R   0.387300 0.514690 0.655770 -0.503209
O4    O     O_R   0.371580 0.485340 0.344370 -0.500222
O5    O     O_R   0.509670 0.743220 0.691630 -0.496284
O6    O     O_R   0.493950 0.713870 0.380230 -0.506669
O7    O     O_R   0.628420 0.514660 0.655630 -0.491863
O8    O     O_R   0.612700 0.485310 0.344230 -0.492806

loop_
_geom_bond_atom_site_label_1
_geom_bond_atom_site_label_2
_ccdc_geom_bond_type
C6    C10   S    
C7    C10   S    
C2    C4    S    
C3    O4    A    
C5    C9    S    
Cu1   O7    S    
Cu2   N1    S    
C4    O5    A    
C13   N4    S    
C8    H3    S    
C1    O2    A    
C12   H1    S    
C5    O8    A    
C11   N3    S    
C16   H5    S    
C7    H2    S    
C16   H4    S    
C8    Cl1   S    
C11   H8    S    
C13   H11   S    
C10   C16   S    
N1    N2    D    
C3    C19   S    
C14   C17   S    
C15   H16   S    
Cu2   O4    S    
C1    O1    A    
C15   N4    S    
H6    N3    S    
Cu1   O1    S    
C9    C17   T    
Cu1   N2    S    
C10   C18   S    
C11   H9    S    
Cu1   O5    S    
Cu2   O6    S    
C6    C12   S    
C20   H17   S    
H20   N2    S    
C8    C14   S    
C2    H18   S    
C2    C20   D    
C15   C16   S    
C12   H15   S    
C7    C8    S    
C6    H12   S    
C13   H13   S    
C18   C19   T    
Cu2   O8    S    
H10   N4    S    
C3    O3    A    
C14   C15   S    
C1    C20   S    
C6    H21   S    
C4    O6    A    
Cu1   Cu2   S    
C13   H14   S    
C5    O7    A    
C11   H7    S    
C12   C14   S    
Cu1   O3    S    
Cu2   O2    S    
H19   N1    S    
C7    N3    S    
