data_mof_unit_52508.cif
_audit_creation_date              2012-12-10T19:46:51-0500
_audit_creation_method            fapswitch 2.2
_symmetry_space_group_name_H-M    P1
_symmetry_Int_Tables_number       1
_space_group_crystal_system       triclinic
_cell_length_a                    10.903163
_cell_length_b                    10.871372
_cell_length_c                    13.126207
_cell_angle_alpha                 89.89268
_cell_angle_beta                  90.119982
_cell_angle_gamma                 90.053134
_cell_volume                      1555.87323935

loop_
_atom_site_label
_atom_site_type_symbol
_atom_type_description
_atom_site_fract_x
_atom_site_fract_y
_atom_site_fract_z
_atom_type_partial_charge
C1    C     C_R   0.493689 0.259680 0.499967 0.827140
C2    C     C_R   0.506322 0.740319 0.500031 0.827103
C3    C     C_R   0.872928 0.491857 0.501671 -0.096084
C4    C     C_R   0.127070 0.508098 0.498337 -0.096039
C5    C     C_R   0.940458 0.459768 0.589905 -0.002934
C6    C     C_R   0.059539 0.540182 0.410107 -0.002900
C7    C     C_R   0.184391 0.220085 0.280277 -0.116683
C8    C     C_R   0.815507 0.779513 0.719630 -0.116522
C9    C     C_R   0.254886 0.164497 0.356115 -0.135981
C10   C     C_R   0.745007 0.835087 0.643788 -0.135620
C11   C     C_R   0.373113 0.120799 0.334469 0.024373
C12   C     C_R   0.626957 0.879197 0.665523 0.024423
C13   C     C_R   0.421552 0.134324 0.234951 0.040784
C14   C     C_R   0.578713 0.866121 0.765148 0.040521
C15   C     C_R   0.349161 0.191346 0.159495 -0.096602
C16   C     C_R   0.651107 0.809100 0.840606 -0.096753
C17   C     C_R   0.231407 0.233561 0.182148 -0.154439
C18   C     C_R   0.768675 0.766454 0.817856 -0.154538
C19   C     C_R   0.451108 0.933652 0.418557 -0.255128
C20   C     C_R   0.548963 0.066350 0.581419 -0.255252
C21   C     C_R   0.506584 0.872864 0.500296 -0.081353
C22   C     C_R   0.493468 0.127136 0.499691 -0.081362
C23   C     C_R   0.259670 0.507281 0.499493 0.822064
C24   C     C_R   0.740328 0.492697 0.500509 0.821970
C25   C     C_R   0.557044 0.939241 0.582313 -0.018574
C26   C     C_R   0.443024 0.060756 0.417672 -0.018653
C27   C     C_1   0.499968 0.499982 0.173585 0.161926
C28   C     C_1   0.500033 0.500018 0.826415 0.161818
C29   C     C_1   0.499976 0.499980 0.050684 -0.074502
C30   C     C_1   0.500025 0.500019 0.949316 -0.074528
C31   C     C_R   0.235155 0.740436 0.222912 -0.121512
C32   C     C_R   0.764729 0.259601 0.777102 -0.121521
C33   C     C_R   0.186518 0.695207 0.314264 -0.109288
C34   C     C_R   0.813374 0.304818 0.685748 -0.109130
C35   C     C_R   0.115977 0.586827 0.314504 0.132098
C36   C     C_R   0.884022 0.413129 0.685516 0.132085
C37   C     C_R   0.092926 0.526558 0.221702 -0.148147
C38   C     C_R   0.907186 0.473321 0.778334 -0.148341
C39   C     C_R   0.143035 0.571228 0.130960 -0.153043
C40   C     C_R   0.857071 0.428663 0.869078 -0.152966
C41   C     C_R   0.214285 0.677983 0.131597 -0.099850
C42   C     C_R   0.785704 0.321989 0.868430 -0.099785
C43   C     C_R   0.932825 0.530308 0.413059 -0.247477
C44   C     C_R   0.067176 0.469639 0.586947 -0.247496
Cu1   Cu    Cu3+1 0.499990 0.499990 0.592680 0.982618
Cu2   Cu    Cu3+1 0.500010 0.500010 0.407320 0.982652
H1    H     H_    0.252436 0.712953 0.061185 0.158057
H2    H     H_    0.747545 0.287028 0.938841 0.158360
H3    H     H_    0.383660 0.203654 0.082836 0.175816
H4    H     H_    0.616750 0.797124 0.917345 0.175818
H5    H     H_    0.411166 0.881829 0.356586 0.146437
H6    H     H_    0.588907 0.118177 0.643384 0.146364
H7    H     H_    0.288176 0.824483 0.222285 0.131231
H8    H     H_    0.711619 0.175613 0.777725 0.131223
H9    H     H_    0.202819 0.744949 0.384430 0.102357
H10   H     H_    0.796992 0.255121 0.615572 0.102338
H11   H     H_    0.035857 0.445122 0.219556 0.116371
H12   H     H_    0.964352 0.554688 0.780497 0.116304
H13   H     H_    0.125747 0.523597 0.060012 0.126466
H14   H     H_    0.874446 0.476240 0.940036 0.126505
H15   H     H_    0.880249 0.556739 0.346260 0.160609
H16   H     H_    0.119758 0.443203 0.653742 0.160596
H17   H     H_    0.176541 0.276834 0.123390 0.133370
H18   H     H_    0.823541 0.723176 0.876612 0.133392
H19   H     H_    0.092991 0.252283 0.297780 0.129480
H20   H     H_    0.906775 0.747010 0.702049 0.129442
H21   H     H_    0.217041 0.154766 0.431972 0.121701
H22   H     H_    0.782713 0.844492 0.567858 0.121524
N1    N     N_1   0.500030 0.500030 0.268070 -0.133320
N2    N     N_1   0.499970 0.499970 0.731930 -0.133318
O1    O     O_R   0.499980 0.319630 0.578260 -0.585843
O2    O     O_R   0.500020 0.680370 0.421740 -0.585852
O3    O     O_R   0.500000 0.319650 0.421740 -0.573509
O4    O     O_R   0.500000 0.680350 0.578260 -0.573446
O5    O     O_R   0.319630 0.500000 0.578260 -0.587700
O6    O     O_R   0.680370 0.500000 0.421740 -0.587670
O7    O     O_R   0.319650 0.500020 0.421740 -0.563931
O8    O     O_R   0.680350 0.499980 0.578260 -0.563958
C45   C     C_2   0.547265 0.091847 0.209765 0.329315
H23   H     H_    0.605456 0.051201 0.267836 0.084666
O9    O     O_2   0.587882 0.102083 0.123512 -0.550846
C46   C     C_2   0.453189 0.909052 0.790447 0.328966
H24   H     H_    0.394928 0.949548 0.732356 0.084782
O10   O     O_2   0.412820 0.899362 0.876822 -0.550673

loop_
_geom_bond_atom_site_label_1
_geom_bond_atom_site_label_2
_ccdc_geom_bond_type
C33   H9    S    
C13   C45   S    
C34   H10   S    
C40   H14   S    
Cu1   O1    S    
Cu2   O6    S    
C39   C41   A    
Cu1   Cu2   S    
C8    H20   S    
C3    C43   A    
C1    O1    A    
C19   C21   A    
C16   H4    S    
C27   C29   S    
C20   C25   A    
C5    C36   S    
C6    C35   S    
C7    C9    A    
C19   C26   A    
Cu2   N1    S    
C38   H12   S    
C7    C17   A    
C31   C33   A    
Cu1   O8    S    
Cu2   O2    S    
C27   N1    T    
C40   C42   A    
C1    C22   S    
C3    C24   S    
C2    O2    A    
C32   H8    S    
C4    C6    A    
C23   O5    A    
C45   O9    D    
C4    C23   S    
C24   O6    A    
C4    C44   A    
C11   C26   S    
C44   H16   S    
C31   H7    S    
Cu1   O4    S    
C32   C34   A    
C9    H21   S    
C29   C30   T    
C7    H19   S    
C39   H13   S    
C2    C21   S    
C41   H1    S    
C16   C18   A    
C42   H2    S    
C23   O7    A    
C9    C11   A    
C10   C12   A    
C24   O8    A    
C5    C44   A    
C12   C14   A    
C46   O10   D    
C6    C43   A    
C13   C15   A    
C14   C16   A    
C14   C46   S    
C43   H15   S    
C15   C17   A    
C21   C25   A    
C31   C41   A    
C35   C37   A    
Cu1   N2    S    
C8    C10   A    
C28   N2    T    
C20   C22   A    
C3    C5    A    
C2    O4    A    
Cu2   O7    S    
C10   H22   S    
C12   C25   S    
Cu1   O5    S    
C1    O3    A    
C28   C30   S    
C37   C39   A    
C17   H17   S    
C38   C40   A    
C11   C13   A    
C18   H18   S    
C36   C38   A    
C33   C35   A    
C34   C36   A    
C15   H3    S    
C8    C18   A    
C45   H23   S    
C19   H5    S    
C20   H6    S    
C46   H24   S    
C22   C26   A    
C32   C42   A    
Cu2   O3    S    
C37   H11   S    
