data_mof_unit_17868.cif
_audit_creation_date              2012-12-10T19:45:45-0500
_audit_creation_method            fapswitch 2.2
_symmetry_space_group_name_H-M    P1
_symmetry_Int_Tables_number       1
_space_group_crystal_system       triclinic
_cell_length_a                    10.887445
_cell_length_b                    14.679545
_cell_length_c                    14.543781
_cell_angle_alpha                 65.385323
_cell_angle_beta                  104.48504
_cell_angle_gamma                 102.734422
_cell_volume                      2028.11041137

loop_
_atom_site_label
_atom_site_type_symbol
_atom_type_description
_atom_site_fract_x
_atom_site_fract_y
_atom_site_fract_z
_atom_type_partial_charge
C1    C     C_R   0.474910 0.119550 0.310713 0.823788
C2    C     C_R   0.510266 0.781205 0.974861 -0.302267
C3    C     C_R   0.411374 0.148733 0.120075 0.455898
C4    C     C_R   0.531267 0.849665 0.876635 0.438078
C5    C     C_R   0.462518 0.290877 0.175618 -0.334818
C6    C     C_R   0.491610 0.708934 0.822069 -0.334211
C7    C     C_R   0.437070 0.360457 0.073874 0.090723
C8    C     C_R   0.471560 0.639645 0.920374 0.089761
C9    C     C_R   0.406215 0.323555 0.994390 0.123501
C10   C     C_R   0.484202 0.677117 0.997845 0.088900
C11   C     C_R   0.446383 0.466227 0.048630 0.069974
C12   C     C_R   0.519443 0.880490 0.688979 0.782133
C13   C     C_R   0.442530 0.533893 0.944205 0.082259
C14   C     C_R   0.407151 0.493705 0.866947 -0.222229
C15   C     C_R   0.456476 0.506544 0.123568 -0.201434
C16   C     C_R   0.263897 0.995409 0.508096 0.831696
C17   C     C_R   0.738156 0.998482 0.501633 0.833188
C18   C     C_R   0.387482 0.390398 0.891951 -0.191133
C19   C     C_R   0.472129 0.610231 0.097805 -0.171913
C20   C     C_R   0.715260 0.283875 0.671555 -0.318204
C21   C     C_R   0.279116 0.713112 0.333065 -0.322821
C22   C     C_R   0.681177 0.202726 0.640425 0.110461
C23   C     C_R   0.873152 0.992436 0.509479 -0.270894
C24   C     C_R   0.316106 0.795988 0.361510 0.109859
C25   C     C_R   0.519277 0.285913 0.507840 0.057941
C26   C     C_R   0.480478 0.713905 0.492482 0.039167
C27   C     C_R   0.549137 0.371688 0.535434 -0.048293
C28   C     C_R   0.447460 0.626591 0.467409 -0.058631
C29   C     C_R   0.648029 0.367979 0.621049 0.058036
C30   C     C_R   0.346152 0.629007 0.383730 0.056350
C31   C     C_R   0.481949 0.458438 0.483811 0.001618
C32   C     C_R   0.513181 0.539087 0.520141 -0.005032
C33   C     C_R   0.608250 0.529382 0.608452 -0.326321
C34   C     C_R   0.132119 0.986451 0.521742 -0.280172
C35   C     C_R   0.383384 0.466458 0.397893 -0.334427
C36   C     C_R   0.676958 0.446800 0.656902 0.434321
C37   C     C_R   0.313218 0.548072 0.350909 0.428671
C38   C     C_R   0.358291 0.120518 0.756725 -0.128397
C39   C     C_R   0.679673 0.906578 0.235941 -0.111193
C40   C     C_R   0.276175 0.062455 0.705014 -0.095578
C41   C     C_R   0.761781 0.948071 0.303419 -0.110440
C42   C     C_R   0.192747 0.109069 0.613558 0.204230
C43   C     C_R   0.817082 0.884693 0.401545 0.218162
C44   C     C_R   0.192118 0.214114 0.575332 -0.086608
C45   C     C_R   0.908659 0.930076 0.470615 -0.162683
C46   C     C_R   0.788398 0.779310 0.430970 -0.090401
C47   C     C_R   0.274468 0.271667 0.627493 -0.162170
C48   C     C_R   0.709172 0.738285 0.362109 -0.150233
C49   C     C_R   0.358480 0.224985 0.717540 -0.158289
C50   C     C_R   0.654123 0.801799 0.265091 -0.123143
C51   C     C_R   0.968407 0.042848 0.564170 0.406985
C52   C     C_R   0.037029 0.917028 0.490552 0.399892
C53   C     C_3   0.878539 0.501240 0.722223 0.040832
C54   C     C_3   0.977496 0.485454 0.820330 -0.768662
C55   C     C_3   0.107687 0.488501 0.300330 0.052466
C56   C     C_R   0.097576 0.047037 0.562992 -0.166478
C57   C     C_3   0.998575 0.501606 0.208939 -0.766681
C58   C     C_3   0.942786 0.018729 0.724146 0.072436
C59   C     C_3   0.993532 0.075857 0.795658 -0.832335
C60   C     C_3   0.095768 0.759340 0.571497 0.100479
C61   C     C_3   0.104483 0.664810 0.556057 -0.818153
C62   C     C_3   0.681148 0.974858 0.907009 0.048656
C63   C     C_3   0.690499 0.072292 0.923051 -0.829627
C64   C     C_3   0.347184 0.013574 0.062423 0.044532
C65   C     C_3   0.316606 0.899388 0.100105 -0.789691
C66   C     C_R   0.450016 0.186425 0.199979 -0.133101
C67   C     C_R   0.517060 0.813348 0.798069 -0.155316
C68   C     C_R   0.393739 0.220027 0.017100 -0.321078
Cu1   Cu    Cu3+1 0.466270 0.918260 0.475690 0.964060
Cu2   Cu    Cu3+1 0.533730 0.081740 0.524310 0.964327
H1    H     H_    0.423695 0.269572 0.757129 0.140507
H2    H     H_    0.067902 0.536100 0.802654 0.196087
H3    H     H_    0.941343 0.502844 0.875391 0.252492
H4    H     H_    0.077914 0.507781 0.357397 0.138517
H5    H     H_    0.124253 0.407852 0.335316 0.139441
H6    H     H_    0.024467 0.481754 0.151000 0.252038
H7    H     H_    0.910949 0.451372 0.234784 0.201799
H8    H     H_    0.978516 0.581244 0.173045 0.242761
H9    H     H_    0.559654 0.720419 0.551801 0.119969
H10   H     H_    0.442481 0.280191 0.446765 0.118205
H11   H     H_    0.265046 0.861090 0.321738 0.170413
H12   H     H_    0.591465 0.769711 0.212760 0.111132
H13   H     H_    0.729708 0.136646 0.681164 0.155495
H14   H     H_    0.792283 0.279497 0.736333 0.180186
H15   H     H_    0.198685 0.715300 0.271207 0.187290
H16   H     H_    0.630161 0.583947 0.643780 0.145298
H17   H     H_    0.357155 0.410169 0.364685 0.142061
H18   H     H_    0.420274 0.084524 0.828120 0.178270
H19   H     H_    0.636607 0.955619 0.160847 0.142545
H20   H     H_    0.275680 0.981264 0.737025 0.114847
H21   H     H_    0.782562 0.029472 0.279297 0.109645
H22   H     H_    0.126785 0.250985 0.505972 0.116453
H23   H     H_    0.370347 0.196848 0.952597 0.115906
H24   H     H_    0.826805 0.728855 0.506842 0.106325
H25   H     H_    0.273118 0.352430 0.598151 0.139626
H26   H     H_    0.689520 0.657161 0.384264 0.138858
H27   H     H_    0.006330 0.959559 0.747506 0.116423
H28   H     H_    0.845135 0.979277 0.735792 0.133793
H29   H     H_    0.994794 0.022315 0.876739 0.193609
H30   H     H_    0.092471 0.113313 0.786620 0.261043
H31   H     H_    0.932758 0.134407 0.778379 0.238713
H32   H     H_    0.020127 0.740383 0.618413 0.097946
H33   H     H_    0.188699 0.779988 0.616171 0.155846
H34   H     H_    0.515897 0.810012 0.033503 0.142576
H35   H     H_    0.182598 0.679165 0.513724 0.263012
H36   H     H_    0.125802 0.602390 0.631707 0.191233
H37   H     H_    0.012758 0.641463 0.512275 0.234555
H38   H     H_    0.359001 0.362890 0.830269 0.138462
H39   H     H_    0.478120 0.637975 0.157315 0.150133
H40   H     H_    0.490939 0.682724 0.762934 0.173179
H41   H     H_    0.495851 0.317221 0.237626 0.170260
H42   H     H_    0.750499 0.985520 0.858140 0.150814
H43   H     H_    0.709911 0.915343 0.983917 0.136787
H44   H     H_    0.631417 0.060294 0.980054 0.229781
H45   H     H_    0.389252 0.540178 0.786048 0.140492
H46   H     H_    0.791513 0.096572 0.951854 0.214121
H47   H     H_    0.655621 0.132854 0.849990 0.259080
H48   H     H_    0.421275 0.037243 0.013584 0.142387
H49   H     H_    0.256698 0.044861 0.016648 0.148773
H50   H     H_    0.230738 0.874801 0.136734 0.231187
H51   H     H_    0.295585 0.875492 0.034046 0.208931
H52   H     H_    0.398757 0.863093 0.155870 0.257074
H53   H     H_    0.448208 0.459607 0.202328 0.144439
H54   H     H_    0.863405 0.582201 0.686513 0.135119
H55   H     H_    0.917213 0.482540 0.668999 0.142262
H56   H     H_    0.997509 0.405808 0.856334 0.247696
N1    N     N_R   0.584450 0.204570 0.560790 -0.177302
N2    N     N_R   0.415550 0.795430 0.439210 -0.179630
O1    O     O_R   0.455540 0.022090 0.338120 -0.526758
O2    O     O_3   0.218380 0.552530 0.266166 -0.582790
O3    O     O_3   0.936620 0.087835 0.620523 -0.561049
O4    O     O_3   0.068148 0.838793 0.474519 -0.556561
O5    O     O_3   0.556219 0.952027 0.856600 -0.587301
O6    O     O_3   0.393787 0.043747 0.146921 -0.572975
O7    O     O_R   0.544460 0.977910 0.661880 -0.548241
O8    O     O_R   0.512510 0.160150 0.379180 -0.605477
O9    O     O_R   0.487490 0.839850 0.620820 -0.608998
O10   O     O_R   0.291160 0.930970 0.479480 -0.546028
O11   O     O_R   0.708840 0.069030 0.520520 -0.540380
O12   O     O_R   0.348130 0.069020 0.520540 -0.585829
O13   O     O_R   0.651870 0.930980 0.479460 -0.589354
O14   O     O_3   0.763644 0.438002 0.746921 -0.577543

loop_
_geom_bond_atom_site_label_1
_geom_bond_atom_site_label_2
_ccdc_geom_bond_type
Cu2   N1    S    
Cu2   O12   S    
C8    C13   A    
C23   C45   A    
C27   C29   A    
C25   H10   S    
C59   H29   S    
C14   C18   A    
C3    C68   A    
C58   H28   S    
C24   H11   S    
C60   O4    S    
C47   C49   A    
C38   C49   A    
C53   C54   S    
C48   C50   A    
C7    C11   A    
C54   H56   S    
C29   C36   A    
C50   H12   S    
C17   C23   S    
C64   H49   S    
C15   H53   S    
C62   O5    S    
C35   C37   A    
C51   C56   A    
C1    O1    A    
C63   H47   S    
Cu1   O13   S    
C14   H45   S    
C33   C36   A    
C64   H48   S    
C37   O2    S    
C58   O3    S    
C17   O13   A    
C53   O14   S    
C36   O14   S    
C42   C56   S    
C15   C19   A    
C55   H4    S    
C11   C15   A    
Cu1   N2    S    
C12   O7    A    
C65   H51   S    
C1    O8    A    
C61   H35   S    
C41   C43   A    
C44   H22   S    
C44   C47   A    
C34   C56   A    
C55   H5    S    
C40   C42   A    
Cu2   O11   S    
C13   C14   A    
Cu2   O8    S    
C59   H30   S    
C6    H40   S    
C16   O12   A    
C58   H27   S    
C42   C44   A    
C60   H32   S    
C21   H15   S    
C20   C29   A    
C19   H39   S    
Cu1   O9    S    
C12   C67   S    
C64   O6    S    
C27   C31   A    
C59   H31   S    
C57   H7    S    
C28   C32   A    
C62   H43   S    
C39   C41   A    
C5    C7    A    
C51   O3    S    
C6    C8    A    
C5    H41   S    
C45   C52   A    
C58   C59   S    
C30   C37   A    
C38   H18   S    
C60   C61   S    
C52   O4    S    
C2    C4    A    
C33   H16   S    
C62   C63   S    
C54   H3    S    
C23   C51   A    
C31   C32   A    
C46   H24   S    
C2    H34   S    
C10   C19   A    
C55   O2    S    
C16   C34   S    
C1    C66   S    
C62   H42   S    
C17   O11   A    
C26   N2    A    
C65   H52   S    
C61   H36   S    
C43   C45   S    
C53   H55   S    
C63   H46   S    
C8    C10   A    
C6    C67   A    
C41   H21   S    
C20   C22   A    
C55   C57   S    
Cu2   O7    S    
C31   C35   A    
C3    C66   A    
C63   H44   S    
C57   H6    S    
C35   H17   S    
Cu1   O10   S    
C7    C9    A    
C48   H26   S    
C34   C52   A    
C57   H8    S    
C16   O10   A    
C26   H9    S    
C5    C66   A    
C53   H54   S    
C4    C67   A    
C25   C27   A    
C21   C30   A    
C26   C28   A    
C68   H23   S    
C3    O6    S    
C32   C33   A    
C20   H14   S    
C25   N1    A    
C9    C68   A    
C64   C65   S    
C22   H13   S    
C38   C40   A    
C11   C13   A    
C60   H33   S    
C22   N1    A    
C28   C30   A    
C65   H50   S    
Cu1   Cu2   S    
C61   H37   S    
C43   C46   A    
C18   H38   S    
C46   C48   A    
C9    C18   A    
C39   C50   A    
C54   H2    S    
Cu1   O1    S    
C49   H1    S    
C21   C24   A    
C24   N2    A    
C47   H25   S    
C12   O9    A    
C40   H20   S    
C39   H19   S    
C4    O5    S    
C2    C10   A    
