data_mof_unit_7812.cif
_audit_creation_date              2012-12-10T16:44:39-0500
_audit_creation_method            fapswitch 2.2
_symmetry_space_group_name_H-M    P1
_symmetry_Int_Tables_number       1
_space_group_crystal_system       triclinic
_cell_length_a                    18.371089
_cell_length_b                    18.483835
_cell_length_c                    18.323437
_cell_angle_alpha                 120.00205
_cell_angle_beta                  119.320597
_cell_angle_gamma                 90.390472
_cell_volume                      4429.40046363

loop_
_atom_site_label
_atom_site_type_symbol
_atom_type_description
_atom_site_fract_x
_atom_site_fract_y
_atom_site_fract_z
_atom_type_partial_charge
C1    C     C_R   0.138332 0.361033 0.001438 0.708065
C2    C     C_R   0.900046 0.294855 0.260978 0.282233
C3    C     C_R   0.953780 0.353325 0.266915 0.486011
C4    C     C_R   0.865270 0.642577 0.004299 0.695932
C5    C     C_R   0.927831 0.354365 0.181826 0.291791
C6    C     C_2   0.715313 0.767898 0.931047 0.408930
C7    C     C_2   0.679381 0.791729 0.985307 0.444919
C8    C     C_2   0.758917 0.700283 0.928489 -0.330809
C9    C     C_2   0.821398 0.709921 0.015306 0.395613
C10   C     C_2   0.685489 0.268504 0.442888 0.315648
C11   C     C_2   0.699137 0.195015 0.387554 0.258176
C12   C     C_R   0.581548 0.136707 0.812173 0.406172
C13   C     C_2   0.751659 0.334550 0.554893 0.415123
C14   C     C_2   0.793752 0.304232 0.612165 -0.385626
C15   C     C_2   0.335442 0.280722 0.062928 0.412273
C16   C     C_R   0.138318 0.640231 0.277305 0.796758
C17   C     C_2   0.307673 0.194249 0.987296 0.402332
C18   C     C_2   0.276274 0.331945 0.043632 -0.298022
C19   C     C_2   0.192691 0.304994 0.013676 0.384019
C20   C     C_2   0.218656 0.795341 0.960757 0.295087
C21   C     C_2   0.307616 0.822995 0.019247 0.400774
C22   C     C_2   0.172027 0.749493 0.979425 0.462245
C23   C     C_R   0.664319 0.195134 0.908643 -0.125129
C24   C     C_2   0.192240 0.681121 0.983190 0.214339
C25   C     C_2   0.222474 0.797009 0.557529 0.284599
C26   C     C_2   0.305292 0.797349 0.612183 0.407953
C27   C     C_2   0.164276 0.726179 0.446321 0.378185
C28   C     C_R   0.859161 0.361365 0.722776 0.857655
C29   C     C_2   0.193367 0.708681 0.386820 0.391845
C30   C     C_R   0.638302 0.138537 0.277012 0.889186
C31   C     C_R   0.361588 0.861111 0.722704 0.814308
C32   C     C_R   0.637047 0.859440 0.997807 0.794346
C33   C     C_R   0.361664 0.138699 0.999319 0.799417
C34   C     C_R   0.715186 0.262644 0.920337 -0.145351
C35   C     C_R   0.360512 0.863388 0.003190 0.783289
C36   C     C_R   0.636531 0.139036 0.995271 0.996373
C37   C     C_R   0.139397 0.636313 0.996479 0.799533
C38   C     C_R   0.862082 0.360907 0.002966 0.905551
C39   C     C_R   0.674744 0.284663 0.847939 0.366939
C40   C     C_R   0.591366 0.227737 0.754674 0.423443
C41   C     C_R   0.545539 0.155592 0.739459 -0.390560
C42   C     C_3   0.895895 0.787377 0.195701 0.129976
C43   C     C_3   0.831108 0.737621 0.198739 -0.284797
C44   C     C_3   0.880209 0.727821 0.286852 -0.908798
C45   C     C_R   0.696386 0.191401 0.994814 -0.036055
C46   C     C_3   0.746470 0.453734 0.540166 0.160921
C47   C     C_3   0.793435 0.553650 0.607496 -0.352675
C48   C     C_3   0.768806 0.590233 0.543200 -1.011829
C49   C     C_3   0.463280 0.402039 0.209281 0.123836
C50   C     C_3   0.511477 0.401916 0.160412 -0.387284
C51   C     C_3   0.583473 0.490903 0.226788 -0.932133
C52   C     C_3   0.730659 0.379869 0.824506 0.215497
C53   C     C_3   0.676397 0.423907 0.773889 -0.385680
C54   C     C_3   0.641476 0.486539 0.832218 -0.657119
C55   C     C_3   0.089016 0.167819 0.923959 0.192407
C56   C     C_R   0.784055 0.243247 0.084408 -0.163610
C57   C     C_3   0.015956 0.157330 0.939474 -0.379177
C58   C     C_3   0.931522 0.082264 0.839849 -0.934854
C59   C     C_3   0.105429 0.738880 0.794417 0.098523
C60   C     C_3   0.072235 0.758048 0.713579 -0.320994
C61   C     C_3   0.004895 0.674973 0.606263 -0.957168
C62   C     C_3   0.282997 0.589818 0.982007 0.116555
C63   C     C_3   0.359519 0.642601 0.096071 -0.225585
C64   C     C_3   0.387683 0.581719 0.130276 -0.996544
C65   C     C_3   0.108663 0.846944 0.567127 0.115441
C66   C     C_3   0.095634 0.923347 0.642637 -0.294378
C67   C     C_R   0.839681 0.302536 0.090239 -0.204170
C68   C     C_3   0.998546 0.905711 0.605171 -0.980540
C69   C     C_3   0.520094 0.182274 0.585168 0.081906
C70   C     C_3   0.596099 0.171710 0.571111 -0.438331
C71   C     C_3   0.562134 0.097463 0.461030 -0.843685
C72   C     C_3   0.556081 0.987188 0.726399 0.104119
C73   C     C_3   0.478409 0.930118 0.613148 -0.336269
C74   C     C_3   0.493045 0.845033 0.552559 -0.798865
C75   C     C_3   0.874311 0.302462 0.375816 0.211306
C76   C     C_3   0.927369 0.349344 0.491925 -0.341652
C77   C     C_3   0.977036 0.447083 0.550229 -0.817338
C78   C     C_R   0.804941 0.308582 0.005449 0.022853
C79   C     C_3   0.050345 0.376040 0.179749 0.095540
C80   C     C_3   0.143460 0.432031 0.278864 -0.272330
C81   C     C_3   0.214955 0.407363 0.260761 -0.896309
C82   C     C_3   0.755433 0.783194 0.833020 0.097300
C83   C     C_3   0.855078 0.835299 0.910681 -0.343714
C84   C     C_3   0.903749 0.809118 0.858421 -0.871034
C85   C     C_R   0.818576 0.235420 0.167895 0.383858
F1    F     F_    0.032516 0.410703 0.357500 -0.627220
F2    F     F_    0.274221 0.759249 0.426381 -0.673598
F3    F     F_    0.776692 0.167772 0.159046 -0.674400
F4    F     F_    0.676868 0.748620 0.026871 -0.685072
F5    F     F_    0.608888 0.283307 0.395453 -0.682771
F6    F     F_    0.774131 0.176308 0.430321 -0.709265
F7    F     F_    0.232006 0.158076 0.892590 -0.716294
F8    F     F_    0.352260 0.816015 0.099481 -0.680463
F9    F     F_    0.108529 0.778159 0.992688 -0.674189
F10   F     F_    0.334878 0.732283 0.568421 -0.658184
F11   F     F_    0.082916 0.676382 0.406460 -0.685370
H1    H     H_    0.739037 0.642000 0.854520 0.119917
H2    H     H_    0.831924 0.691152 0.286668 0.271417
H3    H     H_    0.918254 0.794155 0.360854 0.243174
H4    H     H_    0.674119 0.440515 0.492436 0.211827
H5    H     H_    0.770366 0.420816 0.490147 0.114602
H6    H     H_    0.774453 0.587370 0.662213 0.230636
H7    H     H_    0.866306 0.568154 0.652261 0.227479
H8    H     H_    0.786733 0.557262 0.487415 0.269814
H9    H     H_    0.805102 0.662554 0.594160 0.275180
H10   H     H_    0.696602 0.579342 0.500941 0.271116
H11   H     H_    0.513925 0.427542 0.290363 0.186813
H12   H     H_    0.776457 0.233561 0.577703 0.183432
H13   H     H_    0.425061 0.448617 0.212545 0.132991
H14   H     H_    0.542587 0.349372 0.150514 0.262466
H15   H     H_    0.463149 0.387449 0.083679 0.204388
H16   H     H_    0.554846 0.545173 0.240055 0.268125
H17   H     H_    0.614716 0.489536 0.187557 0.277422
H18   H     H_    0.635367 0.504231 0.301799 0.265539
H19   H     H_    0.730144 0.316652 0.766978 0.065726
H20   H     H_    0.800603 0.424329 0.878929 0.116333
H21   H     H_    0.718705 0.461724 0.768591 0.184884
H22   H     H_    0.619499 0.372998 0.694254 0.240206
H23   H     H_    0.300835 0.390246 0.050724 0.102166
H24   H     H_    0.589924 0.448305 0.826750 0.291734
H25   H     H_    0.611145 0.522766 0.798092 0.216762
H26   H     H_    0.695867 0.535197 0.914155 0.245402
H27   H     H_    0.105067 0.105427 0.899644 0.191416
H28   H     H_    0.064800 0.175088 0.859789 0.162135
H29   H     H_    0.039328 0.143108 0.997995 0.227360
H30   H     H_    0.000578 0.219741 0.967950 0.241039
H31   H     H_    0.905905 0.096158 0.780931 0.274039
H32   H     H_    0.880186 0.076274 0.853921 0.266153
H33   H     H_    0.944644 0.018453 0.810754 0.259958
H34   H     H_    0.478706 0.115091 0.672488 0.181518
H35   H     H_    0.048964 0.720154 0.796331 0.170634
H36   H     H_    0.131054 0.682391 0.772131 0.134892
H37   H     H_    0.041060 0.810140 0.730891 0.227224
H38   H     H_    0.129117 0.782973 0.715907 0.246152
H39   H     H_    0.036777 0.624494 0.584921 0.294213
H40   H     H_    0.978252 0.691580 0.549707 0.275852
H41   H     H_    0.949162 0.646991 0.603307 0.266525
H42   H     H_    0.310432 0.554023 0.937145 0.159028
H43   H     H_    0.230693 0.536569 0.958417 0.125152
H44   H     H_    0.416955 0.680531 0.109190 0.249353
H45   H     H_    0.926749 0.856919 0.264628 0.161357
H46   H     H_    0.340023 0.690962 0.144294 0.259669
H47   H     H_    0.332447 0.547021 0.122956 0.292182
H48   H     H_    0.444760 0.621766 0.211960 0.268181
H49   H     H_    0.407483 0.532188 0.083318 0.262260
H50   H     H_    0.085871 0.786273 0.559843 0.192311
H51   H     H_    0.069333 0.837152 0.491714 0.168444
H52   H     H_    0.134814 0.933016 0.718056 0.251844
H53   H     H_    0.120326 0.985433 0.653606 0.261511
H54   H     H_    0.959002 0.901766 0.533364 0.273546
H55   H     H_    0.992694 0.960788 0.664274 0.274892
H56   H     H_    0.952677 0.763189 0.203576 0.135015
H57   H     H_    0.971449 0.842907 0.591239 0.266559
H58   H     H_    0.474251 0.200315 0.534345 0.186375
H59   H     H_    0.480376 0.117771 0.557369 0.133792
H60   H     H_    0.629713 0.234240 0.589345 0.221058
H61   H     H_    0.645015 0.156450 0.623364 0.214395
H62   H     H_    0.529422 0.033219 0.440454 0.268057
H63   H     H_    0.618543 0.092054 0.453366 0.270211
H64   H     H_    0.514246 0.111807 0.407113 0.271974
H65   H     H_    0.567721 0.945278 0.755438 0.212054
H66   H     H_    0.618059 0.008132 0.733948 0.104327
H67   H     H_    0.785778 0.774991 0.208765 0.263133
H68   H     H_    0.416279 0.912851 0.606266 0.272726
H69   H     H_    0.470903 0.967637 0.579330 0.201636
H70   H     H_    0.555619 0.860822 0.559678 0.224037
H71   H     H_    0.437402 0.806552 0.470274 0.308078
H72   H     H_    0.496129 0.803638 0.581113 0.288567
H73   H     H_    0.830432 0.236081 0.338777 0.189713
H74   H     H_    0.831833 0.341095 0.355279 0.094030
H75   H     H_    0.881584 0.344457 0.513443 0.190354
H76   H     H_    0.975248 0.315982 0.514905 0.253502
H77   H     H_    0.024910 0.454217 0.531978 0.319157
H78   H     H_    0.789921 0.670715 0.125833 0.249852
H79   H     H_    0.013949 0.478985 0.633988 0.238270
H80   H     H_    0.929591 0.481527 0.529632 0.239427
H81   H     H_    0.048376 0.378074 0.119257 0.135639
H82   H     H_    0.037304 0.305313 0.153347 0.096412
H83   H     H_    0.153816 0.503383 0.310850 0.240404
H84   H     H_    0.150919 0.421661 0.336406 0.277930
H85   H     H_    0.203864 0.335338 0.224402 0.286046
H86   H     H_    0.280931 0.444871 0.335133 0.278997
H87   H     H_    0.214823 0.424807 0.210980 0.268881
H88   H     H_    0.728916 0.800993 0.777430 0.165119
H89   H     H_    0.926024 0.690562 0.278638 0.318290
H90   H     H_    0.741483 0.710595 0.785871 0.127824
H91   H     H_    0.865291 0.907349 0.948420 0.234154
H92   H     H_    0.884165 0.823031 0.970970 0.249488
H93   H     H_    0.897771 0.738162 0.824224 0.273027
H94   H     H_    0.975039 0.849727 0.915770 0.309590
H95   H     H_    0.876143 0.820567 0.797421 0.240909
O1    O     O_3   0.000000 0.500000 0.000000 -0.502199
O2    O     O_R   0.325040 0.054120 0.939900 -0.614524
O3    O     O_R   0.444330 0.884140 0.060080 -0.603161
O4    O     O_R   0.054210 0.325030 0.939940 -0.651848
O5    O     O_R   0.615830 0.175840 0.060080 -0.638630
O6    O     O_R   0.324160 0.884140 0.939910 -0.631997
O7    O     O_R   0.615850 0.055700 0.939930 -0.610627
O8    O     O_R   0.614980 0.885710 0.939940 -0.619894
O9    O     O_R   0.445830 0.174930 0.060060 -0.640880
O10   O     O_R   0.614300 0.054120 0.229160 -0.619100
O11   O     O_R   0.325070 0.885060 0.770830 -0.634552
O12   O     O_R   0.054160 0.614240 0.229150 -0.607601
O13   O     O_R   0.885070 0.614240 0.060060 -0.660276
O14   O     O_R   0.174980 0.614900 0.229170 -0.601864
O15   O     O_R   0.885740 0.445830 0.770840 -0.591629
O16   O     O_R   0.175880 0.615810 0.060090 -0.657845
O17   O     O_R   0.884210 0.324110 0.939920 -0.700734
O18   O     O_R   0.055710 0.615810 0.939920 -0.610251
O19   O     O_R   0.884190 0.444260 0.060070 -0.563181
O20   O     O_3   0.851188 0.790124 0.109136 -0.633305
O21   O     O_3   0.764591 0.425270 0.604096 -0.619219
O22   O     O_3   0.411091 0.315122 0.160443 -0.629266
O23   O     O_R   0.885120 0.325030 0.770840 -0.663004
O24   O     O_3   0.704578 0.371931 0.882059 -0.616140
O25   O     O_3   0.166482 0.237229 0.018325 -0.655082
O26   O     O_3   0.172691 0.815887 0.890746 -0.625386
O27   O     O_3   0.249030 0.647126 0.954492 -0.684126
O28   O     O_3   0.199232 0.869496 0.605818 -0.666920
O29   O     O_3   0.550593 0.251742 0.687225 -0.626818
O30   O     O_3   0.535237 0.058406 0.784720 -0.639849
O31   O     O_3   0.933191 0.291820 0.345270 -0.554313
O32   O     O_3   0.987160 0.413091 0.194099 -0.574506
O33   O     O_3   0.709904 0.807499 0.881059 -0.648977
O34   O     O_R   0.175010 0.445830 0.060100 -0.669402
O35   O     O_R   0.885710 0.614900 0.939900 -0.637759
O36   O     O_3   0.500040 0.999960 0.000000 -0.520501
O37   O     O_R   0.614930 0.174930 0.229160 -0.622022
O38   O     O_R   0.445880 0.885710 0.770850 -0.631935
O39   O     O_R   0.614330 0.885060 0.060100 -0.596149
Zn1   Zn    Zn3+2 0.956610 0.542450 0.085830 1.020462
Zn2   Zn    Zn3+2 0.129220 0.543380 0.085850 0.974501
Zn3   Zn    Zn3+2 0.957530 0.543380 0.914160 0.989956
Zn4   Zn    Zn3+2 0.956640 0.370790 0.914170 0.927543
Zn5   Zn    Zn3+2 0.543440 0.957510 0.914170 1.041022
Zn6   Zn    Zn3+2 0.542510 0.956570 0.085840 1.058876
Zn7   Zn    Zn3+2 0.370820 0.956570 0.914150 1.008781
Zn8   Zn    Zn3+2 0.543410 0.129170 0.085830 1.033068

loop_
_geom_bond_atom_site_label_1
_geom_bond_atom_site_label_2
_ccdc_geom_bond_type
O1    Zn1   S    
C66   C68   S    
C58   H32   S    
C51   H16   S    
C23   C45   A    
C54   H24   S    
C64   H49   S    
C27   C29   D    
C69   O29   S    
C28   O15   A    
C20   O26   S    
C15   C18   S    
C35   O6    A    
C81   H85   S    
C5    C67   A    
O11   Zn7   S    
C74   H72   S    
C56   C85   A    
O1    Zn3   S    
C49   H11   S    
O5    Zn8   S    
C53   C54   S    
C71   H64   S    
C67   C78   A    
C12   C23   A    
C59   H35   S    
C51   H17   S    
O35   Zn3   S    
C38   O17   A    
C2    C85   A    
O15   Zn3   S    
C70   H60   S    
C80   H84   S    
C1    O4    A    
C36   O7    A    
C18   C19   D    
C73   H68   S    
O7    Zn5   S    
C65   H50   S    
C57   H29   S    
C41   H34   S    
C43   H78   S    
C53   H21   S    
O16   Zn2   S    
C4    O13   A    
C82   O33   S    
C58   H33   S    
C7    F4    S    
C82   H88   S    
C2    O31   S    
C84   H95   S    
O1    Zn2   S    
C19   O25   S    
C63   H44   S    
C76   H76   S    
C31   O11   A    
C35   O3    A    
C46   C47   S    
O6    Zn7   S    
C48   H10   S    
C47   C48   S    
C75   O31   S    
C8    C9    D    
C75   H73   S    
O19   Zn1   S    
C79   H81   S    
O4    Zn4   S    
C84   H94   S    
C70   C71   S    
C4    O35   A    
C62   H43   S    
C65   H51   S    
C16   O12   A    
C42   H56   S    
C66   H52   S    
C45   C56   A    
C15   O22   S    
C44   H89   S    
C14   H12   S    
C54   H26   S    
C33   O2    A    
C58   H31   S    
C77   H79   S    
C47   H6    S    
C13   C14   D    
C40   O29   S    
C3    F1    S    
C37   O16   A    
C13   O21   S    
C83   H91   S    
C27   F11   S    
O23   Zn4   S    
C17   F7    S    
C17   C33   S    
C81   H86   S    
C75   H74   S    
C50   H14   S    
C74   H71   S    
C24   C37   S    
C6    O33   S    
C52   H20   S    
C73   C74   S    
C28   O23   A    
C46   H5    S    
C32   O39   A    
C59   H36   S    
C1    C19   S    
C51   H18   S    
C47   H7    S    
C34   C39   A    
O34   Zn2   S    
C80   H83   S    
C30   O37   A    
C84   H93   S    
C68   H54   S    
C76   C77   S    
C11   C30   S    
C66   H53   S    
C73   H69   S    
C68   H57   S    
C59   O26   S    
C57   H30   S    
C65   O28   S    
C53   H22   S    
C72   C73   S    
O10   Zn6   S    
C6    C8    S    
C64   H48   S    
C33   O9    A    
C16   C29   S    
O36   Zn8   S    
C82   C83   S    
C22   F9    S    
C38   O19   A    
C63   C64   S    
O9    Zn8   S    
C60   C61   S    
C18   H23   S    
O38   Zn5   S    
C76   H75   S    
C75   C76   S    
C36   O5    A    
O37   Zn8   S    
C62   C63   S    
O36   Zn6   S    
O8    Zn5   S    
C48   H9    S    
C49   O22   S    
C72   H65   S    
C23   C34   A    
O2    Zn7   S    
C42   H45   S    
C50   C51   S    
C79   H82   S    
C36   C45   S    
C69   H59   S    
C62   H42   S    
O1    Zn4   S    
C48   H8    S    
C30   O10   A    
C37   O18   A    
C40   C41   A    
C5    O32   S    
C54   H25   S    
C20   C22   S    
C16   O14   A    
C77   H80   S    
C55   C57   S    
C43   C44   S    
C22   C24   D    
C83   H92   S    
C83   C84   S    
C32   O8    A    
C42   C43   S    
C81   H87   S    
C55   H27   S    
C60   H38   S    
C55   O25   S    
C71   H63   S    
C52   C53   S    
C61   H39   S    
C12   C41   A    
C49   H13   S    
C52   H19   S    
C1    O34   A    
C26   F10   S    
C15   C17   D    
C71   H62   S    
C46   H4    S    
C55   H28   S    
C77   H77   S    
C7    C32   S    
C26   C31   S    
C62   O27   S    
O3    Zn6   S    
C80   C81   S    
C3    C5    A    
C10   C13   S    
C79   O32   S    
C6    C7    D    
C21   C35   S    
C64   H47   S    
C25   C27   S    
C56   C67   A    
O36   Zn5   S    
C38   C78   S    
C69   H58   S    
C39   O24   S    
C70   H61   S    
O39   Zn6   S    
C82   H90   S    
O13   Zn1   S    
C2    C3    A    
C25   C26   D    
C68   H55   S    
C24   O27   S    
C34   C78   A    
O12   Zn1   S    
C61   H41   S    
C57   C58   S    
C21   F8    S    
C9    O20   S    
C8    H1    S    
C46   O21   S    
C72   O30   S    
C31   O38   A    
C50   H15   S    
C44   H3    S    
C63   H46   S    
C85   F3    S    
C65   C66   S    
C69   C70   S    
O18   Zn3   S    
C12   O30   S    
C29   F2    S    
C25   O28   S    
C10   C11   D    
C44   H2    S    
C79   C80   S    
C39   C40   A    
C11   F6    S    
C59   C60   S    
C74   H70   S    
C20   C21   D    
C10   F5    S    
C49   C50   S    
C52   O24   S    
C72   H66   S    
O14   Zn2   S    
C14   C28   S    
C4    C9    S    
O17   Zn4   S    
C60   H37   S    
C42   O20   S    
C61   H40   S    
C43   H67   S    
O36   Zn7   S    
