data_mof_unit_56996.cif
_audit_creation_date              2012-12-10T17:37:20-0500
_audit_creation_method            fapswitch 2.2
_symmetry_space_group_name_H-M    P1
_symmetry_Int_Tables_number       1
_space_group_crystal_system       triclinic
_cell_length_a                    12.432027
_cell_length_b                    13.261809
_cell_length_c                    15.826244
_cell_angle_alpha                 76.184266
_cell_angle_beta                  101.039543
_cell_angle_gamma                 117.220692
_cell_volume                      2242.94051154

loop_
_atom_site_label
_atom_site_type_symbol
_atom_type_description
_atom_site_fract_x
_atom_site_fract_y
_atom_site_fract_z
_atom_type_partial_charge
C1    C     C_R   0.854973 0.286801 0.507722 0.768861
C2    C     C_3   0.998960 0.498856 0.917124 0.131648
C3    C     C_3   0.070276 0.606201 0.017151 -0.215278
C4    C     C_3   0.999993 0.499457 0.082962 0.135656
C5    C     C_3   0.955834 0.573252 0.950386 -0.248721
C6    C     C_3   0.887724 0.466440 0.017075 0.512295
C7    C     C_1   0.999140 0.498907 0.825376 -0.056534
C8    C     C_1   0.999797 0.499676 0.174714 -0.024260
C9    C     C_R   0.280373 0.025180 0.383040 -0.191726
C10   C     C_R   0.228768 0.835438 0.469515 -0.047415
C11   C     C_R   0.812325 0.083513 0.565731 -0.188651
C12   C     C_R   0.999618 0.499447 0.659832 0.819462
C13   C     C_R   0.732248 0.968076 0.583652 -0.148589
C14   C     C_R   0.610152 0.931324 0.552920 -0.183778
C15   C     C_R   0.566000 0.009644 0.500066 0.079778
C16   C     C_R   0.650925 0.124807 0.473498 0.080260
C17   C     C_R   0.440635 0.977222 0.471855 0.072632
C18   C     C_R   0.403746 0.056288 0.411473 0.163529
C19   C     C_R   0.490514 0.164388 0.378347 -0.237984
C20   C     C_R   0.612345 0.197529 0.407701 -0.188271
C21   C     C_R   0.350389 0.868596 0.502271 -0.251742
C22   C     C_R   0.193220 0.914807 0.411424 -0.195453
C23   C     C_R   0.145045 0.713380 0.487320 0.783479
C24   C     C_R   0.772531 0.163449 0.512808 -0.100069
C25   C     C_R   0.346228 0.332180 0.646283 0.092281
C26   C     C_R   0.753101 0.628607 0.371945 0.092112
C27   C     C_R   0.643858 0.623749 0.328169 -0.264329
C28   C     C_R   0.537975 0.557593 0.369545 -0.200027
C29   C     C_R   0.540973 0.507922 0.459263 0.024789
C30   C     C_R   0.650887 0.499412 0.495112 0.286308
C31   C     C_R   0.439229 0.459008 0.512488 -0.079672
C32   C     C_R   0.443796 0.383795 0.592715 0.115682
C33   C     C_R   0.546680 0.362125 0.618627 -0.263685
C34   C     C_R   0.000210 0.500320 0.340175 0.808009
C35   C     C_R   0.648060 0.420097 0.572039 -0.191590
C36   C     C_R   0.338107 0.488109 0.493820 0.310918
C37   C     C_R   0.248235 0.360732 0.622130 0.021804
C38   C     C_3   0.043349 0.425822 0.049402 -0.212524
C39   C     C_3   0.928684 0.391404 0.982885 -0.251714
C40   C     C_1   0.999346 0.499102 0.749688 -0.185954
C41   C     C_1   0.999954 0.499986 0.250366 -0.174842
C42   C     C_3   0.113609 0.532563 0.982080 -0.123644
Cu1   Cu    Cu3+1 0.098270 0.475420 0.519690 0.928312
Cu2   Cu    Cu3+1 0.901730 0.524580 0.480310 0.925172
H1    H     H_    0.870470 0.303741 0.967529 0.130854
H2    H     H_    0.372136 0.806779 0.550877 0.152176
H3    H     H_    0.905111 0.110649 0.595352 0.153464
H4    H     H_    0.553581 0.840568 0.570148 0.130700
H5    H     H_    0.764245 0.907027 0.624051 0.141584
H6    H     H_    0.675771 0.279896 0.376167 0.182283
H7    H     H_    0.172970 0.322219 0.662084 0.138005
H8    H     H_    0.552126 0.302374 0.677382 0.163892
H9    H     H_    0.834672 0.674782 0.338323 0.126506
H10   H     H_    0.079886 0.366302 0.091349 0.144409
H11   H     H_    0.455423 0.541934 0.327806 0.156240
H12   H     H_    0.640138 0.665648 0.260700 0.145560
H13   H     H_    0.721119 0.396960 0.597136 0.202178
H14   H     H_    0.919656 0.633161 0.908655 0.132619
H15   H     H_    0.128745 0.693671 0.032810 0.144857
H16   H     H_    0.207121 0.559919 0.965910 0.135128
H17   H     H_    0.099273 0.890150 0.385187 0.148643
H18   H     H_    0.464173 0.223741 0.329333 0.148470
H19   H     H_    0.251810 0.085135 0.336798 0.132736
N1    N     N_R   0.246280 0.438200 0.549540 -0.198079
N2    N     N_R   0.754330 0.561180 0.450980 -0.210837
O1    O     O_R   0.972510 0.318130 0.524770 -0.576090
O2    O     O_R   0.806530 0.359650 0.491510 -0.598112
O3    O     O_R   0.082970 0.479240 0.637550 -0.574449
O4    O     O_R   0.916990 0.520750 0.604290 -0.592353
O5    O     O_R   0.193470 0.640350 0.508490 -0.593263
O6    O     O_R   0.027490 0.681870 0.475230 -0.582104
O7    O     O_R   0.083010 0.479250 0.395710 -0.578748
O8    O     O_R   0.917030 0.520760 0.362450 -0.583079
C43   C     C_3   0.345122 0.248261 0.729952 -0.914825
H20   H     H_    0.423671 0.290846 0.776459 0.232977
H21   H     H_    0.261093 0.216442 0.762530 0.227553
H22   H     H_    0.349875 0.172476 0.715652 0.243374
C44   C     C_3   0.335453 0.577821 0.414637 -0.771096
H23   H     H_    0.279922 0.620675 0.413469 0.267715
H24   H     H_    0.426039 0.652114 0.408766 0.197084
H25   H     H_    0.297437 0.536743 0.355754 0.199932
O9    O     O_3   0.771033 0.432283 0.041601 -0.579675
C45   C     C_3   0.684827 0.406943 0.968242 0.061497
H26   H     H_    0.682646 0.335018 0.942249 0.135850
H27   H     H_    0.704924 0.484021 0.915672 0.138483
C46   C     C_3   0.559363 0.370234 0.995199 -0.780541
H28   H     H_    0.557863 0.440751 0.020542 0.247770
H29   H     H_    0.490656 0.350105 0.937907 0.194966
H30   H     H_    0.535634 0.292371 0.046937 0.249209

loop_
_geom_bond_atom_site_label_1
_geom_bond_atom_site_label_2
_ccdc_geom_bond_type
C12   O4    A    
C3    C42   S    
Cu1   O7    S    
C6    O9    S    
C11   H3    S    
C19   C20   A    
C4    C8    S    
C10   C22   A    
C33   H8    S    
C12   O3    A    
C26   C27   A    
C43   H21   S    
C5    H14   S    
C28   C29   A    
C38   C42   S    
C31   C36   A    
C5    C6    S    
C37   H7    S    
C44   H24   S    
C9    C22   A    
C19   H18   S    
C15   C16   A    
C11   C24   A    
Cu2   O6    S    
C25   C43   S    
C20   H6    S    
C2    C7    S    
C25   C37   A    
C2    C39   S    
C31   C32   A    
Cu1   O3    S    
C43   H22   S    
C7    C40   T    
C39   H1    S    
C25   C32   A    
C16   C24   A    
C9    H19   S    
C13   C14   A    
C23   O5    A    
Cu2   N2    S    
C34   C41   S    
C28   H11   S    
Cu1   N1    S    
C1    O1    A    
C10   C21   A    
C43   H20   S    
C23   O6    A    
C8    C41   T    
C4    C6    S    
C42   H16   S    
C44   H23   S    
C18   C19   A    
C14   H4    S    
C17   C21   A    
C12   C40   S    
Cu1   Cu2   S    
C29   C30   A    
C45   H26   S    
C38   H10   S    
C16   C20   A    
C14   C15   A    
C17   C18   A    
Cu2   O4    S    
C13   H5    S    
C30   C35   A    
C45   H27   S    
C4    C38   S    
Cu1   O5    S    
C2    C5    S    
C3    C4    S    
C26   H9    S    
C34   O7    A    
C37   N1    A    
C46   H28   S    
C21   H2    S    
C15   C17   A    
C27   H12   S    
C26   N2    A    
C3    C5    S    
C46   H30   S    
C1    O2    A    
C10   C23   S    
C35   H13   S    
C32   C33   A    
C29   C31   A    
C36   C44   S    
C22   H17   S    
C11   C13   A    
C44   H25   S    
C38   C39   S    
C2    C42   S    
Cu1   O1    S    
C33   C35   A    
C46   H29   S    
Cu2   O8    S    
C30   N2    A    
C34   O8    A    
C9    C18   A    
C45   C46   S    
C1    C24   S    
O9    C45   S    
C27   C28   A    
C6    C39   S    
Cu2   O2    S    
C36   N1    A    
C3    H15   S    
