data_mof_unit_23851.cif
_audit_creation_date              2012-12-11T15:06:38-0500
_audit_creation_method            fapswitch 2.2
_symmetry_space_group_name_H-M    P1
_symmetry_Int_Tables_number       1
_space_group_crystal_system       triclinic
_cell_length_a                    7.240606
_cell_length_b                    14.828813
_cell_length_c                    22.543827
_cell_angle_alpha                 89.999729
_cell_angle_beta                  89.998023
_cell_angle_gamma                 88.68616
_cell_volume                      2419.885159

loop_
_atom_site_label
_atom_site_type_symbol
_atom_type_description
_atom_site_fract_x
_atom_site_fract_y
_atom_site_fract_z
_atom_type_partial_charge
O1    O     O_R   0.390810 0.844810 0.447340 -0.532930
O2    O     O_R   0.109190 0.155190 0.947340 -0.532924
O3    O     O_R   0.890810 0.655190 0.552660 -0.535653
O4    O     O_R   0.609190 0.344810 0.052660 -0.535654
O5    O     O_R   0.720550 0.655820 0.440420 -0.537606
O6    O     O_R   0.779450 0.344180 0.940420 -0.537606
O7    O     O_R   0.220550 0.844180 0.559580 -0.535847
O8    O     O_R   0.279450 0.155820 0.059580 -0.535846
C1    C     C_R   0.554070 0.626731 0.426038 0.677378
C2    C     C_R   0.945933 0.373266 0.926037 0.677366
C3    C     C_R   0.050343 0.873078 0.573920 0.678530
C4    C     C_R   0.449652 0.126923 0.073921 0.678542
O9    O     O_R   0.720530 0.844130 0.440420 -0.536409
O10   O     O_R   0.779470 0.155870 0.940420 -0.536413
O11   O     O_R   0.220530 0.655870 0.559580 -0.535034
O12   O     O_R   0.279470 0.344130 0.059580 -0.535035
O13   O     O_R   0.890830 0.844810 0.552660 -0.535929
O14   O     O_R   0.609170 0.155190 0.052660 -0.535928
O15   O     O_R   0.390830 0.655190 0.447340 -0.533859
O16   O     O_R   0.109170 0.344810 0.947340 -0.533858
C5    C     C_R   0.550512 0.873153 0.426208 0.702479
C6    C     C_R   0.949496 0.126849 0.926208 0.702476
C7    C     C_R   0.053960 0.626820 0.573975 0.698315
C8    C     C_R   0.446036 0.373178 0.073977 0.698304
O17   O     O_3   0.557310 0.749980 0.536820 -0.374440
O18   O     O_3   0.942690 0.250020 0.036820 -0.374442
O19   O     O_3   0.057310 0.750020 0.463180 -0.373179
O20   O     O_3   0.442690 0.249980 0.963180 -0.373178
V1    V     V_3+5 0.832160 0.749980 0.493170 1.426931
V2    V     V_3+5 0.667840 0.250020 0.993170 1.426922
V3    V     V_3+5 0.332160 0.750020 0.506830 1.432975
V4    V     V_3+5 0.167840 0.249980 0.006830 1.432986
C9    C     C_R   0.834441 0.597368 0.855448 -0.133744
C10   C     C_R   0.665545 0.402623 0.355451 -0.133500
C11   C     C_R   0.542703 0.895533 0.136115 -0.141084
C12   C     C_R   0.956902 0.104435 0.636114 -0.141070
H1    H     H_    0.805830 0.540384 0.942102 0.106267
H2    H     H_    0.694155 0.459607 0.442105 0.106244
H3    H     H_    0.515313 0.952215 0.049101 0.105425
H4    H     H_    0.984294 0.047754 0.549099 0.105361
H5    H     H_    0.806068 0.718180 0.769490 0.130311
H6    H     H_    0.694022 0.281833 0.269482 0.130338
H7    H     H_    0.604889 0.772040 0.218740 0.131583
H8    H     H_    0.894510 0.227905 0.718740 0.131583
H9    H     H_    0.765894 0.659990 0.868464 0.127160
H10   H     H_    0.734078 0.339998 0.368467 0.127428
H11   H     H_    0.576210 0.828995 0.118851 0.127377
H12   H     H_    0.923206 0.170953 0.618850 0.127305
C13   C     C_R   0.943955 0.447422 0.882303 -0.035104
C14   C     C_R   0.556048 0.552572 0.382306 -0.035125
C15   C     C_R   0.466513 0.052448 0.116990 -0.028819
C16   C     C_R   0.033449 0.947556 0.616986 -0.028816
C17   C     C_R   0.133255 0.469123 0.597854 -0.267561
C18   C     C_R   0.366644 0.530859 0.097869 -0.267549
C19   C     C_R   0.500977 0.034853 0.407886 -0.270275
C20   C     C_R   0.999439 0.965178 0.907887 -0.270064
C21   C     C_R   0.154419 0.395520 0.636874 0.520238
C22   C     C_R   0.345397 0.604449 0.136896 0.520181
C23   C     C_R   0.473552 0.110526 0.370987 0.523050
C24   C     C_R   0.027054 0.889525 0.870990 0.522997
C25   C     C_R   0.106913 0.407000 0.696513 -0.229971
C26   C     C_R   0.392925 0.592967 0.196532 -0.229963
C27   C     C_R   0.470062 0.098206 0.309471 -0.231360
C28   C     C_R   0.030385 0.901827 0.809473 -0.231444
C29   C     C_R   0.028915 0.488885 0.718182 0.006592
C30   C     C_R   0.471026 0.511100 0.218191 0.006619
C31   C     C_R   0.502302 0.012552 0.283199 0.005111
C32   C     C_R   0.997800 0.987455 0.783199 0.005130
C33   C     C_R   0.000529 0.561552 0.677103 0.069083
C34   C     C_R   0.499465 0.438445 0.177107 0.069097
C35   C     C_R   0.538020 0.937324 0.321594 0.067177
C36   C     C_R   0.961899 0.062666 0.821594 0.067178
C37   C     C_R   0.978279 0.500978 0.779309 0.096541
C38   C     C_R   0.521695 0.499011 0.279315 0.096514
C39   C     C_R   0.499809 0.999011 0.220120 0.097812
C40   C     C_R   0.000167 0.000989 0.720118 0.097816
C41   C     C_R   0.894487 0.584403 0.796903 0.153460
C42   C     C_R   0.605514 0.415592 0.296905 0.153402
C43   C     C_R   0.538508 0.911067 0.197469 0.150120
C44   C     C_R   0.961212 0.088910 0.697467 0.150153
C45   C     C_R   0.868656 0.654323 0.755950 -0.191057
C46   C     C_R   0.631391 0.345682 0.255947 -0.191027
C47   C     C_R   0.574765 0.838998 0.235991 -0.184019
C48   C     C_R   0.924811 0.160964 0.735990 -0.184060
C49   C     C_R   0.922336 0.643556 0.697219 -0.186904
C50   C     C_R   0.577716 0.356450 0.197216 -0.186954
C51   C     C_R   0.573087 0.851586 0.296991 -0.179443
C52   C     C_R   0.926572 0.148381 0.796991 -0.179488
C53   C     C_R   0.004553 0.433219 0.823647 -0.219820
C54   C     C_R   0.495433 0.566772 0.323653 -0.219810
C55   C     C_R   0.462575 0.069313 0.178405 -0.218852
C56   C     C_R   0.037517 0.930701 0.678402 -0.218869
C57   C     C_R   0.857590 0.529392 0.897516 -0.178287
C58   C     C_R   0.642400 0.470600 0.397519 -0.178278
C59   C     C_R   0.507655 0.965564 0.096310 -0.182615
C60   C     C_R   0.992065 0.034416 0.596308 -0.182611
C61   C     C_R   0.055306 0.551221 0.616936 -0.134931
C62   C     C_R   0.444670 0.448774 0.116942 -0.134926
C63   C     C_R   0.535137 0.949227 0.384036 -0.130953
C64   C     C_R   0.964919 0.050774 0.884038 -0.131050
H13   H     H_    0.066040 0.368054 0.813887 0.101212
H14   H     H_    0.433954 0.631938 0.313893 0.101197
H15   H     H_    0.433963 0.137931 0.191896 0.095799
H16   H     H_    0.066286 0.862097 0.691894 0.095817
H17   H     H_    0.180582 0.463781 0.552419 0.116799
H18   H     H_    0.319308 0.536196 0.052436 0.116785
H19   H     H_    0.492510 0.041428 0.455615 0.113437
H20   H     H_    0.008095 0.958603 0.955613 0.113520
H21   H     H_    0.132340 0.349610 0.724842 0.135049
H22   H     H_    0.367407 0.650338 0.224869 0.135037
H23   H     H_    0.442333 0.157786 0.283354 0.135804
H24   H     H_    0.058302 0.842260 0.783359 0.135835
H25   H     H_    0.900276 0.700122 0.667509 0.116367
H26   H     H_    0.599818 0.299892 0.167503 0.116381
H27   H     H_    0.601037 0.793355 0.324826 0.105670
H28   H     H_    0.898500 0.206600 0.824826 0.105742
O21   O     O_3   0.235639 0.313170 0.620553 -0.551093
C65   C     C_3   0.187933 0.287698 0.562286 -0.268355
H29   H     H_    0.276537 0.321924 0.529457 0.146459
H30   H     H_    0.038806 0.300616 0.552528 0.123719
H31   H     H_    0.214608 0.214123 0.557494 0.168043
O22   O     O_3   0.264079 0.686785 0.120591 -0.551126
C66   C     C_3   0.311574 0.712253 0.062303 -0.268162
H32   H     H_    0.222900 0.677995 0.029511 0.146399
H33   H     H_    0.460683 0.699370 0.052496 0.123734
H34   H     H_    0.284807 0.785822 0.057509 0.168087
O23   O     O_3   0.433335 0.196784 0.392541 -0.550842
C67   C     C_3   0.533996 0.216052 0.444515 -0.284878
H35   H     H_    0.682193 0.194989 0.440628 0.132167
H36   H     H_    0.469346 0.184995 0.483937 0.141215
H37   H     H_    0.528760 0.289963 0.451850 0.164911
O24   O     O_3   0.067725 0.803337 0.892571 -0.550791
C68   C     C_3   0.966350 0.783843 0.944359 -0.284891
H38   H     H_    0.818078 0.804617 0.940218 0.132175
H39   H     H_    0.030025 0.815002 0.983901 0.141139
H40   H     H_    0.972082 0.709933 0.951683 0.164958

loop_
_geom_bond_atom_site_label_1
_geom_bond_atom_site_label_2
_ccdc_geom_bond_type
O17   V3    S    
C47   C51   A    
C22   C26   A    
C19   C23   A    
O19   V1    S    
C9    H9    S    
O3    C7    A    
H6    C46   S    
C44   C48   A    
C25   H21   S    
C67   H35   S    
C24   O24   S    
C36   C64   A    
C29   C37   A    
C66   H32   S    
O1    C5    A    
C8    C62   S    
C28   C32   A    
O9    V1    S    
H4    C60   S    
C18   C22   A    
O4    C8    A    
C29   C33   A    
C66   H33   S    
C23   O23   S    
C30   C38   A    
O1    V3    S    
H7    C47   S    
O2    V4    S    
C11   C43   A    
O3    V1    S    
C12   C60   A    
C65   H29   S    
C20   H20   S    
C3    C16   S    
C15   C55   A    
C1    O15   A    
C54   H14   S    
C2    O16   A    
O24   C68   S    
O2    C6    A    
C68   H40   S    
C16   C60   A    
O14   V2    S    
C51   H27   S    
C39   C55   A    
C53   H13   S    
O11   C7    A    
O15   V3    S    
O12   C8    A    
O10   V2    S    
C36   C52   A    
C14   C54   A    
O5    V1    S    
C27   C31   A    
C22   O22   S    
O7    V3    S    
C18   H18   S    
H1    C57   S    
O8    V4    S    
C40   C44   A    
C6    C64   S    
C12   C44   A    
C13   C53   A    
C26   C30   A    
O18   V4    S    
C14   C58   A    
C66   H34   S    
C17   C61   A    
C46   C50   A    
C35   C63   A    
O4    V2    S    
C20   C24   A    
C19   H19   S    
C32   C36   A    
C65   H31   S    
C52   H28   S    
O7    C3    A    
O5    C1    A    
C25   C29   A    
C42   C46   A    
C26   H22   S    
C41   C45   A    
O8    C4    A    
H5    C45   S    
H2    C58   S    
O9    C5    A    
O11   V3    S    
H3    C59   S    
C40   C56   A    
C10   H10   S    
C7    C61   S    
C10   C58   A    
C11   C59   A    
C68   H38   S    
C35   C51   A    
C16   C56   A    
C32   C40   A    
C20   C64   A    
C19   C63   A    
O23   C67   S    
C34   C50   A    
C67   H37   S    
C4    C15   S    
C33   C49   A    
C21   O21   S    
O16   V4    S    
C3    O13   A    
C17   C21   A    
O6    V2    S    
C1    C14   S    
C48   C52   A    
C55   H15   S    
H8    C48   S    
C9    C57   A    
O6    C2    A    
C21   C25   A    
C67   H36   S    
O12   V4    S    
C23   C27   A    
C50   H26   S    
C24   C28   A    
O10   C6    A    
C49   H25   S    
O22   C66   S    
C37   C53   A    
O13   V1    S    
C10   C42   A    
C43   C47   A    
C9    C41   A    
C30   C34   A    
C5    C63   S    
C38   C54   A    
O20   V2    S    
C12   H12   S    
C31   C35   A    
C27   H23   S    
C65   H30   S    
C28   H24   S    
C56   H16   S    
C17   H17   S    
C31   C39   A    
C38   C42   A    
C4    O14   A    
C68   H39   S    
C37   C41   A    
C18   C62   A    
C13   C57   A    
C11   H11   S    
O21   C65   S    
C2    C13   S    
C39   C43   A    
C45   C49   A    
C34   C62   A    
C15   C59   A    
C33   C61   A    
