data_mof_unit_29756.cif
_audit_creation_date              2013-03-05T16:06:15-0500
_audit_creation_method            fapswitch 2.2
_symmetry_space_group_name_H-M    P1
_symmetry_Int_Tables_number       1
_space_group_crystal_system       triclinic
_cell_length_a                    10.844642
_cell_length_b                    9.500965
_cell_length_c                    27.727469
_cell_angle_alpha                 90.148995
_cell_angle_beta                  90.090852
_cell_angle_gamma                 89.938791
_cell_volume                      2856.87281255

loop_
_atom_site_label
_atom_site_type_symbol
_atom_site_description
_atom_site_fract_x
_atom_site_fract_y
_atom_site_fract_z
_atom_type_partial_charge
O1    O     O_R   0.319640 0.618740 0.500000 -0.587512
O2    O     O_R   0.680360 0.381260 0.500000 -0.587466
O3    O     O_R   0.680360 0.618740 0.500000 -0.589709
O4    O     O_R   0.319640 0.381260 0.500000 -0.588783
C1    C     C_R   0.261989 0.500043 0.499965 0.798242
C2    C     C_R   0.738011 0.499957 0.500027 0.795682
O5    O     O_R   0.500020 0.618770 0.430260 -0.582464
O6    O     O_R   0.499980 0.381230 0.569740 -0.584361
O7    O     O_R   0.499980 0.618770 0.569740 -0.581725
O8    O     O_R   0.500020 0.381230 0.430260 -0.581281
C3    C     C_R   0.499358 0.499701 0.407338 0.835588
C4    C     C_R   0.500062 0.500147 0.592700 0.832774
Cu1   Cu    Cu3+1 0.500000 0.640660 0.500000 0.957528
Cu2   Cu    Cu3+1 0.500000 0.359340 0.500000 0.959115
C5    C     C_R   0.399621 0.551628 0.176492 0.615683
C6    C     C_R   0.602387 0.469115 0.823492 0.621514
O9    O     O_2   0.308891 0.618330 0.200759 -0.506874
O10   O     O_2   0.709745 0.456642 0.799299 -0.499904
N1    N     N_R   0.494646 0.490128 0.201241 -0.456747
N2    N     N_R   0.495302 0.493879 0.798784 -0.456839
C7    C     C_R   0.589565 0.424499 0.177689 0.651495
C8    C     C_R   0.384665 0.505860 0.822089 0.648802
C9    C     C_R   0.523153 0.615866 0.277555 -0.142526
C10   C     C_R   0.495841 0.372113 0.721331 -0.134984
C11   C     C_R   0.524172 0.619523 0.327822 -0.194341
C12   C     C_R   0.496955 0.372483 0.671160 -0.185240
C13   C     C_R   0.465932 0.373340 0.329647 -0.259732
C14   C     C_R   0.502625 0.627625 0.671732 -0.292316
C15   C     C_R   0.462171 0.369333 0.279255 0.469965
C16   C     C_R   0.502424 0.628123 0.722265 0.421876
C17   C     C_R   0.493185 0.491394 0.252993 0.212871
C18   C     C_R   0.498108 0.498883 0.747120 0.227699
C19   C     C_R   0.489267 0.470933 0.101246 -0.044436
C20   C     C_R   0.488103 0.469693 0.898589 -0.048268
C21   C     C_R   0.395178 0.543448 0.125978 -0.014017
C22   C     C_R   0.600846 0.456327 0.873888 -0.018301
C23   C     C_R   0.299463 0.606216 0.099741 -0.102787
C24   C     C_R   0.709273 0.432481 0.900055 -0.093973
C25   C     C_R   0.587662 0.411637 0.127251 -0.079626
C26   C     C_R   0.379171 0.495552 0.872556 -0.078731
C27   C     C_R   0.496717 0.497870 0.354251 -0.118715
C28   C     C_R   0.499937 0.500185 0.645865 -0.105184
H1    H     H_    0.443428 0.279318 0.349776 0.202130
H2    H     H_    0.504845 0.726651 0.652542 0.191941
H3    H     H_    0.228620 0.667416 0.117637 0.202007
H4    H     H_    0.797538 0.427116 0.882036 0.187394
C29   C     C_R   0.373312 0.485676 0.974370 -0.060624
C30   C     C_R   0.585620 0.396778 0.025475 -0.062052
C31   C     C_R   0.592593 0.419263 0.974994 0.070503
C32   C     C_R   0.381218 0.509270 0.024808 0.081597
C33   C     C_R   0.484504 0.457743 0.949378 0.050043
C34   C     C_R   0.485293 0.458620 0.050448 0.051017
C35   C     C_R   0.261491 0.491757 0.947376 0.346593
C36   C     C_R   0.674516 0.319440 0.052541 0.336323
C37   C     C_R   0.266690 0.502948 0.897105 -0.165713
C38   C     C_R   0.677751 0.333886 0.102751 -0.156963
O11   O     O_2   0.280376 0.526497 0.796433 -0.487460
O12   O     O_2   0.684973 0.371186 0.203082 -0.489451
C39   C     C_R   0.293677 0.590971 0.049842 -0.086158
C40   C     C_R   0.705342 0.415685 0.949898 -0.066968
H5    H     H_    0.494961 0.272648 0.652232 0.183568
H6    H     H_    0.547998 0.716876 0.345965 0.179622
H7    H     H_    0.492802 0.272808 0.740390 0.197630
H8    H     H_    0.546166 0.709915 0.257519 0.184321
H9    H     H_    0.181535 0.512068 0.876919 0.200869
H10   H     H_    0.747841 0.277943 0.122952 0.207678
H11   H     H_    0.221883 0.646958 0.030923 0.202255
H12   H     H_    0.791843 0.405041 0.968762 0.223588
C41   C     C_R   0.063947 0.372134 0.499863 -0.165041
C42   C     C_R   0.936056 0.627864 0.500111 -0.169158
C43   C     C_R   0.936317 0.372084 0.499915 -0.166614
C44   C     C_R   0.063685 0.627914 0.500060 -0.166035
H13   H     H_    0.112043 0.272144 0.499757 0.152918
H14   H     H_    0.887960 0.727854 0.500216 0.152092
H15   H     H_    0.888426 0.272082 0.499861 0.152399
H16   H     H_    0.111576 0.727916 0.500115 0.152945
C45   C     C_R   0.871829 0.499947 0.500029 -0.021610
C46   C     C_R   0.128173 0.500051 0.499951 -0.021055
C47   C     C_R   0.423774 0.074353 0.469836 -0.010078
C48   C     C_R   0.576211 0.925650 0.530169 -0.013828
C49   C     C_R   0.576220 0.074611 0.530165 -0.014680
C50   C     C_R   0.423757 0.925392 0.469844 -0.012280
H17   H     H_    0.362778 0.130524 0.445690 0.129504
H18   H     H_    0.637200 0.869482 0.554317 0.121903
H19   H     H_    0.637235 0.130987 0.554305 0.123415
H20   H     H_    0.362716 0.869019 0.445714 0.129534
N3    N     N_R   0.500000 0.852070 0.500000 -0.162959
N4    N     N_R   0.500000 0.147930 0.500000 -0.162875
S1    S     S_3+6 0.417084 0.211164 0.250339 0.031582
O13   O     O_2   0.335902 0.242912 0.207742 -0.258882
O14   O     O_2   0.530206 0.134199 0.233413 -0.252732
O15   O     O_3   0.339629 0.108300 0.289170 -0.546394
H21   H     H_    0.322555 0.020450 0.271029 0.389871
S2    S     S_3+6 0.507176 0.790610 0.753501 0.048409
O16   O     O_2   0.383808 0.817435 0.776331 -0.199951
O17   O     O_2   0.603591 0.785687 0.792467 -0.256057
O18   O     O_3   0.539058 0.923655 0.715602 -0.530703
H22   H     H_    0.626514 0.909809 0.706453 0.346453
S3    S     S_3+6 0.115059 0.449220 0.972015 0.036397
O19   O     O_2   0.128195 0.375212 0.019586 -0.199374
O20   O     O_2   0.039903 0.580871 0.978744 -0.299884
O21   O     O_3   0.040268 0.340965 0.933818 -0.456767
H23   H     H_    0.002632 0.403353 0.909355 0.338784
S4    S     S_3+6 0.760983 0.177016 0.028245 0.059643
O22   O     O_2   0.706636 0.126369 0.981426 -0.216398
O23   O     O_2   0.892088 0.221937 0.020125 -0.210321
O24   O     O_3   0.759888 0.042177 0.067526 -0.476192
H24   H     H_    0.834331 0.054994 0.087808 0.368335

loop_
_geom_bond_atom_site_label_1
_geom_bond_atom_site_label_2
_geom_bond_distance
_ccdc_geom_bond_type
C47   H17   1.081815 S    
C13   C15   1.398200 A    
C44   H16   1.083281 S    
O3    C2    1.289579 A    
N1    C17   1.435095 S    
C8    O11   1.349558 S    
S4    O23   1.502378 D    
O18   H22   0.990699 S    
C35   S3    1.777092 S    
C19   C34   1.413647 A    
C30   C36   1.425344 A    
C20   C33   1.413709 A    
C19   C25   1.405103 A    
C31   C40   1.408147 A    
O1    C1    1.290026 A    
C32   C39   1.408307 A    
C36   S4    1.777285 S    
N1    C7    1.368758 A    
C12   H5    1.083075 S    
C10   C12   1.391206 A    
C48   N3    1.366573 A    
C50   N3    1.366634 A    
C5    C21   1.403349 A    
C41   C43   1.384103 A    
O7    Cu1   1.945404 S    
C47   N4    1.366573 A    
C4    C28   1.474138 S    
C39   H11   1.078691 S    
C5    N1    1.368509 A    
C25   C38   1.399867 A    
C31   C33   1.417730 A    
C42   H14   1.083279 S    
C32   C34   1.417366 A    
O24   H24   0.990579 S    
C41   H13   1.083280 S    
S1    O14   1.502686 D    
O3    Cu1   1.966775 S    
O6    C4    1.295389 A    
C29   C35   1.425225 A    
Cu1   Cu2   2.672811 S    
C42   C45   1.401416 A    
C41   C46   1.401414 A    
O2    C2    1.290024 A    
C15   S1    1.770373 S    
S4    O22   1.503011 D    
C37   H9    1.082612 S    
C29   C32   1.418287 A    
C35   C37   1.399440 A    
C36   C38   1.398976 A    
C43   H15   1.083281 S    
C48   H18   1.081787 S    
O8    Cu2   1.945404 S    
C11   C27   1.402633 A    
O4    C1    1.289574 A    
C2    C45   1.451209 S    
C29   C33   1.416224 A    
S2    O18   1.682450 S    
C50   H20   1.081754 S    
C14   H2    1.082387 S    
C9    C17   1.401393 A    
O5    C3    1.296156 A    
C10   C18   1.399318 A    
C13   C27   1.404497 A    
S3    O19   1.502834 D    
C7    C25   1.403651 A    
C30   C34   1.416815 A    
C6    N2    1.367869 A    
C26   C37   1.399438 A    
C8    C26   1.404376 A    
Cu1   N3    2.008599 S    
S2    O16   1.502236 D    
S1    O15   1.682258 S    
S2    O17   1.503131 D    
C23   C39   1.392100 A    
C24   C40   1.392357 A    
C6    O10   1.349561 S    
C9    H8    1.082979 S    
S3    O20   1.503570 D    
N2    C8    1.368164 A    
C10   H7    1.083164 S    
C20   C26   1.405178 A    
O1    Cu1   1.967217 S    
C23   H3    1.083184 S    
C22   C24   1.399270 A    
C43   C45   1.401094 A    
C12   C28   1.403433 A    
N2    C18   1.433799 S    
C5    O9    1.349449 S    
C30   C31   1.418611 A    
O6    Cu2   1.944328 S    
C21   C23   1.400286 A    
C48   C49   1.415277 A    
C47   C50   1.415281 A    
C14   C16   1.401153 A    
S1    O13   1.503027 D    
Cu2   N4    2.008600 S    
C7    O12   1.349533 S    
C15   C17   1.412182 A    
C6    C22   1.403073 A    
C16   C18   1.410499 A    
C38   H10   1.083191 S    
C14   C28   1.405989 A    
O15   H21   0.990854 S    
C19   C21   1.408660 A    
C3    C27   1.472273 S    
C20   C22   1.407818 A    
C11   H6    1.083075 S    
C9    C11   1.394162 A    
O4    Cu2   1.966775 S    
O21   H23   0.989301 S    
O2    Cu2   1.967217 S    
O7    C4    1.295842 A    
C24   H4    1.081528 S    
C49   N4    1.366618 A    
O8    C3    1.294080 A    
C13   H1    1.082836 S    
O5    Cu1   1.944328 S    
S3    O21   1.682496 S    
C40   H12   1.078088 S    
C16   S2    1.768930 S    
C44   C46   1.401089 A    
C42   C44   1.384101 A    
C1    C46   1.451192 S    
S4    O24   1.683742 S    
C49   H19   1.081767 S    
