data_mof_unit_51109.cif
_audit_creation_date              2012-12-10T16:43:26-0500
_audit_creation_method            fapswitch 2.2
_symmetry_space_group_name_H-M    P1
_symmetry_Int_Tables_number       1
_space_group_crystal_system       triclinic
_cell_length_a                    12.094031
_cell_length_b                    12.121618
_cell_length_c                    23.567819
_cell_angle_alpha                 90.03652
_cell_angle_beta                  89.863977
_cell_angle_gamma                 89.728284
_cell_volume                      3454.97465904

loop_
_atom_site_label
_atom_site_type_symbol
_atom_type_description
_atom_site_fract_x
_atom_site_fract_y
_atom_site_fract_z
_atom_type_partial_charge
C1    C     C_3   0.000642 0.004030 0.249665 -0.006922
C2    C     C_3   0.000985 0.998335 0.750386 -0.019878
C3    C     C_R   0.005707 0.105137 0.209927 0.045059
C4    C     C_R   0.000213 0.898216 0.790240 0.045630
C5    C     C_R   0.900191 0.999919 0.710126 0.053227
C6    C     C_R   0.102647 0.000328 0.288966 0.045800
C7    C     C_R   0.996871 0.902268 0.209236 0.039646
C8    C     C_R   0.001371 0.097572 0.791286 0.056839
C9    C     C_R   0.100896 0.997417 0.709537 0.051533
C10   C     C_R   0.899046 0.008048 0.290056 0.047673
C11   C     C_R   0.998994 0.647653 0.919715 0.766182
C12   C     C_R   0.000033 0.348669 0.077955 0.780569
C13   C     C_R   0.351336 0.999362 0.420128 0.773508
C14   C     C_R   0.649789 0.000804 0.579377 0.774270
C15   C     C_R   0.000960 0.350406 0.920508 0.779101
C16   C     C_R   0.999288 0.651826 0.078240 0.786918
C17   C     C_R   0.652603 0.999597 0.422398 0.773889
C18   C     C_R   0.347749 0.000005 0.577770 0.775274
C19   C     C_R   0.080271 0.100718 0.164119 -0.184493
C20   C     C_R   0.909090 0.885227 0.826076 -0.168712
C21   C     C_R   0.887120 0.091073 0.674413 -0.165816
C22   C     C_R   0.111799 0.912906 0.327317 -0.186648
C23   C     C_R   0.915592 0.900663 0.166939 -0.185360
C24   C     C_R   0.091680 0.110084 0.827531 -0.173571
C25   C     C_R   0.106342 0.912815 0.669023 -0.171613
C26   C     C_R   0.902006 0.081048 0.336335 -0.193999
C27   C     C_R   0.089005 0.824311 0.795283 -0.205982
C28   C     C_R   0.934199 0.196695 0.213890 -0.217339
C29   C     C_R   0.812071 0.931050 0.288230 -0.190362
C30   C     C_R   0.178060 0.083451 0.705789 -0.227057
C31   C     C_R   0.911160 0.169493 0.797685 -0.225023
C32   C     C_R   0.078913 0.819781 0.207476 -0.226103
C33   C     C_R   0.179861 0.086362 0.292376 -0.193566
C34   C     C_R   0.827866 0.910571 0.703516 -0.234894
C35   C     C_R   0.068273 0.170125 0.117523 0.065121
C36   C     C_R   0.899930 0.796440 0.863378 0.055946
C37   C     C_R   0.802087 0.098248 0.634394 0.038638
C38   C     C_R   0.201898 0.902437 0.363772 0.047993
C39   C     C_R   0.913523 0.820833 0.123839 0.040825
C40   C     C_R   0.099156 0.197249 0.866192 0.032212
C41   C     C_R   0.178598 0.917404 0.622656 0.058157
C42   C     C_R   0.832099 0.068039 0.382927 0.078811
C43   C     C_R   0.084629 0.734457 0.832476 0.078176
C44   C     C_R   0.936289 0.280392 0.172881 0.052894
C45   C     C_R   0.727812 0.929770 0.329453 0.048330
C46   C     C_R   0.263641 0.080670 0.666020 0.062474
C47   C     C_R   0.913224 0.257362 0.835959 0.078029
C48   C     C_R   0.077487 0.734791 0.167394 0.119330
C49   C     C_R   0.263971 0.086782 0.333376 0.053799
C50   C     C_R   0.740975 0.913780 0.664626 0.067504
C51   C     C_R   0.000716 0.265201 0.122993 -0.082242
C52   C     C_R   0.994549 0.726401 0.871344 -0.115240
C53   C     C_R   0.731599 0.004393 0.626544 -0.113547
C54   C     C_R   0.271371 0.996434 0.372087 -0.127419
C55   C     C_R   0.996639 0.736472 0.123674 -0.121977
C56   C     C_R   0.004617 0.267980 0.873709 -0.095954
C57   C     C_R   0.262519 0.999379 0.622598 -0.104616
C58   C     C_R   0.738665 0.998792 0.377890 -0.095507
Cu1   Cu    Cu3+1 0.889520 0.500000 0.000000 0.903064
Cu2   Cu    Cu3+1 0.110480 0.500000 0.000000 0.895461
Cu3   Cu    Cu3+1 0.500000 0.889520 0.500000 0.900907
Cu4   Cu    Cu3+1 0.500000 0.110480 0.500000 0.903710
H1    H     H_    0.139464 0.033521 0.161584 0.150559
H2    H     H_    0.843327 0.945410 0.822875 0.143964
H3    H     H_    0.945220 0.157535 0.679561 0.145484
H4    H     H_    0.049257 0.849610 0.325823 0.146719
H5    H     H_    0.854930 0.966134 0.168132 0.146168
H6    H     H_    0.158018 0.050836 0.823344 0.143095
H7    H     H_    0.047310 0.846657 0.672485 0.139451
H8    H     H_    0.968226 0.140650 0.339092 0.142907
H9    H     H_    0.162916 0.835450 0.770196 0.145256
H10   H     H_    0.877669 0.205872 0.249057 0.149761
H11   H     H_    0.810226 0.869781 0.255590 0.146518
H12   H     H_    0.174105 0.154077 0.733543 0.150521
H13   H     H_    0.837143 0.157953 0.773001 0.143261
H14   H     H_    0.146756 0.819797 0.236784 0.150321
H15   H     H_    0.171390 0.156235 0.264699 0.148125
H16   H     H_    0.837488 0.836473 0.728434 0.148376
O1    O     O_R   0.907020 0.615090 0.941240 -0.601512
O2    O     O_R   0.092980 0.384910 0.058760 -0.596708
O3    O     O_R   0.384910 0.907020 0.441240 -0.604077
O4    O     O_R   0.615090 0.092980 0.558760 -0.608857
O5    O     O_R   0.092980 0.384910 0.941240 -0.613298
O6    O     O_R   0.907020 0.615090 0.058760 -0.601615
O7    O     O_R   0.615090 0.092980 0.441240 -0.588499
O8    O     O_R   0.384910 0.907020 0.558760 -0.597395
O9    O     O_R   0.907020 0.384910 0.058760 -0.578638
O10   O     O_R   0.092980 0.615090 0.941240 -0.588530
O11   O     O_R   0.384910 0.092980 0.558760 -0.578855
O12   O     O_R   0.615090 0.907020 0.441240 -0.591045
O13   O     O_R   0.092980 0.615090 0.058760 -0.575336
O14   O     O_R   0.907020 0.384910 0.941240 -0.582884
O15   O     O_R   0.615090 0.907020 0.558760 -0.575306
O16   O     O_R   0.384910 0.092980 0.441240 -0.589167
C59   C     C_3   0.119921 0.132877 0.061755 -0.410414
C60   C     C_3   0.074642 0.019308 0.043885 -0.351662
C61   C     C_3   0.117605 0.982939 0.985981 -0.861363
H17   H     H_    0.084636 0.038003 0.952486 0.266424
H18   H     H_    0.209394 0.983804 0.985332 0.257786
H19   H     H_    0.089166 0.897718 0.976932 0.246169
H20   H     H_    0.099099 0.955293 0.075164 0.228992
H21   H     H_    0.982937 0.022905 0.042254 0.229102
H22   H     H_    0.101363 0.191462 0.027131 0.205879
H23   H     H_    0.211217 0.128152 0.066628 0.193166
C62   C     C_3   0.788007 0.774358 0.891780 -0.367513
C63   C     C_3   0.688137 0.840860 0.869363 -0.400090
C64   C     C_3   0.578845 0.794291 0.891111 -0.860362
H24   H     H_    0.565774 0.709984 0.873942 0.246666
H25   H     H_    0.578318 0.790548 0.938081 0.258360
H26   H     H_    0.509489 0.847913 0.876972 0.244157
H27   H     H_    0.694613 0.928306 0.883134 0.218225
H28   H     H_    0.686092 0.837351 0.822231 0.220934
H29   H     H_    0.767238 0.686735 0.883915 0.234851
H30   H     H_    0.795427 0.788260 0.938148 0.207556
C65   C     C_3   0.785555 0.206519 0.601744 -0.366242
C66   C     C_3   0.865838 0.301596 0.614787 -0.398106
C67   C     C_3   0.842533 0.401328 0.577062 -0.857300
H31   H     H_    0.857789 0.380035 0.531846 0.251667
H32   H     H_    0.755485 0.428907 0.582102 0.251058
H33   H     H_    0.897938 0.470277 0.589082 0.243978
H34   H     H_    0.856640 0.327140 0.659905 0.223851
H35   H     H_    0.952588 0.275140 0.606972 0.223227
H36   H     H_    0.791684 0.189207 0.555773 0.218893
H37   H     H_    0.701246 0.238098 0.611611 0.216252
C68   C     C_3   0.226992 0.789826 0.390462 -0.370349
C69   C     C_3   0.159370 0.691116 0.368536 -0.398507
C70   C     C_3   0.206830 0.581685 0.389751 -0.853106
H38   H     H_    0.291312 0.568426 0.372332 0.249648
H39   H     H_    0.210711 0.580726 0.436783 0.250915
H40   H     H_    0.153469 0.512816 0.375420 0.241918
H41   H     H_    0.072252 0.698304 0.383190 0.222874
H42   H     H_    0.161114 0.689296 0.321403 0.219293
H43   H     H_    0.314590 0.769609 0.380296 0.228753
H44   H     H_    0.216604 0.795282 0.437167 0.214357
C71   C     C_3   0.824814 0.827261 0.077621 -0.374472
C72   C     C_3   0.746907 0.928343 0.079906 -0.391787
C73   C     C_3   0.664690 0.928202 0.031061 -0.857186
H45   H     H_    0.709024 0.935273 0.990005 0.260410
H46   H     H_    0.615041 0.851421 0.031905 0.249223
H47   H     H_    0.607718 0.999866 0.035288 0.245025
H48   H     H_    0.698759 0.927185 0.120166 0.216337
H49   H     H_    0.795518 0.005789 0.077553 0.222529
H50   H     H_    0.866943 0.826924 0.035639 0.198430
H51   H     H_    0.771664 0.753109 0.081034 0.221272
C74   C     C_3   0.208646 0.216013 0.897469 -0.368617
C75   C     C_3   0.305171 0.136982 0.883480 -0.397242
C76   C     C_3   0.408389 0.166244 0.917380 -0.855852
H52   H     H_    0.435666 0.251324 0.907122 0.250727
H53   H     H_    0.391335 0.160138 0.963616 0.252408
H54   H     H_    0.476289 0.107882 0.906501 0.244151
H55   H     H_    0.282278 0.050809 0.894155 0.224744
H56   H     H_    0.325637 0.142190 0.837525 0.216865
H57   H     H_    0.237814 0.300289 0.886697 0.218694
H58   H     H_    0.193632 0.210766 0.943726 0.218577
C77   C     C_3   0.162422 0.838815 0.572553 -0.374888
C78   C     C_3   0.045287 0.789443 0.567800 -0.375452
C79   C     C_3   0.027643 0.731232 0.511268 -0.867457
H59   H     H_    0.032415 0.791264 0.475887 0.250304
H60   H     H_    0.090714 0.665491 0.505309 0.259104
H61   H     H_    0.944421 0.692923 0.510728 0.245179
H62   H     H_    0.032504 0.727469 0.601894 0.209782
H63   H     H_    0.982000 0.855885 0.572045 0.237304
H64   H     H_    0.178160 0.885238 0.532700 0.201708
H65   H     H_    0.223761 0.770539 0.575488 0.205487
C80   C     C_3   0.868899 0.117981 0.438889 -0.408230
C81   C     C_3   0.983216 0.072069 0.456170 -0.350480
C82   C     C_3   0.018606 0.111981 0.514648 -0.856101
H66   H     H_    0.015848 0.203448 0.516525 0.257179
H67   H     H_    0.964075 0.076575 0.547755 0.264261
H68   H     H_    0.104634 0.084396 0.523193 0.243519
H69   H     H_    0.980911 0.980464 0.456417 0.227074
H70   H     H_    0.047328 0.098225 0.425226 0.227175
H71   H     H_    0.872653 0.209222 0.434725 0.191338
H72   H     H_    0.810271 0.098039 0.473361 0.203719
C83   C     C_3   0.174111 0.646385 0.825977 -0.398633
C84   C     C_3   0.178467 0.600473 0.765170 -0.374770
C85   C     C_3   0.261829 0.506239 0.760219 -0.873920
H73   H     H_    0.345050 0.533649 0.774050 0.256935
H74   H     H_    0.235347 0.434736 0.786337 0.252532
H75   H     H_    0.267020 0.480285 0.715260 0.252485
H76   H     H_    0.095415 0.569628 0.752890 0.218113
H77   H     H_    0.202979 0.665750 0.734656 0.221637
H78   H     H_    0.255428 0.682623 0.837258 0.197457
H79   H     H_    0.159891 0.574194 0.853487 0.225695
C86   C     C_3   0.871382 0.385290 0.184933 -0.400265
C87   C     C_3   0.747832 0.370064 0.172907 -0.306077
C88   C     C_3   0.683600 0.476959 0.183386 -0.864114
H80   H     H_    0.691426 0.502738 0.228439 0.254546
H81   H     H_    0.715155 0.543747 0.155514 0.259579
H82   H     H_    0.594746 0.463969 0.173856 0.235124
H83   H     H_    0.735864 0.344314 0.128092 0.234977
H84   H     H_    0.713830 0.304545 0.200857 0.206512
H85   H     H_    0.882682 0.408405 0.230237 0.183065
H86   H     H_    0.903880 0.455909 0.160102 0.196712
C89   C     C_3   0.628610 0.852722 0.323732 -0.373848
C90   C     C_3   0.615727 0.793359 0.266439 -0.372558
C91   C     C_3   0.509097 0.726716 0.264907 -0.874730
H87   H     H_    0.509071 0.663574 0.299057 0.254000
H88   H     H_    0.436270 0.781909 0.270450 0.252253
H89   H     H_    0.502873 0.684024 0.223382 0.245160
H90   H     H_    0.614066 0.854710 0.231383 0.221154
H91   H     H_    0.685764 0.735043 0.259708 0.218377
H92   H     H_    0.634523 0.788399 0.357154 0.218382
H93   H     H_    0.552135 0.902129 0.331127 0.194238
C92   C     C_3   0.355649 0.164251 0.672998 -0.384013
C93   C     C_3   0.324918 0.274864 0.645557 -0.303149
C94   C     C_3   0.422103 0.354775 0.647177 -0.874131
H94   H     H_    0.448551 0.369380 0.691652 0.254909
H95   H     H_    0.492956 0.320921 0.622520 0.257464
H96   H     H_    0.397084 0.434837 0.628143 0.238208
H97   H     H_    0.299562 0.262851 0.600747 0.238764
H98   H     H_    0.253358 0.311458 0.668524 0.198365
H99   H     H_    0.371172 0.177868 0.719002 0.175306
H100  H     H_    0.435208 0.132108 0.656009 0.203352
C95   C     C_3   0.820860 0.342610 0.830292 -0.395182
C96   C     C_3   0.865256 0.451379 0.805935 -0.328480
C97   C     C_3   0.771369 0.528322 0.787964 -0.870968
H101  H     H_    0.726502 0.492646 0.751253 0.254971
H102  H     H_    0.712208 0.540877 0.823490 0.250987
H103  H     H_    0.805642 0.609499 0.775195 0.244901
H104  H     H_    0.916847 0.493741 0.837992 0.216505
H105  H     H_    0.917918 0.434138 0.768165 0.209193
H106  H     H_    0.755953 0.312143 0.800873 0.185527
H107  H     H_    0.776353 0.355949 0.870813 0.217197
C98   C     C_3   0.159528 0.640541 0.176383 -0.382557
C99   C     C_3   0.280584 0.675014 0.167226 -0.358590
C100  C     C_3   0.307088 0.705869 0.105924 -0.738551
H108  H     H_    0.299511 0.632546 0.078011 0.257793
H109  H     H_    0.251361 0.772755 0.090873 0.257311
H110  H     H_    0.393634 0.735683 0.103260 0.209578
H111  H     H_    0.301192 0.745789 0.195045 0.210849
H112  H     H_    0.334933 0.604986 0.179719 0.199086
H113  H     H_    0.151058 0.612339 0.221060 0.146461
H114  H     H_    0.140913 0.565853 0.151235 0.205014
C101  C     C_3   0.347831 0.181071 0.334937 -0.364446
C102  C     C_3   0.352413 0.256136 0.282262 -0.389393
C103  C     C_3   0.449199 0.336376 0.285608 -0.848337
H115  H     H_    0.442016 0.388544 0.324231 0.251093
H116  H     H_    0.528970 0.290582 0.286563 0.255279
H117  H     H_    0.448666 0.390970 0.247791 0.240680
H118  H     H_    0.362082 0.205148 0.243307 0.225590
H119  H     H_    0.275066 0.305686 0.279245 0.216427
H120  H     H_    0.329521 0.233987 0.372342 0.216978
H121  H     H_    0.431632 0.144128 0.339932 0.207409
C104  C     C_3   0.653904 0.824584 0.670407 -0.385524
C105  C     C_3   0.691413 0.715563 0.643307 -0.309882
C106  C     C_3   0.601202 0.628405 0.648553 -0.862869
H122  H     H_    0.580517 0.613843 0.693880 0.253277
H123  H     H_    0.525546 0.655457 0.625708 0.257075
H124  H     H_    0.630332 0.549591 0.629754 0.236933
H125  H     H_    0.711144 0.728230 0.597721 0.236967
H126  H     H_    0.767273 0.684818 0.664789 0.203872
H127  H     H_    0.637564 0.810291 0.716303 0.178413
H128  H     H_    0.572957 0.851526 0.653120 0.208207

loop_
_geom_bond_atom_site_label_1
_geom_bond_atom_site_label_2
_ccdc_geom_bond_type
C68   H44   S    
C45   C89   S    
C48   C55   A    
C81   H70   S    
C69   C70   S    
C60   H21   S    
C46   C92   S    
C64   H25   S    
C59   C60   S    
C86   H86   S    
C95   H107  S    
C42   C58   A    
C61   H17   S    
Cu2   O10   S    
Cu3   O12   S    
C9    C25   A    
C71   C72   S    
C82   H67   S    
C39   C71   S    
C92   C93   S    
C102  C103  S    
C97   H103  S    
C84   H77   S    
C73   H46   S    
C26   C42   A    
C80   C81   S    
C66   H35   S    
C40   C74   S    
C17   O7    A    
C98   H114  S    
C62   H29   S    
C78   C79   S    
C76   H53   S    
C13   C54   S    
C61   H19   S    
C67   H32   S    
C30   H12   S    
Cu2   O5    S    
Cu3   O15   S    
C43   C52   A    
Cu2   O13   S    
C89   H92   S    
C63   C64   S    
C33   C49   A    
C49   C54   A    
C22   C38   A    
Cu4   O11   S    
C13   O3    A    
C16   O6    A    
C66   C67   S    
C23   H5    S    
C87   H83   S    
C91   H88   S    
C96   H104  S    
C22   H4    S    
C88   H82   S    
C72   H49   S    
C11   C52   S    
C24   C40   A    
C15   O14   A    
C43   C83   S    
C93   H97   S    
C79   H59   S    
C39   C55   A    
C76   H52   S    
C19   H1    S    
C85   H74   S    
C47   C95   S    
C94   H96   S    
C101  C102  S    
C90   H90   S    
C3    C19   A    
C7    C32   A    
C50   C104  S    
C14   O15   A    
Cu3   Cu4   S    
C36   C52   A    
C42   C80   S    
C17   C58   S    
C63   H27   S    
C37   C53   A    
C10   C26   A    
C71   H50   S    
Cu4   O4    S    
C73   H45   S    
C92   H99   S    
Cu1   Cu2   S    
C79   H60   S    
C31   C47   A    
C103  H115  S    
C5    C34   A    
C23   C39   A    
C32   C48   A    
C28   H10   S    
C21   H3    S    
C61   H18   S    
C59   H22   S    
C74   C75   S    
C82   H68   S    
C96   H105  S    
C105  H125  S    
C106  H123  S    
C84   H76   S    
C63   H28   S    
C73   H47   S    
C45   C58   A    
C34   C50   A    
C50   C53   A    
C65   H36   S    
C66   H34   S    
C17   O12   A    
C94   H94   S    
C62   H30   S    
C76   H54   S    
C96   C97   S    
C3    C28   A    
C67   H33   S    
C25   C41   A    
C82   H66   S    
C104  C105  S    
C93   C94   S    
C90   C91   S    
C105  H126  S    
C89   H93   S    
C18   O11   A    
C40   C56   A    
C80   H72   S    
C104  H127  S    
C28   C44   A    
C1    C6    S    
C29   C45   A    
C75   H55   S    
C1    C3    S    
C5    C21   A    
C4    C20   A    
C102  H118  S    
C20   H2    S    
C91   H89   S    
C2    C4    S    
C95   C96   S    
C70   H39   S    
C38   C68   S    
C72   H48   S    
C93   H98   S    
C92   H100  S    
C18   C57   S    
C31   H13   S    
C100  H108  S    
C38   C54   A    
C69   H42   S    
C11   O10   A    
C64   H24   S    
C85   H75   S    
C60   C61   S    
C14   C53   S    
C98   C99   S    
C21   C37   A    
C18   O8    A    
Cu1   O6    S    
C101  H120  S    
C11   O1    A    
C9    C30   A    
C75   H56   S    
C74   H58   S    
C44   C51   A    
C84   C85   S    
C100  H109  S    
C78   H62   S    
C99   C100  S    
C79   H61   S    
Cu4   O16   S    
C46   C57   A    
C35   C51   A    
C68   C69   S    
C26   H8    S    
C64   H26   S    
C2    C5    S    
C25   H7    S    
C14   O4    A    
Cu1   O1    S    
C70   H38   S    
C77   C78   S    
C4    C27   A    
C27   H9    S    
C59   H23   S    
C12   C51   S    
C83   H78   S    
C75   C76   S    
C104  H128  S    
C106  H124  S    
C68   H43   S    
C105  C106  S    
C71   H51   S    
C65   H37   S    
C12   O9    A    
Cu2   O2    S    
C36   C62   S    
C1    C7    S    
C8    C31   A    
C30   C46   A    
C2    C8    S    
C1    C10   S    
C86   H85   S    
C72   C73   S    
C95   H106  S    
C32   H14   S    
C15   O5    A    
C106  H122  S    
C37   C65   S    
C35   C59   S    
C77   H65   S    
C97   H102  S    
C62   C63   S    
C44   C86   S    
C6    C33   A    
C13   O16   A    
C98   H113  S    
C15   C56   S    
C103  H116  S    
C97   H101  S    
C16   C55   S    
C74   H57   S    
C88   H80   S    
C49   C101  S    
C83   C84   S    
Cu3   O3    S    
C67   H31   S    
C34   H16   S    
C48   C98   S    
C10   C29   A    
C33   H15   S    
C86   C87   S    
C81   C82   S    
C69   H41   S    
C7    C23   A    
C12   O2    A    
C80   H71   S    
C8    C24   A    
Cu1   O14   S    
C87   H84   S    
C91   H87   S    
Cu1   O9    S    
C101  H121  S    
C70   H40   S    
Cu3   O8    S    
C24   H6    S    
C41   C57   A    
C89   C90   S    
C20   C36   A    
C27   C43   A    
C81   H69   S    
C100  H110  S    
C29   H11   S    
C16   O13   A    
C77   H64   S    
C85   H73   S    
C103  H117  S    
C99   H112  S    
C94   H95   S    
Cu4   O7    S    
C83   H79   S    
C19   C35   A    
C65   C66   S    
C87   C88   S    
C60   H20   S    
C2    C9    S    
C90   H91   S    
C88   H81   S    
C78   H63   S    
C102  H119  S    
C99   H111  S    
C47   C56   A    
C41   C77   S    
C6    C22   A    
