data_mof_unit_13484.cif
_audit_creation_date              2012-12-10T18:02:06-0500
_audit_creation_method            fapswitch 2.2
_symmetry_space_group_name_H-M    P1
_symmetry_Int_Tables_number       1
_space_group_crystal_system       triclinic
_cell_length_a                    10.83817
_cell_length_b                    9.512527
_cell_length_c                    23.482311
_cell_angle_alpha                 90.159694
_cell_angle_beta                  90.935262
_cell_angle_gamma                 90.256663
_cell_volume                      2420.63160874

loop_
_atom_site_label
_atom_site_type_symbol
_atom_type_description
_atom_site_fract_x
_atom_site_fract_y
_atom_site_fract_z
_atom_type_partial_charge
C1    C     C_R   0.262251 0.499497 0.499967 0.932326
C2    C     C_R   0.737749 0.500502 0.500033 0.932451
C3    C     C_R   0.614160 0.516146 0.241771 0.416325
C4    C     C_R   0.386168 0.484364 0.758290 0.416316
C5    C     C_R   0.611112 0.516051 0.301075 -0.257484
C6    C     C_R   0.389072 0.484406 0.698983 -0.257558
C7    C     C_R   0.499015 0.500324 0.329046 -0.155685
C8    C     C_R   0.501141 0.499692 0.670953 -0.155832
C9    C     C_R   0.387891 0.485549 0.297635 0.126139
C10   C     C_R   0.612380 0.514095 0.702304 0.126331
C11   C     C_R   0.391050 0.483696 0.237706 0.336836
C12   C     C_R   0.609371 0.516021 0.762235 0.336948
C13   C     C_R   0.504235 0.499772 0.209886 0.119878
C14   C     C_R   0.496213 0.500375 0.790118 0.119769
C15   C     C_R   0.062030 0.403953 0.464956 0.301543
C16   C     C_R   0.937968 0.596028 0.535053 0.301684
C17   C     C_R   0.933570 0.407130 0.463935 0.304565
C18   C     C_R   0.066429 0.592863 0.536069 0.304653
C19   C     C_R   0.871565 0.501698 0.499564 -0.346660
C20   C     C_R   0.128434 0.498297 0.500439 -0.346569
C21   C     C_R   0.429830 0.073772 0.461376 0.054213
C22   C     C_R   0.570171 0.926227 0.538624 0.054196
C23   C     C_R   0.570378 0.075057 0.538556 0.033796
C24   C     C_R   0.429622 0.924942 0.461442 0.033777
C25   C     C_R   0.499457 0.499944 0.391192 0.890302
C26   C     C_R   0.500558 0.500058 0.608806 0.890462
C27   C     C_R   0.523050 0.378518 0.879292 0.715545
C28   C     C_R   0.477510 0.621698 0.120723 0.715517
C29   C     C_R   0.465366 0.619889 0.879441 0.717473
C30   C     C_R   0.535352 0.380371 0.120564 0.717509
C31   C     C_R   0.461168 0.622221 0.939617 -0.149101
C32   C     C_R   0.539586 0.378067 0.060389 -0.149106
C33   C     C_R   0.498610 0.499817 0.969785 -0.092990
C34   C     C_R   0.502117 0.500468 0.030223 -0.092948
C35   C     C_R   0.532542 0.376762 0.939432 -0.144863
C36   C     C_R   0.468149 0.623510 0.060578 -0.144846
C37   C     C_R   0.420976 0.741879 0.970319 0.373347
C38   C     C_R   0.579835 0.258440 0.029684 0.373335
C39   C     C_R   0.424670 0.742646 0.030116 0.374139
C40   C     C_R   0.576108 0.257665 0.969888 0.374193
Cu1   Cu    Cu3+1 0.500000 0.640660 0.500000 1.031412
Cu2   Cu    Cu3+1 0.500000 0.359340 0.500000 1.031450
H1    H     H_    0.696280 0.528219 0.325477 0.209206
H2    H     H_    0.303813 0.472532 0.674626 0.209354
H3    H     H_    0.374033 0.129288 0.430299 0.180516
H4    H     H_    0.625970 0.870712 0.569699 0.180498
H5    H     H_    0.626889 0.131604 0.569392 0.130700
H6    H     H_    0.373113 0.868391 0.430605 0.130838
N1    N     N_R   0.493690 0.499277 0.851284 -0.453580
N2    N     N_R   0.506897 0.500936 0.148724 -0.453563
N3    N     N_R   0.500000 0.852070 0.500000 -0.181066
N4    N     N_R   0.500000 0.147930 0.500000 -0.181060
O1    O     O_R   0.319640 0.618740 0.500000 -0.559594
O2    O     O_R   0.680360 0.381260 0.500000 -0.559552
O3    O     O_R   0.680360 0.618740 0.500000 -0.546863
O4    O     O_R   0.319640 0.381260 0.500000 -0.546816
O5    O     O_R   0.499960 0.618810 0.417880 -0.604751
O6    O     O_R   0.500040 0.381190 0.582120 -0.604707
O7    O     O_R   0.500040 0.618810 0.582120 -0.549641
O8    O     O_R   0.499960 0.381190 0.417880 -0.549580
O9    O     O_2   0.542199 0.261462 0.848283 -0.407539
O10   O     O_2   0.458185 0.738692 0.151744 -0.407597
O11   O     O_2   0.443435 0.736647 0.848603 -0.398950
O12   O     O_2   0.557361 0.263624 0.151396 -0.398944
Cl1   Cl    Cl    0.357443 0.891844 0.935817 -0.319911
Cl2   Cl    Cl    0.643470 0.108524 0.064182 -0.319880
Cl3   Cl    Cl    0.366154 0.893969 0.064968 -0.323605
Cl4   Cl    Cl    0.634752 0.106422 0.935026 -0.323564
Cl5   Cl    Cl    0.756651 0.538080 0.208043 -0.426386
Cl6   Cl    Cl    0.243701 0.462952 0.792090 -0.426174
N5    N     N_2   0.273944 0.472799 0.326514 -0.396125
H7    H     H_    0.212667 0.402562 0.307940 0.340572
C41   C     C_3   0.216756 0.605618 0.340068 -0.519152
H8    H     H_    0.131522 0.586462 0.364508 0.237050
H9    H     H_    0.191810 0.662935 0.300376 0.267516
H10   H     H_    0.279966 0.671655 0.366570 0.207957
N6    N     N_2   0.726279 0.526440 0.673361 -0.396279
H11   H     H_    0.787771 0.596519 0.691881 0.340612
C42   C     C_3   0.783121 0.393430 0.659809 -0.519478
H12   H     H_    0.868117 0.412284 0.635161 0.236702
H13   H     H_    0.719556 0.327360 0.633506 0.208142
H14   H     H_    0.808398 0.336311 0.699506 0.267655
Cl7   Cl    Cl    0.253628 0.464120 0.196922 -0.464665
Cl8   Cl    Cl    0.746938 0.535194 0.802943 -0.464598
Cl9   Cl    Cl    0.137658 0.282852 0.420141 -0.528857
Cl10  Cl    Cl    0.862334 0.717089 0.579883 -0.528809
Cl11  Cl    Cl    0.851613 0.298026 0.414800 -0.474401
Cl12  Cl    Cl    0.148386 0.701974 0.585201 -0.474415

loop_
_geom_bond_atom_site_label_1
_geom_bond_atom_site_label_2
_ccdc_geom_bond_type
C38   C40   A    
C29   O11   S    
C30   O12   S    
C8    C26   S    
C41   H8    S    
Cu2   O6    S    
C4    Cl6   S    
C29   N1    A    
N6    H11   S    
C3    Cl5   S    
C1    O4    A    
C2    O3    A    
C33   C35   A    
C14   N1    S    
C12   Cl8   S    
C7    C9    A    
Cu1   Cu2   S    
C1    O1    A    
Cu1   O3    S    
C27   O9    S    
Cu2   O4    S    
C28   N2    A    
C38   Cl2   S    
C37   Cl1   S    
C31   C33   A    
C25   O8    A    
C32   C38   A    
C26   O7    A    
C18   C20   A    
C3    C13   A    
C15   Cl9   S    
C24   N3    A    
C30   N2    A    
C6    H2    S    
C16   Cl10  S    
C41   H9    S    
C25   O5    A    
C10   N6    S    
C21   H3    S    
N6    C42   S    
C15   C20   A    
C23   H5    S    
C24   H6    S    
Cu1   O7    S    
C4    C6    A    
C2    O2    A    
Cu2   O8    S    
C5    C7    A    
C6    C8    A    
C11   Cl7   S    
C18   Cl12  S    
C31   C37   A    
C32   C34   A    
C26   O6    A    
C33   C34   A    
C9    C11   A    
Cu1   O1    S    
C10   C12   A    
C16   C18   A    
C22   H4    S    
C12   C14   A    
C41   H10   S    
C8    C10   A    
C42   H13   S    
C15   C17   A    
C1    C20   S    
C2    C19   S    
C17   Cl11  S    
C39   Cl3   S    
C36   C39   A    
C9    N5    S    
C3    C5    A    
C42   H14   S    
C7    C25   S    
C27   C35   A    
C35   C40   A    
Cu1   O5    S    
N5    H7    S    
C29   C31   A    
Cu2   O2    S    
C30   C32   A    
C11   C13   A    
C23   N4    A    
C16   C19   A    
C13   N2    S    
C17   C19   A    
C34   C36   A    
C4    C14   A    
C42   H12   S    
C28   C36   A    
C37   C39   A    
C40   Cl4   S    
C21   C24   A    
N5    C41   S    
C22   C23   A    
C5    H1    S    
Cu1   N3    S    
C21   N4    A    
C27   N1    A    
Cu2   N4    S    
C22   N3    A    
C28   O10   S    
