data_mof_unit_38312.cif
_audit_creation_date              2012-12-11T15:22:36-0500
_audit_creation_method            fapswitch 2.2
_symmetry_space_group_name_H-M    P1
_symmetry_Int_Tables_number       1
_space_group_crystal_system       triclinic
_cell_length_a                    22.491212
_cell_length_b                    12.985246
_cell_length_c                    26.896204
_cell_angle_alpha                 89.922528
_cell_angle_beta                  91.044659
_cell_angle_gamma                 89.862881
_cell_volume                      7853.80606834

loop_
_atom_site_label
_atom_site_type_symbol
_atom_type_description
_atom_site_fract_x
_atom_site_fract_y
_atom_site_fract_z
_atom_type_partial_charge
C1    C     C_R   0.704494 0.304857 0.173241 0.558138
C2    C     C_R   0.482163 0.255010 0.896932 -0.129336
C3    C     C_R   0.004691 0.580810 0.555436 -0.151315
C4    C     C_R   0.506981 0.080784 0.394257 -0.181231
C5    C     C_R   0.493342 0.080873 0.605877 -0.181063
C6    C     C_R   0.006982 0.580783 0.394257 -0.181230
C7    C     C_R   0.993342 0.580874 0.605877 -0.181063
C8    C     C_R   0.747409 0.943410 0.368716 0.004125
C9    C     C_R   0.252819 0.943995 0.631175 0.004349
C10   C     C_R   0.247410 0.443410 0.368716 0.004126
C11   C     C_R   0.752819 0.443995 0.631174 0.004348
C12   C     C_R   0.707174 0.875660 0.392318 0.007303
C13   C     C_R   0.019862 0.757658 0.103295 -0.133291
C14   C     C_R   0.293042 0.875824 0.607711 0.007620
C15   C     C_R   0.207175 0.375658 0.392317 0.007304
C16   C     C_R   0.793043 0.375825 0.607710 0.007620
C17   C     C_R   0.713125 0.862253 0.443796 -0.122025
C18   C     C_R   0.287236 0.862535 0.556227 -0.121798
C19   C     C_R   0.213126 0.362250 0.443795 -0.122025
C20   C     C_R   0.787238 0.362538 0.556226 -0.121798
C21   C     C_R   0.761197 0.904575 0.470200 0.012856
C22   C     C_R   0.239344 0.905591 0.529654 0.012656
C23   C     C_R   0.261198 0.404573 0.470200 0.012856
C24   C     C_R   0.982163 0.755010 0.896932 -0.129336
C25   C     C_R   0.739345 0.405594 0.529653 0.012655
C26   C     C_R   0.806991 0.955421 0.445261 0.016318
C27   C     C_R   0.193581 0.957116 0.554441 0.016250
C28   C     C_R   0.306991 0.455421 0.445261 0.016318
C29   C     C_R   0.693582 0.457118 0.554440 0.016251
C30   C     C_R   0.799453 0.974124 0.394582 -0.122215
C31   C     C_R   0.200959 0.975565 0.605129 -0.122010
C32   C     C_R   0.299453 0.474124 0.394582 -0.122216
C33   C     C_R   0.700960 0.475566 0.605129 -0.122010
C34   C     C_R   0.787470 0.803535 0.543395 -0.159395
C35   C     C_R   0.508186 0.257793 0.052092 0.025949
C36   C     C_R   0.213163 0.804228 0.456736 -0.159325
C37   C     C_R   0.287471 0.303534 0.543395 -0.159394
C38   C     C_R   0.713165 0.304229 0.456736 -0.159325
C39   C     C_R   0.721167 0.347129 0.321675 0.540030
C40   C     C_R   0.278874 0.347053 0.678289 0.540207
C41   C     C_R   0.221167 0.847129 0.321676 0.540029
C42   C     C_R   0.778874 0.847053 0.678289 0.540207
C43   C     C_R   0.789865 0.788024 0.594074 -0.095264
C44   C     C_R   0.210583 0.788502 0.406091 -0.095987
C45   C     C_R   0.289866 0.288023 0.594074 -0.095264
C46   C     C_R   0.492743 0.256004 0.948306 0.032078
C47   C     C_R   0.710585 0.288503 0.406091 -0.095987
C48   C     C_R   0.744255 0.955215 0.607432 -0.130552
C49   C     C_R   0.255921 0.955420 0.392225 -0.130429
C50   C     C_R   0.244255 0.455213 0.607431 -0.130553
C51   C     C_R   0.755920 0.455422 0.392224 -0.130426
C52   C     C_R   0.740480 0.970840 0.555909 0.036582
C53   C     C_R   0.259869 0.971268 0.443711 0.036532
C54   C     C_R   0.240480 0.470838 0.555908 0.036583
C55   C     C_R   0.759869 0.471271 0.443710 0.036531
C56   C     C_R   0.762627 0.893585 0.524028 0.027900
C57   C     C_R   0.008186 0.757793 0.052092 0.025949
C58   C     C_R   0.237930 0.894268 0.475838 0.027764
C59   C     C_R   0.262627 0.393583 0.524028 0.027901
C60   C     C_R   0.737931 0.394270 0.475838 0.027762
C61   C     C_R   0.768610 0.863892 0.626012 0.035798
C62   C     C_R   0.231598 0.864136 0.373910 0.035706
C63   C     C_R   0.268611 0.363891 0.626012 0.035798
C64   C     C_R   0.731598 0.364137 0.373910 0.035707
C65   C     C_R   0.554819 0.159103 0.321706 0.563755
C66   C     C_R   0.445168 0.159076 0.678289 0.564198
C67   C     C_R   0.054819 0.659103 0.321706 0.563754
C68   C     C_R   0.992742 0.756004 0.948306 0.032078
C69   C     C_R   0.945168 0.659076 0.678289 0.564198
C70   C     C_R   0.732923 0.998928 0.322062 0.532808
C71   C     C_R   0.267131 0.998988 0.677912 0.533597
C72   C     C_R   0.232923 0.498928 0.322062 0.532808
C73   C     C_R   0.767131 0.498988 0.677912 0.533597
C74   C     C_R   0.509014 0.071915 0.104969 -0.137543
C75   C     C_R   0.480972 0.068143 0.898339 -0.132835
C76   C     C_R   0.009014 0.571915 0.104969 -0.137543
C77   C     C_R   0.980972 0.568143 0.898339 -0.132835
C78   C     C_R   0.498495 0.069682 0.053818 -0.043039
C79   C     C_R   0.500004 0.163117 0.026969 0.017447
C80   C     C_R   0.490175 0.066884 0.949674 -0.046182
C81   C     C_R   0.998495 0.569682 0.053818 -0.043039
C82   C     C_R   0.990175 0.566884 0.949674 -0.046182
C83   C     C_R   0.490840 0.973106 0.976710 0.259123
C84   C     C_R   0.491733 0.975087 0.028538 0.256701
C85   C     C_R   0.990840 0.473106 0.976710 0.259123
C86   C     C_R   0.991733 0.475087 0.028538 0.256701
C87   C     C_3   0.647623 0.871943 0.019232 -0.267023
C88   C     C_3   0.639782 0.960239 0.982070 -0.421928
C89   C     C_3   0.336522 0.769610 0.960469 -0.270048
C90   C     C_R   0.494463 0.161913 0.974967 0.020065
C91   C     C_3   0.366420 0.816481 0.006395 -0.388393
C92   C     C_3   0.147623 0.371943 0.019232 -0.267023
C93   C     C_3   0.139781 0.460239 0.982070 -0.421928
C94   C     C_3   0.836522 0.269610 0.960469 -0.270048
C95   C     C_3   0.866420 0.316481 0.006395 -0.388393
C96   C     C_3   0.657902 0.817465 0.365025 -0.266299
C97   C     C_3   0.662303 0.701152 0.373659 -0.452445
C98   C     C_3   0.342071 0.816864 0.635192 -0.266732
C99   C     C_3   0.337355 0.700618 0.626709 -0.452409
C100  C     C_3   0.157904 0.317462 0.365024 -0.266300
C101  C     C_R   0.000004 0.663117 0.026969 0.017447
C102  C     C_3   0.162308 0.201148 0.373656 -0.452443
C103  C     C_3   0.842072 0.316866 0.635191 -0.266731
C104  C     C_3   0.837358 0.200620 0.626707 -0.452411
C105  C     C_3   0.713545 0.069736 0.536369 -0.287317
C106  C     C_3   0.646423 0.069574 0.542122 -0.435067
C107  C     C_3   0.286738 0.070135 0.462954 -0.287275
C108  C     C_3   0.353805 0.069898 0.456827 -0.434981
C109  C     C_3   0.213545 0.569734 0.536368 -0.287317
C110  C     C_3   0.146422 0.569570 0.542121 -0.435068
C111  C     C_3   0.786737 0.570139 0.462953 -0.287276
C112  C     C_R   0.294660 0.307636 0.827030 0.559575
C113  C     C_R   0.994463 0.661913 0.974967 0.020065
C114  C     C_3   0.853803 0.569908 0.456820 -0.434979
C115  C     C_3   0.863094 0.993246 0.471495 -0.276912
C116  C     C_3   0.864294 0.110646 0.475091 -0.446059
C117  C     C_3   0.137619 0.995754 0.528054 -0.276936
C118  C     C_3   0.136424 0.113214 0.524695 -0.446400
C119  C     C_3   0.363095 0.493246 0.471495 -0.276911
C120  C     C_3   0.364293 0.610645 0.475093 -0.446059
C121  C     C_3   0.637621 0.495758 0.528054 -0.276936
C122  C     C_3   0.636425 0.613218 0.524696 -0.446400
C123  C     C_R   0.507625 0.350396 0.025243 -0.130642
C124  C     C_R   0.499158 0.349588 0.973740 -0.128193
C125  C     C_R   0.007625 0.850397 0.025243 -0.130642
C126  C     C_R   0.999158 0.849588 0.973740 -0.128193
C127  C     C_R   0.742040 0.946341 0.132666 -0.001585
C128  C     C_R   0.254882 0.942842 0.866659 -0.001146
C129  C     C_R   0.242040 0.446341 0.132666 -0.001585
C130  C     C_R   0.754882 0.442842 0.866659 -0.001146
C131  C     C_R   0.799937 0.931514 0.115758 -0.137066
C132  C     C_R   0.204494 0.804857 0.173241 0.558138
C133  C     C_R   0.200376 0.958628 0.890151 -0.154244
C134  C     C_R   0.299937 0.431514 0.115758 -0.137066
C135  C     C_R   0.700376 0.458628 0.890151 -0.154244
C136  C     C_R   0.809234 0.894506 0.067910 -0.135105
C137  C     C_R   0.190839 0.919586 0.937567 -0.146443
C138  C     C_R   0.309234 0.394506 0.067910 -0.135105
C139  C     C_R   0.690839 0.419586 0.937567 -0.146443
C140  C     C_R   0.760907 0.873386 0.035788 0.085646
C141  C     C_R   0.235097 0.862705 0.962706 0.094850
C142  C     C_R   0.260907 0.373386 0.035788 0.085645
C143  C     C_R   0.794660 0.807636 0.827030 0.559575
C144  C     C_R   0.735097 0.362705 0.962706 0.094850
C145  C     C_R   0.701980 0.886366 0.052772 0.028379
C146  C     C_R   0.288538 0.838235 0.937806 0.046146
C147  C     C_R   0.201980 0.386366 0.052772 0.028379
C148  C     C_R   0.788538 0.338235 0.937806 0.046146
C149  C     C_R   0.553064 0.157549 0.177894 0.533872
C150  C     C_R   0.446405 0.156963 0.822500 0.537923
C151  C     C_R   0.053064 0.657548 0.177894 0.533872
C152  C     C_R   0.946405 0.656963 0.822500 0.537923
C153  C     C_R   0.693480 0.920640 0.101570 -0.130838
C154  C     C_R   0.473982 0.161141 0.872233 -0.003024
C155  C     C_R   0.297795 0.879646 0.890019 -0.117835
C156  C     C_R   0.193480 0.420640 0.101570 -0.130838
C157  C     C_R   0.797795 0.379646 0.890019 -0.117835
C158  C     C_R   0.755576 0.758019 0.960774 0.246467
C159  C     C_R   0.220829 0.744927 0.036632 0.249887
C160  C     C_R   0.255576 0.258019 0.960774 0.246466
C161  C     C_R   0.720829 0.244927 0.036632 0.249887
C162  C     C_R   0.760835 0.746404 0.909049 -0.132199
C163  C     C_R   0.214890 0.733131 0.088470 -0.130630
C164  C     C_R   0.260835 0.246404 0.909049 -0.132199
C165  C     C_R   0.523182 0.164071 0.129231 -0.007529
C166  C     C_R   0.714890 0.233131 0.088470 -0.130630
C167  C     C_R   0.805833 0.915214 0.903664 -0.136536
C168  C     C_R   0.219631 0.917806 0.099510 -0.132698
C169  C     C_R   0.305833 0.415214 0.903664 -0.136536
C170  C     C_R   0.719631 0.417806 0.099510 -0.132698
C171  C     C_R   0.799619 0.928102 0.954603 -0.179753
C172  C     C_R   0.226454 0.929951 0.048489 -0.184738
C173  C     C_R   0.299619 0.428102 0.954603 -0.179753
C174  C     C_R   0.726454 0.429951 0.048489 -0.184738
C175  C     C_R   0.773168 0.851117 0.983200 0.072687
C176  C     C_R   0.973982 0.661141 0.872233 -0.003024
C177  C     C_R   0.227109 0.844368 0.016605 0.066400
C178  C     C_R   0.273168 0.351117 0.983200 0.072687
C179  C     C_R   0.727109 0.344368 0.016605 0.066400
C180  C     C_R   0.785289 0.825052 0.880290 -0.006858
C181  C     C_R   0.214134 0.819268 0.119846 -0.006234
C182  C     C_R   0.285289 0.325052 0.880290 -0.006858
C183  C     C_R   0.714134 0.319268 0.119846 -0.006234
C184  C     C_R   0.529385 0.169163 0.371265 0.057862
C185  C     C_R   0.470560 0.169178 0.628719 0.058075
C186  C     C_R   0.029385 0.669163 0.371264 0.057862
C187  C     C_R   0.023182 0.664071 0.129231 -0.007529
C188  C     C_R   0.970559 0.669178 0.628719 0.058076
C189  C     C_R   0.537498 0.260560 0.399193 0.231190
C190  C     C_R   0.462044 0.260499 0.600641 0.231145
C191  C     C_R   0.037496 0.760560 0.399193 0.231189
C192  C     C_R   0.962043 0.760499 0.600641 0.231145
C193  C     C_R   0.526255 0.259029 0.450105 -0.121630
C194  C     C_R   0.473296 0.258959 0.549732 -0.121372
C195  C     C_R   0.026253 0.759029 0.450105 -0.121630
C196  C     C_R   0.973295 0.758959 0.549732 -0.121372
C197  C     C_R   0.731410 0.000721 0.179705 0.526555
C198  C     C_R   0.519862 0.257658 0.103295 -0.133291
C199  C     C_R   0.268328 0.000431 0.820484 0.529379
C200  C     C_R   0.231410 0.500721 0.179705 0.526555
C201  C     C_R   0.768328 0.500431 0.820484 0.529379
C202  C     C_R   0.505549 0.169527 0.473143 -0.000079
C203  C     C_R   0.494395 0.169530 0.526844 0.000136
C204  C     C_R   0.005549 0.669527 0.473143 -0.000079
C205  C     C_R   0.994394 0.669530 0.526843 0.000136
C206  C     C_R   0.495642 0.080725 0.444699 -0.151403
C207  C     C_R   0.504691 0.080810 0.555436 -0.151316
C208  C     C_R   0.995642 0.580724 0.444699 -0.151401
Cr1   Cr    Cr6+3 0.756570 0.170940 0.251190 1.017055
Cr2   Cr    Cr6+3 0.374010 0.036240 0.749520 0.995050
Cr3   Cr    Cr6+3 0.125990 0.536240 0.250480 0.996468
Cr4   Cr    Cr6+3 0.874010 0.536240 0.749520 0.995050
Cr5   Cr    Cr6+3 0.243430 0.170940 0.748810 1.014698
Cr6   Cr    Cr6+3 0.256570 0.670940 0.251190 1.017055
Cr7   Cr    Cr6+3 0.743430 0.670940 0.748810 1.014699
Cr8   Cr    Cr6+3 0.623740 0.299110 0.249580 1.050741
Cr9   Cr    Cr6+3 0.376260 0.299110 0.750420 1.048736
Cr10  Cr    Cr6+3 0.123740 0.799110 0.249580 1.050741
Cr11  Cr    Cr6+3 0.876260 0.799110 0.750420 1.048736
Cr12  Cr    Cr6+3 0.625990 0.036240 0.250480 0.996468
H1    H     H_    0.473312 0.996557 0.878911 0.147110
H2    H     H_    0.339532 0.865534 0.871694 0.127801
H3    H     H_    0.371165 0.660113 0.650189 0.153441
H4    H     H_    0.386079 0.844418 0.622650 0.146427
H5    H     H_    0.340018 0.826811 0.675909 0.174195
H6    H     H_    0.206885 0.172770 0.362977 0.155795
H7    H     H_    0.154276 0.181069 0.413046 0.142787
H8    H     H_    0.128234 0.161232 0.350373 0.154189
H9    H     H_    0.114009 0.345767 0.377608 0.146615
H10   H     H_    0.159875 0.327257 0.324286 0.175766
H11   H     H_    0.792621 0.173024 0.637221 0.155786
H12   H     H_    0.845566 0.180387 0.587377 0.142819
H13   H     H_    0.148626 0.434437 0.114111 0.137874
H14   H     H_    0.871169 0.160117 0.650188 0.153441
H15   H     H_    0.886080 0.344423 0.622651 0.146430
H16   H     H_    0.840017 0.326810 0.675909 0.174194
H17   H     H_    0.512490 0.880048 0.923533 0.304004
H18   H     H_    0.463494 0.890395 0.082157 0.305883
H19   H     H_    0.012490 0.380048 0.923533 0.304004
H20   H     H_    0.963494 0.390395 0.082157 0.305883
H21   H     H_    0.626679 0.005085 0.520378 0.152966
H22   H     H_    0.634654 0.061365 0.581851 0.158205
H23   H     H_    0.627520 0.143177 0.527935 0.151259
H24   H     H_    0.839532 0.365534 0.871694 0.127801
H25   H     H_    0.733024 0.136303 0.556760 0.140425
H26   H     H_    0.723088 0.080922 0.496475 0.153844
H27   H     H_    0.373855 0.005391 0.478562 0.153001
H28   H     H_    0.365303 0.061658 0.417046 0.158070
H29   H     H_    0.372625 0.143498 0.470807 0.151310
H30   H     H_    0.266949 0.136738 0.442595 0.140921
H31   H     H_    0.277508 0.081305 0.502890 0.153703
H32   H     H_    0.126678 0.505082 0.520376 0.152965
H33   H     H_    0.134653 0.561358 0.581850 0.158204
H34   H     H_    0.127519 0.643174 0.527935 0.151260
H35   H     H_    0.521380 0.010795 0.538955 0.109815
H36   H     H_    0.233022 0.636301 0.556760 0.140425
H37   H     H_    0.223088 0.580920 0.496474 0.153845
H38   H     H_    0.873857 0.505396 0.478549 0.153001
H39   H     H_    0.865297 0.561682 0.417038 0.158069
H40   H     H_    0.872623 0.643504 0.470804 0.151309
H41   H     H_    0.766944 0.636742 0.442597 0.140921
H42   H     H_    0.777512 0.581305 0.502889 0.153704
H43   H     H_    0.864046 0.146209 0.437529 0.155673
H44   H     H_    0.825311 0.139077 0.495685 0.147349
H45   H     H_    0.905314 0.135223 0.495329 0.129001
H46   H     H_    0.479261 0.010654 0.461299 0.109782
H47   H     H_    0.867965 0.961002 0.509579 0.150455
H48   H     H_    0.902465 0.966450 0.450674 0.139262
H49   H     H_    0.136103 0.148231 0.562320 0.155378
H50   H     H_    0.175716 0.141658 0.504587 0.147441
H51   H     H_    0.095687 0.138390 0.504096 0.128911
H52   H     H_    0.132961 0.964109 0.489887 0.151048
H53   H     H_    0.098132 0.968980 0.548665 0.139197
H54   H     H_    0.364042 0.646211 0.437531 0.155674
H55   H     H_    0.325311 0.639073 0.495688 0.147348
H56   H     H_    0.405314 0.635222 0.495330 0.129002
H57   H     H_    0.021380 0.510795 0.538955 0.109816
H58   H     H_    0.367966 0.460999 0.509578 0.150455
H59   H     H_    0.402465 0.466452 0.450673 0.139262
H60   H     H_    0.636101 0.648232 0.562322 0.155377
H61   H     H_    0.675718 0.641665 0.504591 0.147443
H62   H     H_    0.595689 0.638394 0.504096 0.128910
H63   H     H_    0.632963 0.464115 0.489885 0.151048
H64   H     H_    0.598133 0.468982 0.548663 0.139196
H65   H     H_    0.720732 0.622735 0.968020 0.312654
H66   H     H_    0.222627 0.597906 0.025749 0.318867
H67   H     H_    0.220732 0.122735 0.968019 0.312653
H68   H     H_    0.979262 0.510653 0.461299 0.109780
H69   H     H_    0.722627 0.097906 0.025749 0.318867
H70   H     H_    0.500072 0.010095 0.626621 0.131852
H71   H     H_    0.500554 0.009943 0.373637 0.132051
H72   H     H_    0.000072 0.510095 0.626621 0.131851
H73   H     H_    0.512211 0.000541 0.125568 0.150629
H74   H     H_    0.000555 0.509942 0.373638 0.132052
H75   H     H_    0.535882 0.327141 0.471945 0.079848
H76   H     H_    0.463376 0.326997 0.527780 0.079530
H77   H     H_    0.035879 0.827142 0.471944 0.079847
H78   H     H_    0.963374 0.826996 0.527780 0.079530
H79   H     H_    0.806372 0.746723 0.519138 0.111035
H80   H     H_    0.194437 0.747614 0.481181 0.111112
H81   H     H_    0.306373 0.246722 0.519138 0.111036
H82   H     H_    0.694440 0.247615 0.481181 0.111112
H83   H     H_    0.810207 0.718099 0.608602 0.129496
H84   H     H_    0.973312 0.496557 0.878911 0.147110
H85   H     H_    0.190282 0.718602 0.391783 0.129370
H86   H     H_    0.310208 0.218099 0.608602 0.129496
H87   H     H_    0.690285 0.218601 0.391783 0.129370
H88   H     H_    0.679894 0.819253 0.463745 0.110007
H89   H     H_    0.320405 0.818941 0.536412 0.110084
H90   H     H_    0.179895 0.319248 0.463744 0.110007
H91   H     H_    0.820407 0.318945 0.536411 0.110084
H92   H     H_    0.728822 0.013825 0.632807 0.096122
H93   H     H_    0.271184 0.013845 0.366671 0.096037
H94   H     H_    0.228821 0.513823 0.632806 0.096122
H95   H     H_    0.012211 0.500542 0.125568 0.150629
H96   H     H_    0.771182 0.513848 0.366670 0.096037
H97   H     H_    0.833135 0.018844 0.376078 0.143838
H98   H     H_    0.167283 0.020678 0.623519 0.143800
H99   H     H_    0.333135 0.518846 0.376078 0.143838
H100  H     H_    0.667283 0.520678 0.623519 0.143800
H101  H     H_    0.476929 0.326977 0.876815 0.121277
H102  H     H_    0.530370 0.329313 0.122109 0.127436
H103  H     H_    0.976929 0.826977 0.876815 0.121277
H104  H     H_    0.030370 0.829313 0.122109 0.127436
H105  H     H_    0.497948 0.422104 0.953755 0.108562
H106  H     H_    0.826049 0.976544 0.882577 0.146590
H107  H     H_    0.513785 0.423411 0.044084 0.113875
H108  H     H_    0.997948 0.922103 0.953755 0.108562
H109  H     H_    0.013785 0.923411 0.044084 0.113875
H110  H     H_    0.837992 0.951407 0.139033 0.134690
H111  H     H_    0.165997 0.006055 0.873053 0.138872
H112  H     H_    0.337992 0.451407 0.139033 0.134690
H113  H     H_    0.665997 0.506055 0.873053 0.138872
H114  H     H_    0.747164 0.675249 0.891408 0.112929
H115  H     H_    0.209233 0.657130 0.104199 0.094067
H116  H     H_    0.247164 0.175249 0.891408 0.112929
H117  H     H_    0.219051 0.985298 0.123124 0.152291
H118  H     H_    0.709233 0.157130 0.104199 0.094067
H119  H     H_    0.854399 0.886198 0.055079 0.120328
H120  H     H_    0.149664 0.938324 0.955874 0.120159
H121  H     H_    0.354399 0.386198 0.055079 0.120328
H122  H     H_    0.649664 0.438324 0.955874 0.120159
H123  H     H_    0.813885 0.999638 0.971641 0.122698
H124  H     H_    0.231833 0.006614 0.033881 0.169710
H125  H     H_    0.313885 0.499638 0.971641 0.122699
H126  H     H_    0.731833 0.506614 0.033881 0.169710
H127  H     H_    0.623939 0.030393 0.001389 0.178562
H128  H     H_    0.326049 0.476544 0.882577 0.146591
H129  H     H_    0.681514 0.977909 0.962727 0.185541
H130  H     H_    0.606673 0.938424 0.953085 0.150884
H131  H     H_    0.649592 0.797853 0.999174 0.203418
H132  H     H_    0.606818 0.867557 0.041729 0.194769
H133  H     H_    0.338614 0.808880 0.039702 0.144228
H134  H     H_    0.376273 0.899079 0.000011 0.189917
H135  H     H_    0.408280 0.773804 0.014349 0.216895
H136  H     H_    0.318086 0.693189 0.969745 0.184815
H137  H     H_    0.371794 0.754704 0.932918 0.151447
H138  H     H_    0.123939 0.530393 0.001389 0.178562
H139  H     H_    0.719051 0.485298 0.123124 0.152290
H140  H     H_    0.181514 0.477909 0.962727 0.185541
H141  H     H_    0.106673 0.438424 0.953085 0.150884
H142  H     H_    0.149592 0.297853 0.999174 0.203419
H143  H     H_    0.106818 0.367557 0.041729 0.194769
H144  H     H_    0.838614 0.308880 0.039702 0.144228
H145  H     H_    0.876273 0.399079 0.000011 0.189918
H146  H     H_    0.908280 0.273804 0.014349 0.216895
H147  H     H_    0.818086 0.193189 0.969745 0.184815
H148  H     H_    0.871794 0.254704 0.932918 0.151447
H149  H     H_    0.563118 0.404195 0.402088 0.308475
H150  H     H_    0.648626 0.934437 0.114111 0.137874
H151  H     H_    0.435759 0.403987 0.597505 0.308479
H152  H     H_    0.063114 0.904196 0.402087 0.308475
H153  H     H_    0.935757 0.903986 0.597505 0.308479
H154  H     H_    0.706879 0.672770 0.362981 0.155796
H155  H     H_    0.654269 0.681077 0.413049 0.142786
H156  H     H_    0.628229 0.661237 0.350375 0.154188
H157  H     H_    0.614008 0.845775 0.377607 0.146618
H158  H     H_    0.659875 0.827258 0.324286 0.175766
H159  H     H_    0.292617 0.673025 0.637224 0.155786
H160  H     H_    0.345561 0.680381 0.587379 0.142819
O1    O     O_R   0.769900 0.064540 0.196060 -0.520904
O2    O     O_R   0.433710 0.069580 0.694600 -0.538172
O3    O     O_R   0.066290 0.569580 0.305400 -0.537599
O4    O     O_R   0.933710 0.569580 0.694600 -0.538172
O5    O     O_R   0.680760 0.993330 0.302620 -0.507343
O6    O     O_R   0.319240 0.993330 0.697380 -0.508277
O7    O     O_R   0.180760 0.493330 0.302620 -0.507343
O8    O     O_R   0.819240 0.493330 0.697380 -0.508276
O9    O     O_3   0.668770 0.168760 0.250420 -0.270940
O10   O     O_3   0.331230 0.168760 0.749580 -0.267037
O11   O     O_3   0.168770 0.668760 0.250420 -0.270940
O12   O     O_R   0.230100 0.064540 0.803940 -0.528173
O13   O     O_3   0.831230 0.668760 0.749580 -0.267037
O14   O     O_R   0.750800 0.274080 0.199250 -0.492321
O15   O     O_R   0.249200 0.274080 0.800750 -0.495367
O16   O     O_R   0.250800 0.774080 0.199250 -0.492320
O17   O     O_R   0.749200 0.774080 0.800750 -0.495367
O18   O     O_R   0.669990 0.371670 0.194150 -0.517300
O19   O     O_R   0.330010 0.371670 0.805850 -0.523037
O20   O     O_R   0.169990 0.871670 0.194150 -0.517300
O21   O     O_R   0.830010 0.871670 0.805850 -0.523037
O22   O     O_R   0.574600 0.238480 0.197800 -0.519735
O23   O     O_R   0.269900 0.564540 0.196060 -0.520904
O24   O     O_R   0.425400 0.238480 0.802200 -0.517788
O25   O     O_R   0.074600 0.738480 0.197800 -0.519735
O26   O     O_R   0.925400 0.738480 0.802200 -0.517788
O27   O     O_R   0.566130 0.068680 0.194240 -0.524324
O28   O     O_R   0.433870 0.068680 0.805760 -0.523976
O29   O     O_R   0.066130 0.568680 0.194240 -0.524324
O30   O     O_R   0.933870 0.568680 0.805760 -0.523976
O31   O     O_R   0.680610 0.992490 0.199570 -0.505378
O32   O     O_R   0.319390 0.992490 0.800430 -0.504029
O33   O     O_R   0.180610 0.492490 0.199570 -0.505378
O34   O     O_R   0.730100 0.564540 0.803940 -0.528173
O35   O     O_R   0.819390 0.492490 0.800430 -0.504029
O36   O     O_R   0.770060 0.065440 0.307230 -0.520526
O37   O     O_R   0.229940 0.065440 0.692770 -0.519782
O38   O     O_R   0.270060 0.565440 0.307230 -0.520527
O39   O     O_R   0.729940 0.565440 0.692770 -0.519782
O40   O     O_R   0.750960 0.274920 0.302300 -0.500452
O41   O     O_R   0.249040 0.274920 0.697700 -0.500179
O42   O     O_R   0.250960 0.774920 0.302300 -0.500452
O43   O     O_R   0.749040 0.774920 0.697700 -0.500179
O44   O     O_R   0.670160 0.372580 0.305320 -0.474837
O45   O     O_R   0.574760 0.239320 0.300850 -0.431950
O46   O     O_R   0.329840 0.372580 0.694680 -0.474624
O47   O     O_R   0.170160 0.872580 0.305320 -0.474838
O48   O     O_R   0.829840 0.872580 0.694680 -0.474623
O49   O     O_3   0.559121 0.348644 0.376981 -0.676969
O50   O     O_3   0.440012 0.348490 0.622705 -0.677060
O51   O     O_3   0.059118 0.848645 0.376980 -0.676969
O52   O     O_3   0.940010 0.848489 0.622705 -0.677059
O53   O     O_3   0.488810 0.877645 0.954129 -0.689956
O54   O     O_3   0.489726 0.882053 0.053249 -0.700656
O55   O     O_3   0.988810 0.377645 0.954129 -0.689956
O56   O     O_R   0.425240 0.239320 0.699150 -0.431815
O57   O     O_3   0.989726 0.382053 0.053249 -0.700656
O58   O     O_3   0.733785 0.679904 0.989951 -0.734447
O59   O     O_3   0.220072 0.661218 0.005245 -0.735745
O60   O     O_3   0.233785 0.179904 0.989951 -0.734447
O61   O     O_3   0.720072 0.161218 0.005245 -0.735745
O62   O     O_R   0.074760 0.739320 0.300850 -0.431950
O63   O     O_R   0.925240 0.739320 0.699150 -0.431815
O64   O     O_R   0.566290 0.069580 0.305400 -0.537599

loop_
_geom_bond_atom_site_label_1
_geom_bond_atom_site_label_2
_ccdc_geom_bond_type
C172  C177  A    
C97   H155  S    
C21   C26   A    
C34   C56   A    
C103  H16   S    
H17   O53   S    
C192  O52   S    
C101  C113  A    
C88   H127  S    
C106  H23   S    
C136  C140  A    
C171  H123  S    
C41   O42   A    
C185  C190  A    
C162  H114  S    
C133  C137  A    
C86   O57   S    
C40   O41   A    
Cr7   O13   S    
Cr8   O18   S    
C167  H106  S    
C119  H59   S    
C29   C33   A    
C169  H128  S    
C111  H41   S    
C79   C90   A    
C204  C208  A    
C95   H146  S    
C93   H138  S    
C14   C98   S    
C121  H64   S    
C132  O16   A    
C65   O64   A    
C81   C86   A    
H152  O51   S    
C118  H49   S    
C93   H141  S    
C167  C180  A    
C5    H70   S    
C92   C147  S    
C46   C124  A    
C80   C83   A    
C6    C186  A    
C9    C31   A    
C27   C117  S    
C25   C29   A    
C38   H82   S    
C202  C203  S    
C27   C31   A    
C28   C32   A    
C117  H53   S    
C47   C64   A    
C72   O38   A    
C167  C171  A    
Cr9   O10   S    
C91   H135  S    
C17   C21   A    
C152  C176  S    
C99   H160  S    
C13   H104  S    
C44   H85   S    
C19   C23   A    
C191  O51   S    
C116  H44   S    
C132  C181  S    
Cr9   O24   S    
C7    H72   S    
C201  O35   A    
Cr7   O34   S    
C16   C20   A    
C40   O46   A    
Cr12  O5    S    
Cr10  O11   S    
C160  C178  A    
C112  O19   A    
C22   C27   A    
C36   C44   A    
C106  H21   S    
C37   C45   A    
C24   C176  A    
C192  C196  A    
C115  H48   S    
C43   C61   A    
H149  O49   S    
C170  C174  A    
C39   O44   A    
Cr8   O22   S    
C161  O61   S    
C49   C62   A    
C55   C111  S    
C66   O2    A    
Cr4   O35   S    
Cr10  O20   S    
C51   C64   A    
C122  H60   S    
C140  C145  A    
C22   C58   S    
C129  C156  A    
C53   C58   A    
C120  H54   S    
C82   C85   A    
C108  H28   S    
C67   O62   A    
C128  C199  S    
C165  C198  A    
C197  O31   A    
C76   H95   S    
C203  C207  A    
C77   C82   A    
C110  H34   S    
C49   C53   A    
C93   H140  S    
Cr8   O9    S    
C51   C55   A    
C122  H61   S    
C127  C131  A    
C169  C182  A    
C4    H71   S    
C36   H80   S    
C83   O53   S    
C89   H136  S    
C114  H38   S    
C48   C52   A    
C98   C99   S    
C47   H87   S    
Cr1   O1    S    
C143  O17   A    
C66   O56   A    
C74   C165  A    
Cr7   O43   S    
C65   O45   A    
Cr8   O44   S    
C13   C187  A    
C67   O3    A    
C163  C181  A    
Cr5   O15   S    
C92   H143  S    
Cr6   O16   S    
C198  H102  S    
C1    C183  S    
C123  C124  A    
C81   C101  A    
C153  H150  S    
C195  H77   S    
C23   C59   S    
C158  O58   S    
C42   O48   A    
C130  C157  A    
C163  H115  S    
C100  H9    S    
H151  O50   S    
Cr10  O47   S    
C57   C125  A    
Cr1   O14   S    
C3    H57   S    
C13   C57   A    
C115  C116  S    
C186  C191  A    
C189  O49   S    
C72   O7    A    
C143  O21   A    
Cr9   O19   S    
C98   H4    S    
Cr4   O4    S    
C107  C108  S    
C89   C91   S    
C136  H119  S    
C114  H39   S    
C6    C208  A    
C96   H158  S    
C170  H139  S    
C104  H14   S    
C2    C154  A    
Cr7   O17   S    
C50   C63   A    
C33   H100  S    
C124  H105  S    
C120  H56   S    
C54   C59   A    
C94   C148  S    
C99   H3    S    
C146  C155  A    
C3    C205  A    
C11   C33   A    
C149  C165  S    
C131  C136  A    
C104  H11   S    
Cr8   O45   S    
C110  H32   S    
C1    O14   A    
C132  O20   A    
Cr11  O26   S    
C173  H125  S    
C83   C84   A    
C69   C188  S    
C8    C12   A    
C2    H101  S    
C149  O22   A    
C102  H8    S    
C197  O1    A    
C23   C28   A    
C166  H118  S    
C105  H25   S    
C37   C59   A    
C38   C60   A    
C199  O32   A    
H153  O52   S    
C25   C60   S    
C52   C105  S    
C26   C30   A    
C77   C176  A    
C66   C185  S    
C94   H147  S    
C97   H154  S    
C103  H15   S    
C107  H30   S    
C18   C22   A    
C142  C147  A    
Cr2   O28   S    
C34   C43   A    
C82   C113  A    
C133  H111  S    
C41   C62   S    
C194  H76   S    
C57   C101  A    
C109  H36   S    
C8    C70   S    
Cr12  O9    S    
C188  C192  A    
Cr6   O23   S    
C35   C123  A    
C117  C118  S    
C112  O15   A    
C142  C178  S    
C173  C178  A    
C20   H91   S    
C206  H46   S    
C17   H88   S    
C35   C79   A    
C148  C157  A    
C191  C195  A    
H18   O54   S    
C189  C193  A    
C158  C175  A    
C204  C205  S    
C95   H145  S    
C169  C173  A    
C121  H63   S    
Cr11  O13   S    
Cr4   O30   S    
C70   O5    A    
Cr3   O3    S    
C118  H50   S    
C65   C184  S    
C10   C72   S    
C87   C88   S    
C134  H112  S    
C174  H126  S    
Cr2   O6    S    
Cr3   O11   S    
C130  C135  A    
C5    C185  A    
C15   C100  S    
Cr2   O32   S    
C87   H132  S    
Cr1   O36   S    
C15   C19   A    
C39   C64   S    
C69   O63   A    
C50   C54   A    
C40   C63   S    
Cr10  O25   S    
C141  C177  S    
C160  C164  A    
C92   H142  S    
C157  H24   S    
C152  O30   A    
C3    C7    A    
H67   O60   S    
C150  O28   A    
C95   H144  S    
C208  H68   S    
C20   C25   A    
C102  H6    S    
C42   O43   A    
C99   H159  S    
C199  O12   A    
C48   H92   S    
C26   C115  S    
C201  O34   A    
C200  O33   A    
C32   H99   S    
C29   C121  S    
C12   C17   A    
C193  H75   S    
C85   O55   S    
C68   C113  A    
C98   H5    S    
C97   H156  S    
C55   C60   A    
C45   H86   S    
C106  H22   S    
C127  C197  S    
C115  H47   S    
C77   H84   S    
Cr1   O40   S    
H65   O58   S    
C11   C73   S    
Cr2   O2    S    
C195  C204  A    
C159  O59   S    
C85   C86   A    
C43   H83   S    
C160  O60   S    
C91   H133  S    
C193  C202  A    
C84   O54   S    
C9    C14   A    
C111  H42   S    
Cr1   O9    S    
H20   O57   S    
C200  O23   A    
C11   C16   A    
C53   C107  S    
C16   C103  S    
Cr11  O21   S    
Cr5   O41   S    
C147  C156  A    
C122  H62   S    
C121  C122  S    
C76   C187  A    
C141  C146  A    
C149  O27   A    
C138  C142  A    
C125  C126  A    
C137  C141  A    
Cr11  O63   S    
C1    O18   A    
C87   C145  S    
C24   H103  S    
C74   H73   S    
C166  C183  A    
C9    C71   S    
C69   O4    A    
C21   C56   S    
C119  C120  S    
C46   C90   A    
C105  C106  S    
C135  C139  A    
C107  H31   S    
C108  H29   S    
C8    C30   A    
C100  H10   S    
C116  H43   S    
C109  C110  S    
C31   H98   S    
C140  C175  S    
C123  H107  S    
C92   C93   S    
C111  C114  S    
C94   C95   S    
C164  C182  A    
C24   C68   A    
C129  C134  A    
C168  C172  A    
C74   C78   A    
Cr9   O56   S    
C126  H108  S    
C103  C104  S    
C12   C96   S    
C137  H120  S    
C114  H40   S    
C151  C187  S    
C170  C183  A    
H66   O59   S    
C14   C18   A    
Cr5   O10   S    
C144  C148  A    
C127  C153  A    
C119  H58   S    
C151  O25   A    
C2    C46   A    
C108  H27   S    
Cr3   O29   S    
Cr11  O48   S    
C19   H90   S    
C36   C58   A    
C10   C15   A    
C104  H12   S    
C5    C207  A    
C110  H33   S    
C37   H81   S    
C168  C181  A    
C196  C205  A    
C207  H35   S    
C71   O37   A    
C128  C155  A    
C89   H137  S    
C172  H124  S    
C196  H78   S    
Cr4   O8    S    
C34   H79   S    
Cr2   O10   S    
C138  H121  S    
Cr3   O7    S    
C130  C201  S    
Cr10  O62   S    
C75   C80   A    
C161  C166  A    
Cr3   O33   S    
C67   C186  S    
C145  C153  A    
Cr12  O27   S    
C73   O39   A    
C71   O6    A    
C80   C90   A    
C152  O26   A    
C159  C177  A    
C94   H148  S    
C150  O24   A    
Cr4   O13   S    
C70   O36   A    
C151  O29   A    
C91   H134  S    
C89   C146  S    
C139  H122  S    
C7    C188  A    
C116  H45   S    
C30   H97   S    
C131  H110  S    
C158  C162  A    
C78   C79   A    
C112  C182  S    
C51   H96   S    
C44   C62   A    
C39   O40   A    
C171  C175  A    
C45   C63   A    
C54   C109  S    
C50   H94   S    
Cr12  O64   S    
C10   C32   A    
C139  C144  A    
C144  C179  S    
C156  H13   S    
C96   C97   S    
C100  C102  S    
C143  C180  S    
C4    C184  A    
C41   O47   A    
C42   C61   S    
C38   C47   A    
C96   H157  S    
Cr12  O31   S    
C150  C154  S    
C159  C163  A    
C125  H109  S    
C161  C179  A    
Cr5   O12   S    
C68   C126  A    
Cr6   O11   S    
C88   H129  S    
C117  H52   S    
C49   H93   S    
C120  H55   S    
C118  H51   S    
C164  H116  S    
C18   H89   S    
C162  C180  A    
C28   C119  S    
C87   H131  S    
C76   C81   A    
C134  C138  A    
Cr7   O39   S    
C6    H74   S    
C4    C206  A    
C135  H113  S    
Cr5   O37   S    
Cr6   O42   S    
C73   O8    A    
H69   O61   S    
Cr6   O38   S    
C128  C133  A    
C75   C154  A    
C48   C61   A    
H19   O55   S    
C194  C203  A    
C168  H117  S    
C102  H7    S    
Cr9   O46   S    
C109  H37   S    
C88   H130  S    
C105  H26   S    
C129  C200  S    
C190  C194  A    
C190  O50   S    
C78   C84   A    
C75   H1    S    
C202  C206  A    
C184  C189  A    
C155  H2    S    
C174  C179  A    
C52   C56   A    
C35   C198  A    
