data_mof_unit_23208.cif
_audit_creation_date              2012-12-10T16:34:46-0500
_audit_creation_method            fapswitch 2.2
_symmetry_space_group_name_H-M    P1
_symmetry_Int_Tables_number       1
_space_group_crystal_system       triclinic
_cell_length_a                    28.123843
_cell_length_b                    18.574065
_cell_length_c                    17.010527
_cell_angle_alpha                 90.245235
_cell_angle_beta                  61.008336
_cell_angle_gamma                 89.741687
_cell_volume                      7772.08235204

loop_
_atom_site_label
_atom_site_type_symbol
_atom_type_description
_atom_site_fract_x
_atom_site_fract_y
_atom_site_fract_z
_atom_type_partial_charge
C1    C     C_R   0.701256 0.267994 0.676342 0.901149
C2    C     C_R   0.087226 0.499909 0.538356 -0.019822
C3    C     C_R   0.181552 0.231547 0.911253 -0.001015
C4    C     C_R   0.075405 0.097571 0.932886 0.966598
C5    C     C_R   0.926767 0.899240 0.065031 0.924433
C6    C     C_R   0.927884 0.102323 0.063941 0.958077
C7    C     C_R   0.071038 0.896500 0.936946 0.885589
C8    C     C_R   0.573242 0.600906 0.935027 0.959370
C9    C     C_R   0.426025 0.400054 0.065523 0.918160
C10   C     C_R   0.428232 0.602654 0.063626 0.950114
C11   C     C_R   0.570956 0.396426 0.937030 0.896076
C12   C     C_R   0.532062 0.132164 0.555667 0.075938
C13   C     C_R   0.398080 0.004743 0.505420 -0.061404
C14   C     C_R   0.428559 0.877247 0.557936 0.081004
C15   C     C_R   0.454457 0.132907 0.495019 -0.017803
C16   C     C_R   0.533586 0.871993 0.538265 0.064652
C17   C     C_R   0.020678 0.624247 0.598992 0.075307
C18   C     C_R   0.938039 0.370829 0.536146 -0.008738
C19   C     C_R   0.920879 0.628237 0.593321 -0.004538
C20   C     C_R   0.046803 0.374401 0.498521 0.063804
C21   C     C_R   0.512361 0.197807 0.541503 -0.144230
C22   C     C_R   0.450916 0.811000 0.563879 -0.190442
C23   C     C_R   0.476207 0.198037 0.506457 -0.252786
C24   C     C_R   0.584131 0.000297 0.545497 -0.016905
C25   C     C_R   0.504848 0.807966 0.547198 -0.186102
C26   C     C_R   0.988461 0.687055 0.623036 -0.152409
C27   C     C_R   0.969442 0.307409 0.511721 -0.261844
C28   C     C_R   0.940350 0.689768 0.617589 -0.259276
C29   C     C_R   0.024206 0.309955 0.488647 -0.144201
C30   C     C_R   0.467943 0.068932 0.522810 0.023478
C31   C     C_R   0.507858 0.938014 0.546419 -0.014720
C32   C     C_R   0.510748 0.067900 0.543258 -0.010342
C33   C     C_R   0.458529 0.940199 0.544960 -0.012785
C34   C     C_R   0.952184 0.564459 0.572316 0.022542
C35   C     C_R   0.101650 0.378161 0.475272 0.406819
C36   C     C_R   0.014328 0.436834 0.528967 -0.016609
C37   C     C_R   0.002806 0.563211 0.571927 -0.009351
C38   C     C_R   0.961585 0.436249 0.539692 0.028261
C39   C     C_R   0.931980 0.500768 0.555277 -0.042568
C40   C     C_R   0.034919 0.500173 0.546090 -0.047544
C41   C     C_R   0.440911 0.004954 0.525720 -0.035078
C42   C     C_R   0.533618 0.002050 0.547309 -0.043300
C43   C     C_R   0.861147 0.435250 0.541883 -0.053673
C44   C     C_R   0.106667 0.561869 0.562138 -0.126295
C45   C     C_R   0.120349 0.437490 0.506174 -0.091203
C46   C     C_R   0.871599 0.628696 0.588067 0.415863
C47   C     C_R   0.856642 0.566894 0.554844 -0.015025
C48   C     C_R   0.367067 0.941635 0.519406 -0.129107
C49   C     C_R   0.605957 0.064674 0.559255 -0.137902
C50   C     C_R   0.613797 0.934974 0.524083 -0.108582
C51   C     C_R   0.386910 0.067183 0.470403 -0.037100
C52   C     C_R   0.816334 0.436205 0.524567 -0.152566
C53   C     C_R   0.163180 0.562966 0.538314 -0.179311
C54   C     C_R   0.170909 0.437203 0.506158 -0.253042
C55   C     C_R   0.812987 0.566246 0.533691 -0.219545
C56   C     C_R   0.330207 0.938935 0.483908 -0.213309
C57   C     C_R   0.883509 0.370964 0.555848 0.429322
C58   C     C_R   0.661682 0.063790 0.539783 -0.177803
C59   C     C_R   0.666680 0.936162 0.516624 -0.242498
C60   C     C_R   0.341913 0.065447 0.453424 -0.120746
C61   C     C_R   0.788948 0.500718 0.532056 0.320769
C62   C     C_R   0.195430 0.501405 0.504287 0.372876
C63   C     C_R   0.319726 0.000602 0.448198 0.317828
C64   C     C_R   0.692395 0.000812 0.509806 0.369707
C65   C     C_3   0.804813 0.386184 0.825527 -0.785088
C66   C     C_3   0.268962 0.551450 0.000752 -0.762723
C67   C     C_3   0.143638 0.349618 0.226353 -0.742895
C68   C     C_R   0.069788 0.621185 0.602821 0.404438
C69   C     C_3   0.788846 0.593119 0.853589 -0.762268
C70   C     C_3   0.297625 0.892766 0.838174 -0.792887
C71   C     C_3   0.757920 0.053172 0.023408 -0.772735
C72   C     C_3   0.648198 0.819275 0.228783 -0.739761
C73   C     C_3   0.272241 0.099764 0.876673 -0.764833
C74   C     C_3   0.540082 0.268349 0.830779 -0.710593
C75   C     C_3   0.434787 0.756405 0.217343 -0.710111
C76   C     C_3   0.421569 0.344953 0.260278 -0.600902
C77   C     C_3   0.564829 0.754861 0.785248 -0.712194
C78   C     C_3   0.039430 0.769620 0.831341 -0.674551
C79   C     C_R   0.589416 0.872336 0.508338 0.419496
C80   C     C_3   0.935066 0.255871 0.217221 -0.710326
C81   C     C_3   0.920207 0.849815 0.264160 -0.607482
C82   C     C_3   0.114377 0.091711 0.708669 -0.614752
C83   C     C_R   0.420599 0.128929 0.454847 0.442194
C84   C     C_R   0.377687 0.882327 0.562387 0.418854
C85   C     C_R   0.298792 0.732087 0.323659 0.922129
C86   C     C_R   0.572857 0.128568 0.580856 0.411338
C87   C     C_R   0.720793 0.264616 0.952759 0.090324
C88   C     C_R   0.276341 0.734061 0.050657 -0.001675
C89   C     C_R   0.266801 0.283989 0.058820 0.037529
C90   C     C_R   0.722152 0.737665 0.950548 0.034384
C91   C     C_R   0.220296 0.763401 0.953299 0.092608
C92   C     C_R   0.776432 0.235917 0.050887 -0.001936
C93   C     C_R   0.774237 0.770173 0.052922 0.034651
C94   C     C_R   0.212814 0.253524 0.957892 0.050738
C95   C     C_R   0.754360 0.317419 0.960174 0.262005
C96   C     C_R   0.297859 0.269413 0.324133 0.925312
C97   C     C_R   0.247480 0.678582 0.034634 0.243786
C98   C     C_R   0.217171 0.318725 0.080057 0.217491
C99   C     C_R   0.774809 0.710489 0.923711 0.219521
C100  C     C_R   0.250049 0.817979 0.967653 0.272436
C101  C     C_R   0.743324 0.182429 0.042491 0.242782
C102  C     C_R   0.721946 0.798064 0.078935 0.209773
C103  C     C_R   0.263374 0.220739 0.934830 0.243310
C104  C     C_R   0.781296 0.302952 0.009913 -0.294360
C105  C     C_R   0.219163 0.694349 0.987255 -0.249378
C106  C     C_R   0.191211 0.304169 0.028492 -0.328435
C107  C     C_R   0.701164 0.732432 0.676323 0.891101
C108  C     C_R   0.800306 0.727212 0.974966 -0.282275
C109  C     C_R   0.276955 0.803224 0.017308 -0.292134
C110  C     C_R   0.715409 0.197843 0.994435 -0.241860
C111  C     C_R   0.696620 0.781893 0.027245 -0.277951
C112  C     C_R   0.289791 0.236415 0.985023 -0.278531
C113  C     C_R   0.638347 0.316765 0.952608 0.417266
C114  C     C_R   0.359919 0.679836 0.048552 0.405738
C115  C     C_R   0.347520 0.341990 0.060735 0.395062
C116  C     C_R   0.644916 0.672319 0.946372 0.374751
C117  C     C_R   0.138081 0.816252 0.952807 0.420141
C118  C     C_R   0.201177 0.767834 0.676382 0.889911
C119  C     C_R   0.859151 0.179112 0.049203 0.405985
C120  C     C_R   0.851947 0.834013 0.057112 0.389757
C121  C     C_R   0.136422 0.184913 0.951716 0.380480
C122  C     C_R   0.610116 0.337111 0.905135 -0.252235
C123  C     C_R   0.387858 0.660154 0.096264 -0.164518
C124  C     C_R   0.381526 0.349414 0.101255 -0.195416
C125  C     C_R   0.614691 0.656397 0.901353 -0.166953
C126  C     C_R   0.110026 0.836954 0.905173 -0.255760
C127  C     C_R   0.887409 0.159750 0.096610 -0.167724
C128  C     C_R   0.884103 0.845938 0.099929 -0.198448
C129  C     C_R   0.798906 0.232395 0.323630 0.915116
C130  C     C_R   0.119557 0.147796 0.895935 -0.191533
C131  C     C_R   0.625460 0.307565 0.820752 0.094798
C132  C     C_R   0.374010 0.690819 0.178905 0.065489
C133  C     C_R   0.369714 0.314377 0.180570 0.063395
C134  C     C_R   0.627164 0.688787 0.820318 0.057574
C135  C     C_R   0.125273 0.807336 0.820854 0.092855
C136  C     C_R   0.873970 0.190909 0.178874 0.066006
C137  C     C_R   0.871835 0.812733 0.180727 0.068414
C138  C     C_R   0.147243 0.154642 0.803372 0.066101
C139  C     C_R   0.677151 0.278048 0.773003 -0.086186
C140  C     C_R   0.798619 0.768037 0.323879 0.933549
C141  C     C_R   0.322852 0.722125 0.227017 -0.107755
C142  C     C_R   0.318068 0.286096 0.230160 -0.102286
C143  C     C_R   0.677574 0.721452 0.772581 -0.107798
C144  C     C_R   0.176895 0.777536 0.773176 -0.097169
C145  C     C_R   0.823048 0.222806 0.226920 -0.108073
C146  C     C_R   0.820886 0.781802 0.228749 -0.108805
C147  C     C_R   0.182065 0.212176 0.768478 -0.102133
C148  C     C_R   0.708043 0.262743 0.816516 -0.339081
C149  C     C_R   0.291851 0.738018 0.183671 -0.291267
C150  C     C_R   0.283426 0.277963 0.191576 -0.280215
C151  C     C_R   0.203269 0.228334 0.674830 0.945670
C152  C     C_R   0.708341 0.738106 0.815817 -0.239757
C153  C     C_R   0.207594 0.761706 0.816919 -0.357176
C154  C     C_R   0.792244 0.239530 0.183491 -0.299507
C155  C     C_R   0.788594 0.768516 0.187231 -0.277355
C156  C     C_R   0.201279 0.248705 0.820750 -0.271572
C157  C     C_R   0.692356 0.128960 0.530899 0.928460
C158  C     C_R   0.304293 0.872377 0.479785 0.928367
C159  C     C_R   0.308883 0.129600 0.465395 0.961137
C160  C     C_R   0.695389 0.871727 0.519323 0.882650
C161  C     C_R   0.192512 0.628876 0.531048 0.936836
C162  C     C_R   0.883303 0.501209 0.550204 -0.091405
C163  C     C_R   0.797781 0.370812 0.498034 0.980654
C164  C     C_R   0.794878 0.631356 0.505160 0.967902
C165  C     C_R   0.197253 0.371874 0.514162 0.893846
C166  C     C_R   0.688221 0.280454 0.906939 0.070072
C167  C     C_R   0.310744 0.719160 0.093661 -0.038802
C168  C     C_R   0.299097 0.302362 0.104917 -0.002748
C169  C     C_R   0.691109 0.716508 0.903966 -0.010680
C170  C     C_R   0.187715 0.779295 0.907418 0.071448
C171  C     C_R   0.810757 0.220151 0.093777 -0.034189
C172  C     C_R   0.805144 0.791315 0.099859 0.002585
H1    H     H_    0.048293 0.260972 0.465942 0.184842
H2    H     H_    0.300225 0.845305 0.027008 0.162912
H3    H     H_    0.953430 0.282942 0.150897 0.236627
H4    H     H_    0.949700 0.781217 0.152509 0.204656
H5    H     H_    0.961639 0.873193 0.229769 0.209670
H6    H     H_    0.916494 0.820849 0.323773 0.234161
H7    H     H_    0.889690 0.894263 0.286397 0.238657
H8    H     H_    0.158369 0.045719 0.766201 0.212103
H9    H     H_    0.138358 0.087134 0.634381 0.224597
H10   H     H_    0.088923 0.042655 0.732063 0.213302
H11   H     H_    0.087512 0.140057 0.727351 0.240919
H12   H     H_    0.328819 0.211429 0.966036 0.163585
H13   H     H_    0.656592 0.803858 0.047046 0.170117
H14   H     H_    0.195457 0.652805 0.977805 0.158401
H15   H     H_    0.807502 0.343500 0.014349 0.161718
H16   H     H_    0.841031 0.707039 0.953490 0.166257
H17   H     H_    0.153294 0.331222 0.044825 0.164491
H18   H     H_    0.747912 0.237871 0.780083 0.193871
H19   H     H_    0.252197 0.763457 0.220269 0.198868
H20   H     H_    0.244373 0.251879 0.228352 0.202725
H21   H     H_    0.919466 0.741081 0.631284 0.152646
H22   H     H_    0.746122 0.767387 0.780968 0.193121
H23   H     H_    0.247492 0.736903 0.780507 0.204189
H24   H     H_    0.752928 0.265877 0.219884 0.198125
H25   H     H_    0.750600 0.739809 0.222430 0.196338
H26   H     H_    0.233620 0.287750 0.790131 0.186471
H27   H     H_    0.714938 0.535516 0.584167 0.330800
H28   H     H_    0.268106 0.469643 0.415677 0.323479
H29   H     H_    0.249449 0.996887 0.457147 0.351557
H30   H     H_    0.763849 0.969485 0.417101 0.324356
H31   H     H_    0.172699 0.350885 0.378649 0.333976
H32   H     H_    0.952723 0.256744 0.505140 0.156529
H33   H     H_    0.838317 0.708567 0.672380 0.326096
H34   H     H_    0.868331 0.281469 0.624056 0.317292
H35   H     H_    0.100600 0.652865 0.676830 0.321946
H36   H     H_    0.653963 0.842767 0.400073 0.337102
H37   H     H_    0.458417 0.207324 0.371684 0.320896
H38   H     H_    0.302502 0.857641 0.638178 0.320535
H39   H     H_    0.593351 0.166136 0.666061 0.329747
H40   H     H_    0.763706 0.427680 0.954580 0.230543
H41   H     H_    0.803909 0.437864 0.793940 0.247932
H42   H     H_    0.800162 0.342068 0.785745 0.269313
H43   H     H_    0.001365 0.735401 0.643013 0.186093
H44   H     H_    0.844757 0.380392 0.823463 0.232572
H45   H     H_    0.255097 0.603014 0.118837 0.234413
H46   H     H_    0.266126 0.499034 0.033752 0.231837
H47   H     H_    0.312537 0.562709 0.954724 0.277780
H48   H     H_    0.247103 0.546774 0.961425 0.234197
H49   H     H_    0.191474 0.420949 0.127399 0.228756
H50   H     H_    0.130401 0.391510 0.279693 0.254939
H51   H     H_    0.148630 0.297484 0.253374 0.274095
H52   H     H_    0.111439 0.344327 0.206735 0.226039
H53   H     H_    0.844698 0.675375 0.811945 0.223942
H54   H     H_    0.523804 0.756038 0.542371 0.180743
H55   H     H_    0.810852 0.566260 0.786848 0.238550
H56   H     H_    0.744603 0.586323 0.879154 0.256787
H57   H     H_    0.800640 0.566870 0.900263 0.233507
H58   H     H_    0.255218 0.928766 0.969777 0.232980
H59   H     H_    0.293876 0.944299 0.809096 0.239148
H60   H     H_    0.295407 0.848428 0.796250 0.273124
H61   H     H_    0.337762 0.890607 0.835954 0.240051
H62   H     H_    0.745307 0.111844 0.136249 0.234598
H63   H     H_    0.749627 0.002733 0.062549 0.232733
H64   H     H_    0.802587 0.058376 0.980468 0.274626
H65   H     H_    0.464168 0.249246 0.491139 0.152840
H66   H     H_    0.738438 0.049087 0.980321 0.237265
H67   H     H_    0.689431 0.896488 0.133315 0.223180
H68   H     H_    0.631324 0.860817 0.282705 0.250625
H69   H     H_    0.658109 0.770146 0.255096 0.260946
H70   H     H_    0.616539 0.806486 0.209757 0.236203
H71   H     H_    0.330731 0.178682 0.824199 0.228375
H72   H     H_    0.290833 0.069431 0.812211 0.232978
H73   H     H_    0.227428 0.095209 0.907692 0.260453
H74   H     H_    0.285953 0.075587 0.922028 0.235612
H75   H     H_    0.578662 0.325621 0.073217 0.329583
H76   H     H_    0.428858 0.761354 0.572782 0.183726
H77   H     H_    0.363493 0.686232 0.930671 0.335383
H78   H     H_    0.331037 0.378470 0.968332 0.331034
H79   H     H_    0.659308 0.643274 0.043775 0.341463
H80   H     H_    0.078352 0.825483 0.073325 0.330112
H81   H     H_    0.860558 0.181273 0.932554 0.335366
H82   H     H_    0.835517 0.868273 0.963925 0.332876
H83   H     H_    0.125414 0.199479 0.074114 0.340472
H84   H     H_    0.586850 0.356357 0.755701 0.264888
H85   H     H_    0.513056 0.293961 0.896879 0.218658
H86   H     H_    0.549109 0.211996 0.841218 0.226822
H87   H     H_    0.527809 0.248532 0.551020 0.181034
H88   H     H_    0.518388 0.267266 0.790957 0.263838
H89   H     H_    0.402782 0.653281 0.264605 0.261509
H90   H     H_    0.467242 0.747040 0.235559 0.235395
H91   H     H_    0.403200 0.792055 0.268998 0.237618
H92   H     H_    0.453103 0.783434 0.150994 0.236135
H93   H     H_    0.447232 0.277734 0.148053 0.207113
H94   H     H_    0.463669 0.366114 0.224424 0.204687
H95   H     H_    0.417989 0.314556 0.318852 0.250363
H96   H     H_    0.392404 0.391014 0.284312 0.234847
H97   H     H_    0.598088 0.652042 0.734693 0.258506
H98   H     H_    0.688692 0.157853 0.990525 0.158571
H99   H     H_    0.595696 0.790747 0.734116 0.232395
H100  H     H_    0.532106 0.745653 0.767695 0.236817
H101  H     H_    0.546630 0.781554 0.852269 0.234356
H102  H     H_    0.087227 0.856565 0.755226 0.252667
H103  H     H_    0.012690 0.795802 0.897160 0.212672
H104  H     H_    0.047770 0.713133 0.842486 0.230405
H105  H     H_    0.017673 0.768931 0.791609 0.255126
H106  H     H_    0.902670 0.152915 0.264483 0.260652
H107  H     H_    0.967539 0.246138 0.235305 0.236705
H108  H     H_    0.903644 0.291634 0.268965 0.233440
N1    N     N_2   0.761197 0.385197 0.917522 -0.291847
N2    N     N_2   0.411731 0.688184 0.212429 -0.281615
N3    N     N_2   0.411895 0.296809 0.201975 -0.282942
N4    N     N_2   0.588964 0.686566 0.787776 -0.277108
N5    N     N_2   0.089972 0.808306 0.782479 -0.264901
N6    N     N_2   0.911717 0.187891 0.212335 -0.277641
N7    N     N_2   0.913330 0.799222 0.205042 -0.293883
N8    N     N_2   0.151146 0.095019 0.746085 -0.296719
N9    N     N_2   0.245037 0.607634 0.068308 -0.304628
N10   N     N_2   0.194527 0.370787 0.150342 -0.317692
N11   N     N_2   0.803128 0.668440 0.843914 -0.317156
N12   N     N_2   0.254230 0.887368 0.929976 -0.292300
N13   N     N_2   0.736256 0.113990 0.084391 -0.302568
N14   N     N_2   0.696523 0.846827 0.152649 -0.319657
N15   N     N_2   0.288967 0.174038 0.858871 -0.305063
N16   N     N_2   0.590124 0.308118 0.782452 -0.269346
O1    O     O_R   0.746490 0.236330 0.638080 -0.622912
O2    O     O_R   0.325830 0.813840 0.483730 -0.597015
O3    O     O_R   0.325830 0.186160 0.483730 -0.587924
O4    O     O_R   0.674170 0.813840 0.516270 -0.595576
O5    O     O_R   0.174170 0.686160 0.516270 -0.599263
O6    O     O_R   0.825830 0.313840 0.483730 -0.603169
O7    O     O_R   0.825830 0.686160 0.483730 -0.575950
O8    O     O_R   0.174170 0.313840 0.516270 -0.588498
O9    O     O_R   0.739960 0.127620 0.525000 -0.561136
O10   O     O_R   0.260040 0.872380 0.475000 -0.620270
O11   O     O_R   0.260040 0.127620 0.475000 -0.625522
O12   O     O_R   0.253510 0.763670 0.361920 -0.631955
O13   O     O_R   0.739960 0.872380 0.525000 -0.597706
O14   O     O_R   0.239960 0.627620 0.525000 -0.559982
O15   O     O_R   0.760040 0.372380 0.475000 -0.572024
O16   O     O_R   0.760040 0.627620 0.475000 -0.606341
O17   O     O_R   0.239960 0.372380 0.525000 -0.600014
O18   O     O_R   0.680700 0.294870 0.629350 -0.613209
O19   O     O_R   0.319300 0.705130 0.370650 -0.629532
O20   O     O_R   0.319300 0.294870 0.370650 -0.619250
O21   O     O_R   0.680700 0.705130 0.629350 -0.659711
O22   O     O_R   0.180700 0.794870 0.629350 -0.615308
O23   O     O_R   0.253510 0.236330 0.361920 -0.633372
O24   O     O_R   0.819300 0.205130 0.370650 -0.629562
O25   O     O_R   0.819300 0.794870 0.370650 -0.623119
O26   O     O_R   0.180700 0.205130 0.629350 -0.616790
O27   O     O_R   0.062020 0.072840 0.007170 -0.546588
O28   O     O_R   0.937980 0.927160 0.992830 -0.549348
O29   O     O_R   0.937980 0.072840 0.992830 -0.553493
O30   O     O_R   0.062020 0.927160 0.007170 -0.600752
O31   O     O_R   0.562020 0.572840 0.007170 -0.546258
O32   O     O_R   0.437980 0.427160 0.992830 -0.550122
O33   O     O_R   0.437980 0.572840 0.992830 -0.550931
O34   O     O_R   0.746490 0.763670 0.638080 -0.604005
O35   O     O_R   0.562020 0.427160 0.007170 -0.597669
O36   O     O_R   0.947860 0.073950 0.109290 -0.621117
O37   O     O_R   0.052140 0.926050 0.890710 -0.638331
O38   O     O_R   0.052140 0.073950 0.890710 -0.638494
O39   O     O_R   0.947860 0.926050 0.109290 -0.642183
O40   O     O_R   0.447860 0.573950 0.109290 -0.627150
O41   O     O_R   0.552140 0.426050 0.890710 -0.628744
O42   O     O_R   0.552140 0.573950 0.890710 -0.626407
O43   O     O_R   0.447860 0.426050 0.109290 -0.643501
O44   O     O_3   0.737857 0.498484 0.539358 -0.726278
O45   O     O_R   0.246490 0.736330 0.638080 -0.623065
O46   O     O_3   0.251523 0.505092 0.465840 -0.730292
O47   O     O_3   0.287566 0.998555 0.407633 -0.729318
O48   O     O_3   0.748611 0.003720 0.468669 -0.730200
O49   O     O_3   0.136528 0.328257 0.413565 -0.775223
O50   O     O_3   0.834694 0.684787 0.623570 -0.754258
O51   O     O_3   0.849547 0.314625 0.602403 -0.760088
O52   O     O_3   0.078490 0.674023 0.651624 -0.765234
O53   O     O_3   0.619137 0.820692 0.444314 -0.757609
O54   O     O_3   0.424851 0.178918 0.391645 -0.755741
O55   O     O_3   0.338444 0.833935 0.616309 -0.763737
O56   O     O_R   0.753510 0.263670 0.361920 -0.637737
O57   O     O_3   0.576388 0.184888 0.630883 -0.757515
O58   O     O_3   0.618623 0.332010 0.042604 -0.748940
O59   O     O_3   0.381518 0.659513 0.959233 -0.757869
O60   O     O_3   0.362745 0.373613 0.978330 -0.749327
O61   O     O_3   0.628748 0.643446 0.030494 -0.745934
O62   O     O_3   0.118339 0.831584 0.042785 -0.750382
O63   O     O_3   0.879598 0.156613 0.960826 -0.760191
O64   O     O_3   0.867244 0.864388 0.974036 -0.753571
O65   O     O_3   0.110186 0.170615 0.042970 -0.753564
O66   O     O_R   0.753510 0.736330 0.361920 -0.634103
O67   O     O_R   0.246490 0.263670 0.638080 -0.644096
O68   O     O_R   0.674170 0.186160 0.516270 -0.605779
Zn1   Zn    Zn3+2 0.792340 0.208750 0.507670 1.001389
Zn2   Zn    Zn3+2 0.494040 0.500000 0.919480 1.015574
Zn3   Zn    Zn3+2 0.005960 0.000000 0.080520 0.983452
Zn4   Zn    Zn3+2 0.994040 0.000000 0.919480 0.984419
Zn5   Zn    Zn3+2 0.207660 0.791250 0.492330 0.989723
Zn6   Zn    Zn3+2 0.207660 0.208750 0.492330 0.980757
Zn7   Zn    Zn3+2 0.792340 0.791250 0.507670 0.990707
Zn8   Zn    Zn3+2 0.292340 0.708750 0.507670 1.011344
Zn9   Zn    Zn3+2 0.707660 0.291250 0.492330 1.023158
Zn10  Zn    Zn3+2 0.707660 0.708750 0.492330 0.992476
Zn11  Zn    Zn3+2 0.292340 0.291250 0.507670 0.979775
Zn12  Zn    Zn3+2 0.505960 0.500000 0.080520 0.986600

loop_
_geom_bond_atom_site_label_1
_geom_bond_atom_site_label_2
_ccdc_geom_bond_type
O40   Zn12  S    
C31   C42   A    
H28   O46   S    
C50   C79   A    
C14   C33   A    
C19   C46   A    
C112  H12   S    
C16   C31   A    
C82   H9    S    
C124  C133  A    
C129  O56   A    
C50   C59   A    
O42   Zn2   S    
C81   H6    S    
C52   C61   A    
O29   Zn4   S    
C73   H73   S    
C137  N7    S    
C24   C42   A    
H36   O53   S    
C13   C51   A    
O23   Zn6   S    
C117  C170  A    
C165  O17   A    
C113  C122  A    
O19   Zn8   S    
C6    O36   A    
C135  N5    S    
C91   C100  A    
C161  O5    A    
C117  C126  A    
C78   N5    S    
C129  C145  S    
C88   C97   A    
O17   Zn11  S    
C97   C105  A    
C107  O21   A    
C100  C109  A    
C157  O9    A    
C148  H18   S    
C102  C111  A    
C151  O26   A    
O32   Zn2   S    
C77   H101  S    
C137  C146  A    
C127  C136  A    
H58   N12   S    
C113  C166  A    
C4    C130  S    
C101  C110  A    
C133  N3    S    
C69   N11   S    
H75   O58   S    
C103  C112  A    
C70   N12   S    
C65   H41   S    
C66   H47   S    
C59   C160  S    
C89   C112  A    
C150  C168  A    
C7    O30   A    
C77   H100  S    
C115  O60   S    
C11   O41   A    
C67   H51   S    
C164  O7    A    
C88   C109  A    
O31   Zn12  S    
O27   Zn3   S    
C54   C165  S    
C107  C143  S    
C35   C45   A    
C51   C83   A    
H93   N3    S    
C15   C30   A    
O9    Zn1   S    
C16   C25   A    
C108  H16   S    
C6    O29   A    
C98   C106  A    
C6    C127  S    
C74   H88   S    
C116  O61   S    
C80   N6    S    
H77   O59   S    
C12   C86   A    
O10   Zn5   S    
C151  O67   A    
C18   C38   A    
C100  N12   S    
C22   H76   S    
C5    O28   A    
C82   H11   S    
C5    C128  S    
C3    C156  A    
C97   N9    S    
C7    C126  S    
O30   Zn3   S    
C92   C104  A    
C52   C163  S    
O5    Zn5   S    
C160  O13   A    
O38   Zn4   S    
C83   O54   S    
C3    C121  A    
C119  C171  A    
O6    Zn1   S    
C101  N13   S    
C93   C172  S    
C76   H94   S    
C123  C132  A    
C27   C29   A    
C91   C105  A    
C78   H104  S    
C121  C130  A    
H35   O52   S    
C114  C167  A    
C87   C110  A    
H37   O54   S    
C118  O22   A    
C133  C142  A    
C37   C40   A    
C38   C39   A    
C43   C52   A    
C71   N13   S    
C70   H59   S    
C57   O51   S    
C20   C35   A    
C2    C44   A    
C95   N1    S    
C22   C25   A    
C87   C95   A    
C153  C170  A    
C80   H107  S    
C30   C41   A    
C46   O50   S    
C71   H63   S    
C134  C143  A    
C77   N4    S    
C1    O18   A    
O66   Zn10  S    
C159  O3    A    
C90   C111  A    
C44   C53   A    
O39   Zn3   S    
C74   H86   S    
C2    C45   A    
C58   C64   A    
C139  C148  A    
C149  H19   S    
C34   C39   A    
C71   H66   S    
C72   H70   S    
C85   C141  S    
C110  H98   S    
C21   H87   S    
C64   O48   S    
C134  N4    S    
C70   H61   S    
C105  H14   S    
C147  C151  S    
C69   H57   S    
H78   O60   S    
C158  O10   A    
C39   C162  A    
C19   C28   A    
C24   C50   A    
C114  C123  A    
C79   O53   S    
C116  C125  A    
C76   H96   S    
H33   O50   S    
C11   C122  S    
C145  C154  A    
C69   H56   S    
C122  C131  A    
O8    Zn6   S    
O15   Zn9   S    
C132  C141  A    
C49   C86   A    
C2    C40   A    
C80   H3    S    
C58   C157  S    
C1    C139  S    
C103  N15   S    
C164  O16   A    
C82   H10   S    
C89   C98   A    
C120  O64   S    
C81   H5    S    
C73   H72   S    
C55   C61   A    
C90   C169  S    
C131  N16   S    
C121  O65   S    
C152  H22   S    
C131  C139  A    
C43   C57   A    
C129  O24   A    
O41   Zn2   S    
C75   H92   S    
C161  O14   A    
C10   O40   A    
H38   O55   S    
C115  C168  A    
C159  O11   A    
C119  C127  A    
C125  C134  A    
C132  N2    S    
C34   C37   A    
C148  C166  A    
C140  O25   A    
C90   C99   A    
C149  C167  A    
C60   C159  S    
C14   C84   A    
C13   C41   A    
O33   Zn2   S    
C102  N14   S    
H67   N14   S    
O12   Zn5   S    
C65   H44   S    
C75   N2    S    
C113  O58   S    
C9    O43   A    
C35   O49   S    
C1    O1    A    
C98   N10   S    
C93   C108  A    
H31   O49   S    
C107  O34   A    
C158  O2    A    
C8    O31   A    
C66   H48   S    
C63   O47   S    
C163  O6    A    
C155  C172  A    
C146  C155  A    
C66   N9    S    
H53   N11   S    
C61   O44   S    
C4    O27   A    
C77   H99   S    
C81   N7    S    
C119  O63   S    
C82   N8    S    
C96   O20   A    
C155  H25   S    
O1    Zn1   S    
O25   Zn7   S    
H45   N9    S    
C68   O52   S    
C75   H91   S    
O35   Zn12  S    
H62   N13   S    
O56   Zn9   S    
C81   H7    S    
C10   C123  S    
C140  C146  S    
H84   N16   S    
C109  H2    S    
H29   O47   S    
C15   C83   A    
C73   H74   S    
C54   C62   A    
O37   Zn4   S    
O7    Zn7   S    
C89   C168  S    
C99   C108  A    
C117  O62   S    
C18   C57   A    
C153  H23   S    
C9    O32   A    
C88   C167  S    
C147  C156  A    
C92   C101  A    
C85   O12   A    
O2    Zn8   S    
C143  C152  A    
C126  C135  A    
C21   C23   A    
C163  O15   A    
C86   O57   S    
C46   C47   A    
C17   C68   A    
C115  C124  A    
H106  N6    S    
O21   Zn10  S    
O68   Zn9   S    
O45   Zn8   S    
C156  H26   S    
C78   H105  S    
H81   O63   S    
C93   C102  A    
C85   O19   A    
C120  C128  A    
C7    O37   A    
C16   C79   A    
C33   C41   A    
C142  C150  A    
C36   C38   A    
C65   H42   S    
C66   H46   S    
C165  O8    A    
C152  C169  A    
C14   C22   A    
O24   Zn1   S    
O34   Zn7   S    
C67   H52   S    
H4    N7    S    
C70   H60   S    
C20   C36   A    
C8    C125  S    
H27   O44   S    
C80   H108  S    
C32   C42   A    
C26   H43   S    
C65   N1    S    
O13   Zn7   S    
C84   O55   S    
C4    O38   A    
H34   O51   S    
C76   N3    S    
H79   O61   S    
C136  N6    S    
C141  C149  A    
C140  O66   A    
C67   N10   S    
C59   C64   A    
C60   C63   A    
C17   C26   A    
C55   C164  S    
C118  O45   A    
C118  C144  S    
H39   O57   S    
C23   H65   S    
C87   C166  S    
C92   C171  S    
H71   N15   S    
C138  N8    S    
C25   H54   S    
C9    C124  S    
O20   Zn11  S    
O28   Zn4   S    
C144  C153  A    
C56   C158  S    
H30   O48   S    
C154  C171  A    
C31   C33   A    
H97   N4    S    
C136  C145  A    
C154  H24   S    
C15   C23   A    
C75   H90   S    
C11   O35   A    
C12   C32   A    
C47   C162  A    
C78   H103  S    
C99   N11   S    
C69   H55   S    
C96   O23   A    
O67   Zn11  S    
C20   C29   A    
C111  H13   S    
O11   Zn6   S    
C27   H32   S    
C36   C40   A    
O22   Zn5   S    
C120  C172  A    
C114  O59   S    
C96   C142  S    
C12   C21   A    
O18   Zn9   S    
H80   O62   S    
C49   C58   A    
C48   C84   A    
O14   Zn8   S    
O43   Zn12  S    
H8    N8    S    
C67   H50   S    
H82   O64   S    
C128  C137  A    
C43   C162  A    
C157  O68   A    
H40   N1    S    
O4    Zn10  S    
C138  C147  A    
C72   H68   S    
C28   H21   S    
C56   C63   A    
H102  N5    S    
C17   C37   A    
C71   H64   S    
C62   O46   S    
C8    O42   A    
C135  C144  A    
C45   C54   A    
C10   O33   A    
C44   C68   A    
C95   C104  A    
C47   C55   A    
C74   H85   S    
C24   C49   A    
C48   C56   A    
C104  H15   S    
C94   C106  A    
O26   Zn6   S    
C91   C170  S    
O16   Zn10  S    
C72   H69   S    
C18   C27   A    
C29   H1    S    
C19   C34   A    
C94   C103  A    
C13   C48   A    
C51   C60   A    
C5    O39   A    
C26   C28   A    
C73   N15   S    
C74   N16   S    
C160  O4    A    
C30   C32   A    
C53   C161  S    
H49   N10   S    
O36   Zn3   S    
C116  C169  A    
C3    C94   S    
H83   O65   S    
C150  H20   S    
H89   N2    S    
C53   C62   A    
C76   H95   S    
C106  H17   S    
C72   N14   S    
O3    Zn11  S    
C130  C138  A    
