data_mof_unit_55248.cif
_audit_creation_date              2012-12-10T20:48:48-0500
_audit_creation_method            fapswitch 2.2
_symmetry_space_group_name_H-M    P1
_symmetry_Int_Tables_number       1
_space_group_crystal_system       triclinic
_cell_length_a                    15.743769
_cell_length_b                    8.945825
_cell_length_c                    8.126744
_cell_angle_alpha                 89.994615
_cell_angle_beta                  90.18452
_cell_angle_gamma                 89.827438
_cell_volume                      1144.56763778

loop_
_atom_site_label
_atom_site_type_symbol
_atom_type_description
_atom_site_fract_x
_atom_site_fract_y
_atom_site_fract_z
_atom_type_partial_charge
C1    C     C_R   0.500039 0.218024 0.500006 0.935457
C2    C     C_3   0.048429 0.474979 0.330437 0.540441
C3    C     C_3   0.953463 0.462738 0.665982 0.531196
C4    C     C_3   0.949717 0.450944 0.346047 0.696545
C5    C     C_1   0.750662 0.510864 0.501161 -0.197361
C6    C     C_1   0.249410 0.515776 0.498868 -0.185143
C7    C     C_3   0.082698 0.543419 0.497229 -0.205634
C8    C     C_3   0.917157 0.537850 0.503348 -0.239875
C9    C     C_3   0.946389 0.709266 0.494053 0.708471
C10   C     C_3   0.049029 0.712101 0.517689 0.667064
C11   C     C_3   0.064413 0.913765 0.714586 0.224247
C12   C     C_1   0.825542 0.524561 0.502833 0.170776
C13   C     C_3   0.031597 0.934068 0.888972 -0.712333
C14   C     C_3   0.172275 0.842069 0.407099 0.040859
C15   C     C_3   0.186395 0.004513 0.359198 -0.785985
C16   C     C_3   0.825273 0.853296 0.593628 0.094799
C17   C     C_3   0.768125 0.834485 0.742520 -0.827695
C18   C     C_3   0.933424 0.917122 0.299840 0.221344
C19   C     C_3   0.857123 0.978420 0.205487 -0.854208
C20   C     C_1   0.174562 0.531418 0.497511 0.199967
C21   C     C_R   0.337839 0.500873 0.499726 0.880411
C22   C     C_R   0.662150 0.499551 0.500270 0.884378
C23   C     C_1   0.500095 0.934796 0.500006 -0.198535
C24   C     C_1   0.500083 0.065152 0.500016 -0.193446
C25   C     C_R   0.500065 0.781941 0.499999 0.922470
C26   C     C_3   0.052337 0.446588 0.648386 0.736242
H1    H     H_    0.022679 0.975328 0.628571 0.163451
H2    H     H_    0.163054 0.024402 0.231894 0.261539
H3    H     H_    0.792371 0.805287 0.485154 0.174951
H4    H     H_    0.831816 0.975491 0.574343 0.175143
H5    H     H_    0.795795 0.894784 0.848592 0.259043
H6    H     H_    0.704465 0.882640 0.715597 0.215286
H7    H     H_    0.760341 0.714855 0.774017 0.253565
H8    H     H_    0.988592 0.928935 0.217047 0.213299
H9    H     H_    0.945332 0.986532 0.409352 0.138501
H10   H     H_    0.803522 0.003397 0.289196 0.235089
H11   H     H_    0.874717 0.082999 0.140481 0.254195
H12   H     H_    0.128299 0.965341 0.710476 0.125759
H13   H     H_    0.835897 0.894916 0.113768 0.274027
H14   H     H_    0.858867 0.329313 0.730523 0.337114
H15   H     H_    0.967843 0.242932 0.425154 0.387485
H16   H     H_    0.069276 0.239576 0.723962 0.333057
H17   H     H_    0.070697 0.305762 0.184335 0.337625
H18   H     H_    0.126423 0.570665 0.175376 0.357907
H19   H     H_    0.074159 0.434159 0.886933 0.352057
H20   H     H_    0.923738 0.440664 0.111156 0.372735
H21   H     H_    0.874066 0.555447 0.822774 0.345020
H22   H     H_    0.076364 0.880749 0.977308 0.267187
H23   H     H_    0.026044 0.054682 0.919135 0.166635
H24   H     H_    0.968276 0.881532 0.902481 0.309834
H25   H     H_    0.207226 0.772681 0.316410 0.169069
H26   H     H_    0.200358 0.822428 0.530658 0.160251
H27   H     H_    0.151795 0.079683 0.444297 0.297771
H28   H     H_    0.255202 0.031073 0.365022 0.215955
N1    N     N_1   0.500000 0.500030 0.073640 -0.027418
N2    N     N_1   0.500000 0.500030 0.926360 -0.027469
O1    O     O_R   0.500000 0.285340 0.636850 -0.613617
O2    O     O_3   0.084470 0.809085 0.395339 -0.648340
O3    O     O_3   0.907002 0.791313 0.625929 -0.622264
O4    O     O_3   0.920807 0.763209 0.334155 -0.579507
O5    O     O_3   0.918416 0.319030 0.692741 -0.796450
O6    O     O_3   0.926761 0.298225 0.356447 -0.790257
O7    O     O_3   0.076079 0.296265 0.620136 -0.785342
O8    O     O_3   0.089666 0.338017 0.295454 -0.771474
O9    O     O_3   0.064774 0.575488 0.200160 -0.696451
O10   O     O_3   0.094115 0.495924 0.793267 -0.675485
O11   O     O_3   0.908798 0.507579 0.204276 -0.639109
O12   O     O_R   0.500000 0.285340 0.363150 -0.612936
O13   O     O_3   0.936218 0.553666 0.804312 -0.683134
O14   O     O_R   0.377140 0.500000 0.636930 -0.600142
O15   O     O_R   0.377140 0.500000 0.363070 -0.617198
O16   O     O_R   0.622860 0.500000 0.636930 -0.625719
O17   O     O_R   0.622860 0.500000 0.363070 -0.597363
O18   O     O_R   0.500000 0.714650 0.636900 -0.615353
O19   O     O_R   0.500000 0.714650 0.363100 -0.615478
O20   O     O_3   0.071236 0.758737 0.681213 -0.567250
Zn1   Zn    Zn3+2 0.500000 0.499990 0.682780 0.997399
Zn2   Zn    Zn3+2 0.500000 0.499990 0.317220 1.002358

loop_
_geom_bond_atom_site_label_1
_geom_bond_atom_site_label_2
_ccdc_geom_bond_type
C13   H22   S    
C2    C4    S    
C23   C24   T    
C14   H26   S    
O16   Zn1   S    
C1    O1    A    
C8    C12   S    
C7    C10   S    
C6    C20   T    
C18   H9    S    
O15   Zn2   S    
C14   H25   S    
C11   H1    S    
C21   O14   A    
C26   O7    S    
C2    O9    S    
C9    O4    S    
N1    N2    T    
C3    O5    S    
C15   H2    S    
H20   O11   S    
C1    C24   S    
C25   O18   A    
O14   Zn1   S    
C11   C13   S    
H18   O9    S    
C16   C17   S    
C7    C26   S    
C17   H7    S    
H15   O6    S    
C21   O15   A    
C13   H23   S    
C18   H8    S    
C15   H27   S    
C22   O16   A    
N2    Zn1   S    
C10   O2    S    
C2    O8    S    
H17   O8    S    
C3    C8    S    
C19   H10   S    
C23   C25   S    
O12   Zn2   S    
C17   H5    S    
O19   Zn2   S    
C18   O4    S    
C25   O19   A    
H14   O5    S    
C16   H4    S    
C13   H24   S    
C26   O10   S    
C15   H28   S    
C4    O6    S    
H19   O10   S    
C1    O12   A    
C5    C12   T    
C19   H13   S    
C7    C20   S    
C9    C10   S    
O1    Zn1   S    
C4    C8    S    
N1    Zn2   S    
C17   H6    S    
C14   C15   S    
C18   C19   S    
C11   H12   S    
C11   O20   S    
C19   H11   S    
C22   O17   A    
C3    O13   S    
C16   H3    S    
C16   O3    S    
O17   Zn2   S    
C10   O20   S    
H16   O7    S    
O18   Zn1   S    
C3    C26   S    
H21   O13   S    
C5    C22   S    
C2    C7    S    
C14   O2    S    
C6    C21   S    
C8    C9    S    
C9    O3    S    
C4    O11   S    
