data_mof_unit_22486.cif
_audit_creation_date              2012-12-11T15:35:15-0500
_audit_creation_method            fapswitch 2.2
_symmetry_space_group_name_H-M    P1
_symmetry_Int_Tables_number       1
_space_group_crystal_system       triclinic
_cell_length_a                    17.430171
_cell_length_b                    24.30803
_cell_length_c                    14.849145
_cell_angle_alpha                 89.650629
_cell_angle_beta                  124.992905
_cell_angle_gamma                 90.384836
_cell_volume                      5153.99036409

loop_
_atom_site_label
_atom_site_type_symbol
_atom_type_description
_atom_site_fract_x
_atom_site_fract_y
_atom_site_fract_z
_atom_type_partial_charge
C1    C     C_R   0.309639 0.123390 0.907646 -0.153313
C2    C     C_R   0.308725 0.877335 0.906589 -0.125186
C3    C     C_R   0.809637 0.623385 0.907644 -0.153412
C4    C     C_R   0.808725 0.377335 0.906588 -0.125200
C5    C     C_R   0.646580 0.152200 0.091791 -0.045326
C6    C     C_R   0.645536 0.847811 0.091656 -0.095908
C7    C     C_R   0.146579 0.652200 0.091791 -0.045389
C8    C     C_R   0.145530 0.347810 0.091655 -0.096088
C9    C     C_R   0.558922 0.848497 0.909221 -0.151081
C10   C     C_R   0.555964 0.152889 0.909712 -0.137070
C11   C     C_R   0.058923 0.348497 0.909220 -0.151085
C12   C     C_R   0.055964 0.652890 0.909712 -0.137062
C13   C     C_R   0.543199 0.999796 0.717105 0.063331
C14   C     C_R   0.043186 0.499798 0.717091 0.063297
C15   C     C_R   0.824780 0.998805 0.284581 -0.052522
C16   C     C_R   0.324777 0.498802 0.284583 -0.052503
C17   C     C_R   0.615602 0.185494 0.000164 -0.026297
C18   C     C_R   0.618293 0.817278 0.999983 -0.045317
C19   C     C_R   0.115602 0.685494 0.000166 -0.026268
C20   C     C_R   0.118287 0.317277 0.999983 -0.045313
C21   C     C_3   0.077624 0.941748 0.476384 -0.244112
C22   C     C_3   0.042112 0.007551 0.581452 -0.277847
C23   C     C_3   0.577545 0.441691 0.476599 -0.244101
C24   C     C_3   0.542097 0.507651 0.581462 -0.278378
C25   C     C_3   0.970418 0.937688 0.389967 -0.278635
C26   C     C_3   0.939670 0.017293 0.484980 -0.272841
C27   C     C_3   0.470366 0.437658 0.390115 -0.279254
C28   C     C_3   0.439659 0.517376 0.484955 -0.272846
C29   C     C_3   0.081261 0.044546 0.450485 -0.345977
C30   C     C_3   0.581273 0.544486 0.450436 -0.345126
C31   C     C_3   0.103781 0.998981 0.535993 0.227639
C32   C     C_3   0.603763 0.498978 0.536027 0.228272
C33   C     C_3   0.925128 0.996250 0.375936 0.159383
C34   C     C_3   0.425117 0.496246 0.375957 0.159750
C35   C     C_R   0.400354 0.874777 0.091233 -0.105889
C36   C     C_R   0.403339 0.125930 0.092831 -0.071481
C37   C     C_R   0.900354 0.374777 0.091231 -0.105921
C38   C     C_R   0.903336 0.625930 0.092828 -0.071365
C39   C     C_3   0.979055 0.037673 0.349459 -0.375869
C40   C     C_3   0.479076 0.537597 0.349407 -0.376090
C41   C     C_R   0.166071 0.807378 0.892588 -0.146331
C42   C     C_R   0.263402 0.231433 0.954207 -0.142230
C43   C     C_R   0.666073 0.307377 0.892585 -0.146359
C44   C     C_R   0.763299 0.731410 0.954075 -0.142097
C45   C     C_R   0.618232 0.262479 0.893654 -0.143030
C46   C     C_R   0.714553 0.775320 0.953511 -0.153118
C47   C     C_R   0.118230 0.762481 0.893656 -0.142983
C48   C     C_R   0.214652 0.275343 0.953640 -0.153229
C49   C     C_R   0.635924 0.243678 0.993201 0.110401
C50   C     C_R   0.661806 0.769030 0.996248 0.167386
C51   C     C_R   0.135924 0.743679 0.993204 0.110353
C52   C     C_R   0.161818 0.269035 0.996259 0.167445
C53   C     C_R   0.685258 0.278269 0.085531 -0.104314
C54   C     C_R   0.654617 0.718558 0.036582 -0.072515
C55   C     C_R   0.185260 0.778269 0.085535 -0.104176
C56   C     C_R   0.154555 0.218550 0.036488 -0.072519
C57   C     C_R   0.238026 0.821759 0.086364 -0.141844
C58   C     C_R   0.205039 0.174160 0.038454 -0.155631
C59   C     C_R   0.738023 0.321759 0.086360 -0.141908
C60   C     C_R   0.705102 0.674169 0.038548 -0.155658
C61   C     C_R   0.234904 0.832896 0.991835 0.119194
C62   C     C_R   0.259164 0.181319 0.997439 0.139107
C63   C     C_R   0.734903 0.332896 0.991832 0.119243
C64   C     C_R   0.759147 0.681312 0.997422 0.139065
C65   C     C_R   0.600762 0.947924 0.625378 -0.201733
C66   C     C_R   0.612745 0.046711 0.629847 -0.221740
C67   C     C_R   0.100773 0.447933 0.625380 -0.201760
C68   C     C_R   0.112707 0.546723 0.629822 -0.221679
C69   C     C_R   0.615479 0.945312 0.543312 -0.053060
C70   C     C_R   0.633452 0.044990 0.551909 -0.058480
C71   C     C_R   0.115514 0.445327 0.543331 -0.053162
C72   C     C_R   0.133413 0.545009 0.551885 -0.058491
C73   C     C_R   0.616410 0.995259 0.493267 -0.015372
C74   C     C_R   0.116402 0.495275 0.493262 -0.015488
C75   C     C_R   0.550996 0.043944 0.306219 -0.057548
C76   C     C_R   0.551451 0.953448 0.304088 -0.092074
C77   C     C_R   0.050983 0.543948 0.306209 -0.057573
C78   C     C_R   0.051432 0.453451 0.304085 -0.091843
C79   C     C_R   0.587662 0.998439 0.658543 0.115423
C80   C     C_R   0.087645 0.498446 0.658526 0.115434
C81   C     C_R   0.248605 0.953986 0.694950 -0.160906
C82   C     C_R   0.249371 0.045456 0.692607 -0.126893
C83   C     C_R   0.748609 0.453985 0.694952 -0.160637
C84   C     C_R   0.749367 0.545455 0.692610 -0.127441
C85   C     C_R   0.314916 0.138199 0.000510 0.007127
C86   C     C_R   0.310497 0.862967 0.997784 0.033359
C87   C     C_R   0.814912 0.638197 0.000504 0.007100
C88   C     C_R   0.810497 0.362967 0.997782 0.033385
C89   C     C_R   0.573528 0.997578 0.372932 0.007302
C90   C     C_R   0.073508 0.497586 0.372924 0.007340
C91   C     C_R   0.202772 0.999491 0.630612 -0.015699
C92   C     C_R   0.702756 0.499489 0.630629 -0.015019
C93   C     C_R   0.515337 0.045914 0.746287 -0.123910
C94   C     C_R   0.513662 0.954054 0.745849 -0.120238
C95   C     C_R   0.015328 0.545915 0.746279 -0.123796
C96   C     C_R   0.013655 0.454055 0.745839 -0.120088
C97   C     C_R   0.766292 0.953867 0.243635 0.037217
C98   C     C_R   0.770083 0.045461 0.258194 -0.116302
C99   C     C_R   0.266289 0.453865 0.243634 0.037251
C100  C     C_R   0.270082 0.545460 0.258179 -0.116338
H1    H     H_    0.252861 0.131003 0.822931 0.148781
H2    H     H_    0.251068 0.874744 0.821371 0.101430
H3    H     H_    0.752858 0.630995 0.822928 0.148726
H4    H     H_    0.751069 0.374745 0.821369 0.101392
H5    H     H_    0.096955 0.909021 0.538257 0.083422
H6    H     H_    0.046444 0.968792 0.624419 0.140590
H7    H     H_    0.596786 0.409058 0.538622 0.083250
H8    H     H_    0.546402 0.468932 0.624522 0.140538
H9    H     H_    0.955700 0.927234 0.308441 0.158834
H10   H     H_    0.927243 0.062510 0.473535 0.164692
H11   H     H_    0.455740 0.427163 0.308644 0.158033
H12   H     H_    0.427245 0.562592 0.473415 0.164633
H13   H     H_    0.129973 0.042778 0.425005 0.186134
H14   H     H_    0.090011 0.085934 0.486576 0.195260
H15   H     H_    0.630017 0.542697 0.425010 0.186983
H16   H     H_    0.590014 0.585895 0.486446 0.194958
H17   H     H_    0.977978 0.022816 0.278032 0.209191
H18   H     H_    0.945749 0.078937 0.326122 0.172252
H19   H     H_    0.478013 0.522671 0.278029 0.209186
H20   H     H_    0.445780 0.578864 0.325961 0.172192
H21   H     H_    0.156278 0.816706 0.815522 0.119768
H22   H     H_    0.306268 0.236764 0.923320 0.130911
H23   H     H_    0.656282 0.316703 0.815521 0.119737
H24   H     H_    0.806105 0.736731 0.923103 0.130928
H25   H     H_    0.575935 0.239654 0.817977 0.119180
H26   H     H_    0.719781 0.814627 0.922381 0.130466
H27   H     H_    0.075931 0.739657 0.817978 0.119187
H28   H     H_    0.219936 0.314661 0.922592 0.130442
H29   H     H_    0.687888 0.270763 0.158655 0.150245
H30   H     H_    0.612141 0.714147 0.068064 0.127982
H31   H     H_    0.187891 0.770763 0.158659 0.150291
H32   H     H_    0.112017 0.214127 0.067886 0.127981
H33   H     H_    0.285058 0.844029 0.162004 0.134161
H34   H     H_    0.202373 0.134918 0.071547 0.127280
H35   H     H_    0.785054 0.344030 0.161999 0.134131
H36   H     H_    0.702501 0.634940 0.071731 0.127284
H37   H     H_    0.594861 0.909751 0.658639 0.132565
H38   H     H_    0.615407 0.085467 0.667028 0.159149
H39   H     H_    0.094897 0.409760 0.658660 0.132649
H40   H     H_    0.115352 0.585479 0.666994 0.159128
H41   H     H_    0.425774 0.868259 0.176062 0.117998
H42   H     H_    0.431704 0.135616 0.177462 0.122870
H43   H     H_    0.925773 0.368256 0.176060 0.117934
H44   H     H_    0.931697 0.635616 0.177458 0.122880
H45   H     H_    0.563367 0.086424 0.330945 0.130387
H46   H     H_    0.567834 0.910887 0.325069 0.155202
H47   H     H_    0.063350 0.586430 0.330925 0.130427
H48   H     H_    0.067785 0.410888 0.325068 0.155144
H49   H     H_    0.240071 0.911496 0.670266 0.087976
H50   H     H_    0.236201 0.087864 0.665573 0.123373
H51   H     H_    0.740085 0.411498 0.670253 0.087773
H52   H     H_    0.736197 0.587862 0.665569 0.123499
H53   H     H_    0.525616 0.088635 0.735365 0.103533
H54   H     H_    0.521027 0.911241 0.734370 0.100536
H55   H     H_    0.025602 0.588637 0.735356 0.103514
H56   H     H_    0.021018 0.411242 0.734354 0.100520
H57   H     H_    0.783973 0.912130 0.242953 0.100294
H58   H     H_    0.795219 0.086709 0.283560 0.136269
H59   H     H_    0.283967 0.412130 0.242921 0.100217
H60   H     H_    0.295223 0.586709 0.283527 0.136240
H61   H     H_    0.518136 0.834851 0.824678 0.119718
H62   H     H_    0.507848 0.166517 0.825768 0.101513
H63   H     H_    0.018143 0.334853 0.824676 0.119730
H64   H     H_    0.007848 0.666518 0.825769 0.101534
N1    N     N_R   0.392140 0.102630 0.941800 -0.049249
N2    N     N_R   0.392140 0.897370 0.941800 -0.045196
N3    N     N_R   0.892140 0.602630 0.941800 -0.049215
N4    N     N_R   0.892140 0.397370 0.941800 -0.045199
N5    N     N_R   0.450890 0.896450 0.057150 -0.040794
N6    N     N_R   0.450890 0.103550 0.057150 -0.033513
N7    N     N_R   0.950890 0.396450 0.057150 -0.040801
N8    N     N_R   0.950890 0.603550 0.057150 -0.033518
N9    N     N_R   0.525160 0.027960 0.206160 -0.049706
N10   N     N_R   0.525160 0.972040 0.206160 -0.049287
N11   N     N_R   0.025160 0.527960 0.206160 -0.049724
N12   N     N_R   0.025160 0.472040 0.206160 -0.049300
N13   N     N_R   0.317870 0.971120 0.792790 -0.037047
N14   N     N_R   0.317870 0.028880 0.792790 -0.044933
N15   N     N_R   0.817870 0.471120 0.792790 -0.037081
N16   N     N_R   0.817870 0.528880 0.792790 -0.044918
N17   N     N_R   0.473480 0.027920 0.793480 -0.041733
N18   N     N_R   0.473480 0.972080 0.793480 -0.041562
N19   N     N_R   0.973480 0.527920 0.793480 -0.041721
N20   N     N_R   0.973480 0.472080 0.793480 -0.041558
N21   N     N_R   0.681610 0.971120 0.207570 -0.023765
N22   N     N_R   0.681610 0.028880 0.207570 -0.035013
N23   N     N_R   0.181610 0.471120 0.207570 -0.023703
N24   N     N_R   0.181610 0.528880 0.207570 -0.034975
N25   N     N_R   0.605410 0.102620 0.056870 -0.066084
N26   N     N_R   0.605410 0.897380 0.056870 -0.070321
N27   N     N_R   0.105410 0.602620 0.056870 -0.066102
N28   N     N_R   0.105410 0.397380 0.056870 -0.070335
N29   N     N_R   0.549680 0.896430 0.944180 -0.048097
N30   N     N_R   0.549680 0.103570 0.944180 -0.050952
N31   N     N_R   0.049680 0.396430 0.944180 -0.048120
N32   N     N_R   0.049680 0.603570 0.944180 -0.050970
Ni1   Ni    Ni4+2 0.433410 0.064680 0.868830 0.207569
Ni2   Ni    Ni4+2 0.433410 0.935320 0.868830 0.208935
Ni3   Ni    Ni4+2 0.933410 0.564680 0.868830 0.207621
Ni4   Ni    Ni4+2 0.933410 0.435320 0.868830 0.208966
Ni5   Ni    Ni4+2 0.565650 0.934380 0.131170 0.281382
Ni6   Ni    Ni4+2 0.565650 0.065620 0.131170 0.272855
Ni7   Ni    Ni4+2 0.065650 0.434380 0.131170 0.281400
Ni8   Ni    Ni4+2 0.065650 0.565620 0.131170 0.272869
C101  C     C_2   0.933649 0.889168 0.421015 1.015511
O1    O     O_2   0.906060 0.847840 0.363906 -0.636564
O2    O     O_R   0.940605 0.888834 0.519530 -0.792929
H65   H     H_    0.915994 0.853511 0.531045 0.342607
C102  C     C_2   0.873672 0.998154 0.514922 1.118910
O3    O     O_2   0.884340 0.016229 0.598161 -0.615149
O4    O     O_R   0.800013 0.962027 0.448790 -0.758240
H66   H     H_    0.757863 0.957897 0.474468 0.363961
C103  C     C_2   0.433507 0.389189 0.421164 1.015597
O5    O     O_2   0.405927 0.347839 0.364124 -0.636833
O6    O     O_R   0.440381 0.388927 0.519629 -0.792808
H67   H     H_    0.415717 0.353632 0.531161 0.342640
C104  C     C_2   0.373650 0.498302 0.514921 1.119156
O7    O     O_2   0.384367 0.516395 0.598174 -0.615185
O8    O     O_R   0.299927 0.462214 0.448788 -0.758165
H68   H     H_    0.257817 0.458103 0.474523 0.363951
C105  C     C_2   0.626113 0.889384 0.512863 0.950770
O9    O     O_2   0.568262 0.853732 0.492013 -0.632306
O10   O     O_R   0.703907 0.876537 0.512542 -0.785014
H69   H     H_    0.703330 0.836929 0.491151 0.345653
C106  C     C_2   0.675296 0.094535 0.536990 0.999645
O11   O     O_2   0.725899 0.089782 0.505135 -0.622637
O12   O     O_R   0.659390 0.146618 0.562620 -0.810712
H70   H     H_    0.692197 0.176980 0.549625 0.328825
C107  C     C_2   0.126256 0.389407 0.512947 0.950827
O13   O     O_2   0.068546 0.353694 0.492283 -0.632317
O14   O     O_R   0.203998 0.376637 0.512469 -0.784983
H71   H     H_    0.203509 0.337027 0.491147 0.345652
C108  C     C_2   0.175228 0.594565 0.536953 0.999604
O15   O     O_2   0.225843 0.589826 0.505113 -0.622660
O16   O     O_R   0.159280 0.646644 0.562556 -0.810666
H72   H     H_    0.192070 0.677014 0.549555 0.328865
C109  C     C_2   0.692556 0.169970 0.206302 0.915964
O17   O     O_2   0.771064 0.190208 0.256520 -0.642808
O18   O     O_R   0.648828 0.159933 0.259531 -0.805371
H73   H     H_    0.688063 0.172575 0.338869 0.342528
C110  C     C_2   0.684110 0.825682 0.202919 0.999891
O19   O     O_2   0.669073 0.849676 0.263415 -0.648358
O20   O     O_R   0.737945 0.777838 0.239525 -0.773950
H74   H     H_    0.759872 0.767130 0.316901 0.337602
C111  C     C_2   0.192552 0.669970 0.206302 0.916031
O21   O     O_2   0.271061 0.690207 0.256524 -0.642776
O22   O     O_R   0.148820 0.659934 0.259527 -0.805323
H75   H     H_    0.188052 0.672577 0.338864 0.342576
C112  C     C_2   0.184085 0.325676 0.202909 1.000064
O23   O     O_2   0.169088 0.349688 0.263425 -0.648345
O24   O     O_R   0.237847 0.277803 0.239479 -0.774038
H76   H     H_    0.259762 0.267093 0.316850 0.337615
C113  C     C_2   0.133230 0.928693 0.429348 0.536368
H77   H     H_    0.196790 0.904560 0.477699 0.009424
O25   O     O_2   0.109614 0.945924 0.339449 -0.584992
C114  C     C_2   0.074087 0.052569 0.666968 0.572887
H78   H     H_    0.104283 0.041299 0.751876 0.025541
O26   O     O_2   0.068024 0.101209 0.642637 -0.592091
C115  C     C_2   0.633119 0.428389 0.429642 0.536426
H79   H     H_    0.695776 0.403484 0.477350 0.009389
O27   O     O_2   0.610411 0.446183 0.340465 -0.585170
C116  C     C_2   0.574082 0.552729 0.666866 0.572751
H80   H     H_    0.604287 0.541518 0.751803 0.025581
O28   O     O_2   0.568017 0.601351 0.642415 -0.592078

loop_
_geom_bond_atom_site_label_1
_geom_bond_atom_site_label_2
_ccdc_geom_bond_type
C68   C80   A    
C38   C87   A    
C29   H14   S    
C13   C79   S    
C111  O22   S    
C58   C62   A    
C28   C104  S    
C65   C79   A    
C99   H59   S    
C63   C88   S    
C75   N9    A    
C37   C88   A    
O18   H73   S    
N18   Ni2   S    
C70   C106  S    
C41   C61   A    
O6    H67   S    
N17   Ni1   S    
C94   N18   A    
C21   C113  S    
C99   N23   A    
C7    C111  S    
C53   C59   A    
N3    N8    A    
C3    N3    A    
O24   H76   S    
C54   C60   A    
C103  O5    D    
C44   C64   A    
C97   N21   A    
C83   C92   A    
C21   C31   S    
C18   C50   S    
C112  O23   D    
C50   C54   A    
C5    C109  S    
C8    C20   A    
C34   C40   S    
C28   H12   S    
C100  N24   A    
C96   N20   A    
N11   Ni8   S    
C48   C52   A    
C10   N30   A    
C113  H77   S    
C35   C86   A    
C9    N29   A    
N30   Ni1   S    
C5    C17   A    
N15   Ni4   S    
C2    H2    S    
C10   C17   A    
N21   Ni5   S    
O20   H74   S    
N17   N18   A    
C72   C108  S    
N22   Ni6   S    
N8    Ni8   S    
C110  O19   D    
C41   H21   S    
C57   C61   A    
C84   N16   A    
C36   H42   S    
N27   N32   A    
C21   C25   S    
C21   H5    S    
N26   N29   A    
C106  O12   S    
C93   N17   A    
N25   N30   A    
N4    N7    A    
C98   H58   S    
C45   H25   S    
C60   C64   A    
N20   Ni4   S    
C114  O26   D    
O16   H72   S    
C6    C110  S    
C69   C73   A    
C24   H8    S    
C55   H31   S    
C23   C27   S    
C56   C58   A    
C67   H39   S    
C108  O15   D    
C2    N2    A    
C64   C87   S    
C51   C55   A    
C25   H9    S    
C76   C89   A    
N23   Ni7   S    
C65   H37   S    
C95   H55   S    
C103  O6    S    
C76   H46   S    
C10   H62   S    
N9    N10   A    
C111  O21   D    
C78   N12   A    
C12   N32   A    
N12   Ni7   S    
C57   H33   S    
C7    N27   A    
C38   H44   S    
C15   C97   A    
N32   Ni3   S    
C25   C101  S    
C14   C96   A    
C44   C46   A    
C46   C50   A    
C106  O11   D    
C83   H51   S    
C30   H15   S    
C101  O2    S    
C27   C34   S    
C41   C47   A    
C77   H47   S    
C6    C18   A    
C62   C85   S    
C8    C112  S    
C112  O24   S    
C22   C31   S    
C3    C87   A    
O2    H65   S    
N28   N31   A    
O10   H69   S    
C72   C74   A    
C17   C49   S    
O8    H68   S    
C113  O25   D    
C16   C100  A    
C54   H30   S    
C47   C51   A    
C32   C92   S    
C104  O7    D    
C101  O1    D    
N5    Ni5   S    
C11   C20   A    
C44   H24   S    
N10   Ni5   S    
C75   H45   S    
C82   C91   A    
C30   H16   S    
C13   C93   A    
N9    Ni6   S    
C110  O20   S    
C97   H57   S    
C42   C48   A    
C9    H61   S    
N19   N20   A    
C24   C32   S    
O4    H66   S    
C107  O13   D    
C66   C79   A    
N1    Ni1   S    
C12   H64   S    
C105  O9    D    
C43   C45   A    
C100  H60   S    
C26   C33   S    
O12   H70   S    
C58   H34   S    
C1    N1    A    
C68   C72   A    
C36   C85   A    
C23   H7    S    
C114  H78   S    
C6    N26   A    
C70   C73   A    
C11   H63   S    
C102  O3    D    
C71   C107  S    
C30   C40   S    
N2    Ni2   S    
N26   Ni5   S    
C55   C57   A    
C33   C39   S    
C47   H27   S    
C108  O16   S    
C56   H32   S    
C42   C62   A    
C26   H10   S    
C84   H52   S    
C82   H50   S    
C40   H20   S    
N14   Ni1   S    
C35   H41   S    
C7    C19   A    
C14   C80   S    
C109  O18   S    
C43   H23   S    
C35   N5    A    
C59   C63   A    
C68   H40   S    
C1    C85   A    
C53   H29   S    
N27   Ni8   S    
C15   C98   A    
C115  H79   S    
C23   C115  S    
C1    H1    S    
C14   C95   A    
C43   C63   A    
C42   H22   S    
C27   C103  S    
N31   Ni4   S    
C3    H3    S    
N1    N6    A    
C29   H13   S    
C37   H43   S    
C95   N19   A    
C29   C31   S    
C22   C114  S    
C46   H26   S    
N4    Ni4   S    
C67   C80   A    
C24   C28   S    
C81   H49   S    
C31   C91   S    
C115  O27   D    
C37   N7    A    
C71   C74   A    
C116  O28   D    
O22   H75   S    
C16   C99   A    
C38   N8    A    
C116  H80   S    
C4    C88   A    
C78   H48   S    
N25   Ni6   S    
C104  O8    S    
C39   H18   S    
C20   C52   S    
C66   H38   S    
C36   N6    A    
C77   N11   A    
C83   N15   A    
C13   C94   A    
C105  O10   S    
C11   N31   A    
C23   C32   S    
C60   H36   S    
C93   H53   S    
C81   N13   A    
N23   N24   A    
C107  O14   S    
N11   N12   A    
C39   H17   S    
C30   C32   S    
C94   H54   S    
C74   C90   S    
N21   N22   A    
C96   H56   S    
C52   C56   A    
C48   H28   S    
C78   C90   A    
C19   C51   S    
C65   C69   A    
C4    H4    S    
C12   C19   A    
C76   N10   A    
C102  O4    S    
N28   Ni7   S    
N24   Ni8   S    
C45   C49   A    
C2    C86   A    
C26   C102  S    
C67   C71   A    
C28   C34   S    
N7    Ni7   S    
C8    N28   A    
N19   Ni3   S    
N6    Ni6   S    
C49   C53   A    
C22   H6    S    
C61   C86   S    
C75   C89   A    
C27   H11   S    
N15   N16   A    
C81   C91   A    
C4    N4    A    
C9    C18   A    
C73   C89   S    
C40   H19   S    
C66   C70   A    
N2    N5    A    
C98   N22   A    
N13   N14   A    
C22   C26   S    
C24   C116  S    
O14   H71   S    
N16   Ni3   S    
C77   C90   A    
N3    Ni3   S    
C5    N25   A    
C84   C92   A    
C69   C105  S    
C109  O17   D    
C82   N14   A    
C15   C33   S    
C29   C39   S    
N13   Ni2   S    
N29   Ni2   S    
C16   C34   S    
C25   C33   S    
C59   H35   S    
