data_mof_unit_9628.cif
_audit_creation_date              2012-12-10T17:36:22-0500
_audit_creation_method            fapswitch 2.2
_symmetry_space_group_name_H-M    P1
_symmetry_Int_Tables_number       1
_space_group_crystal_system       triclinic
_cell_length_a                    12.362793
_cell_length_b                    13.24651
_cell_length_c                    15.88604
_cell_angle_alpha                 76.270199
_cell_angle_beta                  101.894329
_cell_angle_gamma                 117.352555
_cell_volume                      2230.42197234

loop_
_atom_site_label
_atom_site_type_symbol
_atom_type_description
_atom_site_fract_x
_atom_site_fract_y
_atom_site_fract_z
_atom_type_partial_charge
C1    C     C_R   0.854913 0.287334 0.503322 0.763913
C2    C     C_3   0.061074 0.420758 0.073572 0.026342
C3    C     C_3   0.993285 0.491800 0.083776 0.174932
C4    C     C_3   0.065751 0.617185 0.037461 -0.577620
C5    C     C_3   0.073371 0.617912 0.940643 0.193812
C6    C     C_1   0.995429 0.495964 0.175611 -0.042840
C7    C     C_1   0.998114 0.496378 0.824873 -0.019494
C8    C     C_1   0.000055 0.498025 0.749404 -0.169066
C9    C     C_R   0.275063 0.041698 0.425591 -0.187252
C10   C     C_R   0.229912 0.838029 0.462221 -0.080578
C11   C     C_R   0.813160 0.081591 0.541180 -0.182457
C12   C     C_R   0.000426 0.499769 0.659603 0.815056
C13   C     C_R   0.731603 0.965769 0.552646 -0.153829
C14   C     C_R   0.608320 0.932100 0.522041 -0.158760
C15   C     C_R   0.565608 0.013065 0.472300 0.091469
C16   C     C_R   0.650020 0.130251 0.456272 0.027035
C17   C     C_R   0.439020 0.982751 0.446465 0.021708
C18   C     C_R   0.398357 0.070477 0.421418 0.068750
C19   C     C_R   0.482869 0.184013 0.392905 0.153861
C20   C     C_R   0.607245 0.209251 0.403153 -0.226017
C21   C     C_R   0.351001 0.868012 0.447285 0.089337
C22   C     C_R   0.193067 0.927650 0.453455 0.123605
C23   C     C_R   0.145742 0.714272 0.483937 0.824962
C24   C     C_R   0.772626 0.165381 0.497120 -0.089852
C25   C     C_R   0.383540 0.407246 0.671005 0.309516
C26   C     C_R   0.752741 0.634821 0.374769 0.611727
C27   C     C_R   0.650177 0.657745 0.343873 -0.350095
C28   C     C_R   0.550826 0.609066 0.391551 -0.238899
C29   C     C_R   0.552901 0.539140 0.472807 -0.010396
C30   C     C_R   0.657119 0.514253 0.502448 0.183266
C31   C     C_R   0.455236 0.493545 0.526464 -0.057746
C32   C     C_R   0.477904 0.453135 0.616166 0.014734
C33   C     C_R   0.589374 0.447366 0.647009 -0.275785
C34   C     C_R   0.999718 0.500480 0.340361 0.818018
C35   C     C_R   0.657649 0.446706 0.587567 0.197711
C36   C     C_R   0.336392 0.486883 0.495330 -0.029632
C37   C     C_R   0.267075 0.395178 0.634278 0.071769
C38   C     C_3   0.046265 0.409423 0.975683 0.194022
C39   C     C_3   0.859501 0.450968 0.936896 -0.021115
C40   C     C_3   0.858826 0.448006 0.036148 0.021264
C41   C     C_1   0.997368 0.498685 0.250834 -0.182580
C42   C     C_3   0.994513 0.494297 0.917024 0.116240
Cu1   Cu    Cu3+1 0.098280 0.475420 0.519630 0.934454
Cu2   Cu    Cu3+1 0.901720 0.524580 0.480370 0.969699
H1    H     H_    0.138785 0.432470 0.958299 0.097637
H2    H     H_    0.160655 0.473247 0.091589 0.101558
H3    H     H_    0.019685 0.671530 0.039629 0.175881
H4    H     H_    0.243370 0.108357 0.411555 0.157581
H5    H     H_    0.906725 0.105908 0.571290 0.157318
H6    H     H_    0.546921 0.843375 0.542065 0.154251
H7    H     H_    0.762699 0.902370 0.590115 0.146162
H8    H     H_    0.670146 0.293595 0.374476 0.182006
H9    H     H_    0.194850 0.359692 0.675993 0.154102
H10   H     H_    0.603849 0.408285 0.713832 0.169782
H11   H     H_    0.314333 0.520778 0.428815 0.140849
H12   H     H_    0.476172 0.632560 0.365698 0.159285
H13   H     H_    0.647795 0.714944 0.282921 0.147509
H14   H     H_    0.805913 0.362478 0.920577 0.225208
H15   H     H_    0.823866 0.509590 0.042547 0.174281
H16   H     H_    0.035997 0.677297 0.898802 0.178275
H17   H     H_    0.159224 0.657432 0.072588 0.203151
N1    N     N_R   0.246300 0.438200 0.549400 -0.220589
N2    N     N_R   0.754300 0.561180 0.451130 -0.212964
O1    O     O_R   0.972520 0.318130 0.524690 -0.577939
O2    O     O_R   0.806530 0.359650 0.491530 -0.597759
O3    O     O_R   0.083030 0.479240 0.637150 -0.581551
O4    O     O_R   0.917040 0.520750 0.603990 -0.576886
O5    O     O_R   0.193470 0.640350 0.508470 -0.573053
O6    O     O_R   0.027480 0.681870 0.475310 -0.539182
O7    O     O_R   0.082960 0.479250 0.396010 -0.591891
O8    O     O_R   0.916970 0.520760 0.362850 -0.524344
C43   C     C_3   0.033706 0.305901 0.137062 -0.735307
H18   H     H_    0.056538 0.320530 0.205779 0.204885
H19   H     H_    0.937340 0.242181 0.127991 0.263219
H20   H     H_    0.092022 0.267308 0.126802 0.230717
C44   C     C_3   0.067753 0.905702 0.470421 -0.800812
H21   H     H_    0.047852 0.854155 0.536244 0.233841
H22   H     H_    0.061360 0.987197 0.468531 0.211311
H23   H     H_    0.997088 0.860261 0.419824 0.268765
C45   C     C_3   0.443656 0.279050 0.352821 -0.872811
H24   H     H_    0.522072 0.361052 0.330723 0.238223
H25   H     H_    0.374587 0.253883 0.295452 0.234998
H26   H     H_    0.403844 0.295790 0.401669 0.232927
C46   C     C_3   0.379080 0.787778 0.410412 -0.847692
H27   H     H_    0.395366 0.722640 0.462631 0.243369
H28   H     H_    0.301904 0.743302 0.362472 0.226290
H29   H     H_    0.461420 0.836046 0.374713 0.228851
O9    O     O_3   0.968708 0.295129 0.962770 -0.734158
H30   H     H_    0.987816 0.285053 0.908467 0.326344
O10   O     O_3   0.400085 0.371750 0.759674 -0.742111
H31   H     H_    0.482793 0.424872 0.782564 0.320636
O11   O     O_3   0.853652 0.687200 0.329205 -0.712597
H32   H     H_    0.838679 0.738163 0.276012 0.291270
C47   C     C_3   0.659143 0.330348 0.602768 -0.733407
H33   H     H_    0.596444 0.265588 0.650809 0.196939
H34   H     H_    0.620316 0.291910 0.542780 0.245073
H35   H     H_    0.750050 0.333883 0.630771 0.234938
C48   C     C_3   0.792071 0.520905 0.879147 -0.971674
H36   H     H_    0.694201 0.477672 0.891069 0.249999
H37   H     H_    0.831484 0.609520 0.894054 0.239897
H38   H     H_    0.795074 0.525838 0.808911 0.255593
C49   C     C_3   0.766658 0.329507 0.078009 -0.859194
H39   H     H_    0.778243 0.320362 0.150143 0.239826
H40   H     H_    0.671973 0.320233 0.054482 0.233309
H41   H     H_    0.773899 0.257783 0.059094 0.261522
O12   O     O_3   0.195582 0.662869 0.922756 -0.714164
H42   H     H_    0.238807 0.624569 0.968312 0.319320

loop_
_geom_bond_atom_site_label_1
_geom_bond_atom_site_label_2
_ccdc_geom_bond_type
C5    C42   S    
C23   O6    A    
C19   C20   A    
C44   H23   S    
C22   C44   S    
Cu1   Cu2   S    
C3    C6    S    
C37   N1    A    
C28   H12   S    
C7    C8    T    
C10   C22   A    
C25   O10   S    
C30   C35   A    
C49   H41   S    
C28   C29   A    
C46   H28   S    
C38   C42   S    
C43   H20   S    
C2    C43   S    
C9    C22   A    
O12   H42   S    
C26   O11   S    
C15   C16   A    
C11   C24   A    
Cu2   O8    S    
C18   C19   A    
C7    C42   S    
C38   H1    S    
C25   C37   A    
C13   H7    S    
C47   H33   S    
Cu1   O5    S    
C6    C41   T    
C1    O2    A    
C46   H29   S    
C34   O7    A    
C8    C12   S    
C37   H9    S    
C25   C32   A    
C16   C24   A    
C40   H15   S    
C30   N2    A    
Cu2   O2    S    
C19   C45   S    
C34   C41   S    
C45   H26   S    
C36   N1    A    
Cu1   O1    S    
C39   C42   S    
C5    O12   S    
C10   C21   A    
C12   O4    A    
C46   H27   S    
C45   H25   S    
C27   H13   S    
C39   C40   S    
C43   H18   S    
C39   C48   S    
C47   H35   S    
C39   H14   S    
C12   O3    A    
C4    H17   S    
C2    H2    S    
C38   O9    S    
C23   O5    A    
C47   H34   S    
C26   N2    A    
C29   C30   A    
C11   H5    S    
C2    C38   S    
C31   C32   A    
C21   C46   S    
C16   C20   A    
C17   C18   A    
C26   C27   A    
Cu2   O6    S    
C44   H21   S    
C49   H40   S    
C1    C24   S    
C43   H19   S    
C3    C40   S    
C48   H36   S    
Cu1   O7    S    
C48   H37   S    
C3    C4    S    
C1    O1    A    
C35   C47   S    
C33   H10   S    
C15   C17   A    
C5    H16   S    
C31   C36   A    
C44   H22   S    
C45   H24   S    
C10   C23   S    
C48   H38   S    
C32   C33   A    
C2    C3    S    
C20   H8    S    
C36   H11   S    
C11   C13   A    
O10   H31   S    
C14   H6    S    
Cu1   O3    S    
O11   H32   S    
C33   C35   A    
C49   H39   S    
C17   C21   A    
C40   C49   S    
C9    C18   A    
C4    C5    S    
O9    H30   S    
C9    H4    S    
C29   C31   A    
Cu2   N2    S    
C27   C28   A    
C14   C15   A    
Cu2   O4    S    
C13   C14   A    
C34   O8    A    
Cu1   N1    S    
C4    H3    S    
