data_mof_unit_56726.cif
_audit_creation_date              2012-12-10T18:11:40-0500
_audit_creation_method            fapswitch 2.2
_symmetry_space_group_name_H-M    P1
_symmetry_Int_Tables_number       1
_space_group_crystal_system       triclinic
_cell_length_a                    10.488386
_cell_length_b                    12.625468
_cell_length_c                    13.123836
_cell_angle_alpha                 82.23435
_cell_angle_beta                  90.626632
_cell_angle_gamma                 102.680474
_cell_volume                      1679.61658083

loop_
_atom_site_label
_atom_site_type_symbol
_atom_type_description
_atom_site_fract_x
_atom_site_fract_y
_atom_site_fract_z
_atom_type_partial_charge
C1    C     C_R   0.489578 0.438813 0.691254 0.846223
C2    C     C_R   0.502289 0.447539 0.973883 0.085976
C3    C     C_R   0.547567 0.466841 0.871039 0.094933
C4    C     C_R   0.742392 0.500948 0.500262 0.849364
C5    C     C_R   0.546279 0.529993 0.037017 0.081154
C6    C     C_R   0.648910 0.621337 0.002468 0.181920
C7    C     C_R   0.705210 0.630379 0.905192 -0.259947
C8    C     C_R   0.655386 0.553857 0.840214 -0.212162
C9    C     C_R   0.489687 0.524637 0.133416 -0.255886
C10   C     C_R   0.645180 0.687830 0.166790 -0.201288
C11   C     C_R   0.482354 0.399283 0.801041 -0.116480
C12   C     C_3   0.063006 0.579398 0.427563 -0.181911
C13   C     C_R   0.319785 0.088319 0.345992 -0.309207
C14   C     C_R   0.655124 0.800104 0.629156 0.025237
C15   C     C_R   0.687002 0.904421 0.657833 -0.251564
C16   C     C_R   0.516082 0.561105 0.308847 0.852352
C17   C     C_R   0.627733 0.985546 0.609321 -0.193971
C18   C     C_R   0.536300 0.962501 0.530925 0.015120
C19   C     C_R   0.507410 0.854634 0.504463 0.232698
C20   C     C_R   0.473063 0.041762 0.477707 -0.016604
C21   C     C_R   0.382872 0.011599 0.399432 0.195612
C22   C     C_R   0.356950 0.905387 0.374732 -0.291475
C23   C     C_3   0.987320 0.598818 0.521028 -0.135837
C24   C     C_R   0.418798 0.828339 0.426254 -0.205507
C25   C     C_R   0.495644 0.150567 0.498399 -0.050060
C26   C     C_R   0.346606 0.194338 0.370111 0.008529
C27   C     C_R   0.257624 0.499104 0.499718 0.852783
C28   C     C_3   0.937104 0.420962 0.572360 -0.185875
C29   C     C_3   0.048922 0.517288 0.592882 -0.172959
C30   C     C_3   0.121912 0.497891 0.499431 0.032100
C31   C     C_3   0.012741 0.401522 0.478885 -0.137993
C32   C     C_3   0.951168 0.483071 0.407022 -0.173039
C33   C     C_3   0.878162 0.502407 0.500482 0.029211
C34   C     C_R   0.695576 0.700993 0.066914 -0.207998
C35   C     C_R   0.544716 0.597249 0.200454 -0.052050
C36   C     C_R   0.394613 0.300691 0.836941 -0.196357
C37   C     C_R   0.364775 0.273020 0.941218 -0.151790
C38   C     C_R   0.415116 0.346569 0.009202 -0.190494
H1    H     H_    0.093429 0.530855 0.668503 0.137995
H2    H     H_    0.562260 0.181213 0.556012 0.125761
H3    H     H_    0.701510 0.737065 0.666079 0.128199
H4    H     H_    0.881086 0.356812 0.631402 0.129829
H5    H     H_    0.655822 0.065024 0.634495 0.134866
H6    H     H_    0.757500 0.922382 0.717457 0.144203
H7    H     H_    0.395927 0.748765 0.402691 0.210684
H8    H     H_    0.027072 0.321148 0.461697 0.142721
H9    H     H_    0.906615 0.469556 0.331403 0.138164
H10   H     H_    0.119094 0.643639 0.368616 0.125519
H11   H     H_    0.972955 0.679177 0.538233 0.142349
H12   H     H_    0.405806 0.461130 0.160673 0.138428
H13   H     H_    0.689261 0.744371 0.219003 0.157366
H14   H     H_    0.786512 0.697450 0.878712 0.138748
H15   H     H_    0.774673 0.770417 0.041694 0.133790
H16   H     H_    0.345581 0.246896 0.784058 0.157460
H17   H     H_    0.386771 0.321048 0.089030 0.129528
H18   H     H_    0.297864 0.196446 0.968941 0.138745
H19   H     H_    0.702980 0.562482 0.765899 0.151623
H20   H     H_    0.299183 0.255008 0.329384 0.124282
H21   H     H_    0.288773 0.881716 0.314836 0.149732
H22   H     H_    0.250899 0.066580 0.286061 0.138792
N1    N     N_R   0.432930 0.222190 0.444670 -0.099995
N2    N     N_R   0.566370 0.776980 0.554790 -0.129075
O1    O     O_R   0.467970 0.366730 0.627150 -0.617304
O2    O     O_R   0.510820 0.544830 0.662520 -0.608090
O3    O     O_R   0.664630 0.410960 0.482340 -0.614862
O4    O     O_R   0.707470 0.589060 0.517710 -0.635420
O5    O     O_R   0.489180 0.455170 0.337480 -0.610401
O6    O     O_R   0.532030 0.633270 0.372850 -0.638401
O7    O     O_R   0.292530 0.410940 0.482290 -0.624871
O8    O     O_R   0.335370 0.589040 0.517660 -0.630238
Zn1   Zn    Zn3+2 0.471390 0.381080 0.476380 0.933480
Zn2   Zn    Zn3+2 0.528610 0.618920 0.523620 0.923639

loop_
_geom_bond_atom_site_label_1
_geom_bond_atom_site_label_2
_ccdc_geom_bond_type
C1    C11   S    
C12   H10   S    
C7    C8    A    
C13   H22   S    
C12   C23   S    
C29   C30   S    
C24   H7    S    
C23   C29   S    
C36   C37   A    
C26   N1    A    
C7    H14   S    
C25   H2    S    
C4    O3    A    
C23   H11   S    
C20   C25   A    
C19   N2    A    
C14   N2    A    
C18   C19   A    
O7    Zn1   S    
C37   H18   S    
O4    Zn2   S    
C38   H17   S    
C23   C33   S    
C31   H8    S    
C10   C35   A    
C16   O6    A    
C18   C20   A    
C27   O7    A    
N1    Zn1   S    
C21   C22   A    
C12   C32   S    
C27   C30   S    
C10   H13   S    
C1    O1    A    
N2    Zn2   S    
C3    C11   A    
C3    C8    A    
C22   H21   S    
O3    Zn1   S    
C6    C34   A    
C11   C36   A    
C17   H5    S    
C5    C9    A    
C37   C38   A    
C8    H19   S    
C2    C38   A    
C31   C32   S    
C30   C31   S    
O6    Zn2   S    
C29   H1    S    
C17   C18   A    
C13   C21   A    
C10   C34   A    
C16   O5    A    
C25   N1    A    
C26   H20   S    
C27   O8    A    
C14   H3    S    
O1    Zn1   S    
C28   C33   S    
C32   H9    S    
C22   C24   A    
C13   C26   A    
C2    C5    A    
C1    O2    A    
C15   C17   A    
C4    C33   S    
C28   C29   S    
C12   C30   S    
C28   C31   S    
C9    H12   S    
C15   H6    S    
C6    C7    A    
C32   C33   S    
C2    C3    A    
C16   C35   S    
C4    O4    A    
C5    C6    A    
C28   H4    S    
C19   C24   A    
O5    Zn1   S    
O2    Zn2   S    
C36   H16   S    
C20   C21   A    
C34   H15   S    
C9    C35   A    
C14   C15   A    
O8    Zn2   S    
