data_mof_unit_26113.cif
_audit_creation_date              2013-03-05T16:05:45-0500
_audit_creation_method            fapswitch 2.2
_symmetry_space_group_name_H-M    P1
_symmetry_Int_Tables_number       1
_space_group_crystal_system       triclinic
_cell_length_a                    9.543432
_cell_length_b                    10.80628
_cell_length_c                    17.22791
_cell_angle_alpha                 90.639701
_cell_angle_beta                  86.466466
_cell_angle_gamma                 90.516153
_cell_volume                      1773.14727206

loop_
_atom_site_label
_atom_site_type_symbol
_atom_site_description
_atom_site_fract_x
_atom_site_fract_y
_atom_site_fract_z
_atom_type_partial_charge
O1    O     O_R   0.381260 0.680340 0.500000 -0.579808
O2    O     O_R   0.618740 0.319660 0.500000 -0.579712
O3    O     O_R   0.618830 0.680370 0.500010 -0.511599
O4    O     O_R   0.381170 0.319630 0.499990 -0.511696
C1    C     C_R   0.500438 0.737548 0.501274 0.931175
C2    C     C_R   0.499567 0.262453 0.498713 0.931062
O5    O     O_R   0.367440 0.500000 0.613600 -0.592438
O6    O     O_R   0.632560 0.500000 0.386400 -0.592688
O7    O     O_R   0.605010 0.500030 0.613600 -0.562481
O8    O     O_R   0.394990 0.499970 0.386400 -0.562411
C3    C     C_R   0.482176 0.497811 0.650027 0.824546
C4    C     C_R   0.517823 0.502197 0.349973 0.824453
Cu1   Cu    Cu3+1 0.359340 0.499980 0.500000 1.050061
Cu2   Cu    Cu3+1 0.640660 0.500020 0.500000 1.049992
C5    C     C_R   0.473492 0.487168 0.734538 -0.033259
C6    C     C_R   0.526498 0.512835 0.265462 -0.033286
C7    C     C_R   0.587704 0.439559 0.771784 -0.131722
C8    C     C_R   0.412308 0.560503 0.228224 -0.131520
C9    C     C_R   0.580091 0.427405 0.852032 -0.096966
C10   C     C_R   0.419908 0.572645 0.147974 -0.096889
C11   C     C_R   0.458857 0.463876 0.895779 0.125998
C12   C     C_R   0.541109 0.536111 0.104221 0.126079
C13   C     C_R   0.343459 0.509217 0.858940 -0.067141
C14   C     C_R   0.656485 0.490708 0.141052 -0.067022
C15   C     C_R   0.350593 0.520652 0.778381 -0.159180
C16   C     C_R   0.649360 0.479273 0.221611 -0.159378
C17   C     C_2   0.456932 0.461222 0.980778 0.139369
C18   C     C_2   0.543021 0.538767 0.019223 0.139313
H1    H     H_    0.682565 0.411080 0.738894 0.175003
H2    H     H_    0.317475 0.589032 0.261120 0.174901
H3    H     H_    0.738785 0.442933 0.249455 0.187286
H4    H     H_    0.261145 0.556939 0.750530 0.187279
H5    H     H_    0.249692 0.538229 0.892651 0.173869
H6    H     H_    0.750225 0.461647 0.107334 0.173819
H7    H     H_    0.330531 0.608162 0.119666 0.155180
H8    H     H_    0.669484 0.391931 0.880346 0.155227
C19   C     C_R   0.598668 0.934346 0.451721 0.355428
C20   C     C_R   0.401420 0.065655 0.548317 0.355689
C21   C     C_R   0.598580 0.063491 0.450008 0.213223
C22   C     C_R   0.401480 0.936513 0.550013 0.213351
C23   C     C_R   0.498619 0.128529 0.497872 -0.336946
C24   C     C_R   0.501405 0.871474 0.502129 -0.336873
C25   C     C_R   0.922132 0.576385 0.549441 0.430022
C26   C     C_R   0.077868 0.423618 0.450557 0.430018
C27   C     C_R   0.070604 0.575646 0.549254 -0.114459
C28   C     C_R   0.929397 0.424358 0.450744 -0.114451
H9    H     H_    0.123664 0.636151 0.588619 0.216260
H10   H     H_    0.876337 0.363858 0.411376 0.216345
N1    N     N_R   0.147930 0.499970 0.499980 -0.258342
N2    N     N_R   0.852070 0.500030 0.500020 -0.258357
N3    N     N_R   0.631841 0.630086 0.979433 0.127305
O9    O     O_R   0.587593 0.690906 0.921044 -0.298290
O10   O     O_R   0.745957 0.668209 0.010117 -0.327215
N4    N     N_R   0.368103 0.369908 0.020569 0.127303
O11   O     O_R   0.254006 0.331765 0.989872 -0.327213
O12   O     O_R   0.412324 0.309114 0.078974 -0.298339
O13   O     O_3   0.694983 0.869293 0.404077 -0.505719
C29   C     C_3   0.637195 0.846764 0.331643 0.095738
H11   H     H_    0.606963 0.934608 0.304021 0.185791
H12   H     H_    0.543273 0.785028 0.338598 0.092555
C30   C     C_3   0.746526 0.783393 0.277274 -0.663334
H13   H     H_    0.779195 0.695177 0.303036 0.239322
H14   H     H_    0.701794 0.763355 0.220391 0.212114
H15   H     H_    0.840181 0.844475 0.267689 0.276026
O14   O     O_3   0.305350 0.130682 0.596127 -0.505700
C31   C     C_3   0.363743 0.153496 0.668359 0.095248
H16   H     H_    0.456980 0.215942 0.661143 0.092631
H17   H     H_    0.395203 0.065865 0.695769 0.185109
C32   C     C_3   0.254415 0.215937 0.723164 -0.662658
H18   H     H_    0.161776 0.153923 0.733257 0.276107
H19   H     H_    0.299791 0.236653 0.779759 0.211834
H20   H     H_    0.220128 0.303677 0.697538 0.239522
N5    N     N_R   0.696034 0.127261 0.397056 0.139672
O15   O     O_R   0.650904 0.207867 0.349089 -0.375485
O16   O     O_R   0.827722 0.096115 0.391204 -0.261501
N6    N     N_R   0.304137 0.872756 0.603031 0.139956
O17   O     O_R   0.172492 0.903972 0.609017 -0.261373
O18   O     O_R   0.349358 0.792113 0.650941 -0.375321
N7    N     N_R   0.846922 0.658955 0.601654 0.150284
O19   O     O_R   0.836634 0.774359 0.582304 -0.280769
O20   O     O_R   0.830956 0.630359 0.674809 -0.339674
N8    N     N_R   0.153079 0.341055 0.398340 0.150280
O21   O     O_R   0.163377 0.225650 0.417686 -0.280849
O22   O     O_R   0.169038 0.369657 0.325186 -0.339681

loop_
_geom_bond_atom_site_label_1
_geom_bond_atom_site_label_2
_geom_bond_distance
_ccdc_geom_bond_type
C26   N1    1.377445 A    
C31   H17   1.114659 S    
C1    C24   1.447099 S    
C32   H20   1.110722 S    
C7    H1    1.083150 S    
N5    O15   1.301472 A    
C17   N4    1.445919 S    
C21   C23   1.409302 A    
O5    C3    1.295707 A    
O1    C1    1.290882 A    
C9    C11   1.398592 A    
N6    O18   1.301406 A    
C26   N8    1.426358 S    
C9    H8    1.083534 S    
C18   N3    1.445909 S    
C5    C15   1.403361 A    
C31   C32   1.520654 S    
C25   N7    1.426357 S    
C19   C24   1.407057 A    
C32   H19   1.110724 S    
O4    Cu1   1.961878 S    
C30   H14   1.111140 S    
C10   H7    1.083534 S    
C3    C5    1.458969 S    
C4    C6    1.458968 S    
C13   H5    1.083183 S    
C2    C23   1.447083 S    
C8    H2    1.083155 S    
C15   H4    1.083227 S    
C22   C24   1.409278 A    
C31   H16   1.113548 S    
C11   C17   1.463948 S    
C16   H3    1.083230 S    
C12   C18   1.463929 S    
Cu1   Cu2   2.684753 S    
N5    O16   1.301585 A    
O2    C2    1.290847 A    
C26   C28   1.416825 A    
C28   H10   1.081798 S    
C27   H9    1.081803 S    
C6    C16   1.403362 A    
N4    O12   1.301631 A    
N3    O9    1.301630 A    
N6    O17   1.301432 A    
C20   C23   1.407063 A    
O4    C2    1.291576 A    
N7    O20   1.300482 A    
C29   H11   1.114784 S    
C14   H6    1.083187 S    
C22   N6    1.438714 S    
N3    O10   1.301242 A    
C30   H15   1.111502 S    
O7    Cu2   1.965674 S    
O7    C3    1.295280 A    
C20   O14   1.385059 S    
C27   N1    1.360920 A    
O6    C4    1.295718 A    
C25   C27   1.416826 A    
O3    Cu2   1.961878 S    
O8    C4    1.295269 A    
Cu1   N1    2.017598 S    
C10   C12   1.398590 A    
N8    O21   1.300589 A    
N8    O22   1.300484 A    
C11   C13   1.399474 A    
C12   C14   1.399472 A    
O1    Cu1   1.958340 S    
C5    C7    1.402909 A    
N4    O11   1.301241 A    
O6    Cu2   1.963371 S    
C14   C16   1.392150 A    
O3    C1    1.291551 A    
O8    Cu1   1.965676 S    
C25   N2    1.377446 A    
C28   N2    1.360920 A    
C19   C21   1.396229 A    
C20   C22   1.396188 A    
O13   C29   1.412886 S    
Cu2   N2    2.017597 S    
C29   C30   1.520872 S    
C7    C9    1.387581 A    
C8    C10   1.387587 A    
C21   N5    1.438739 S    
C30   H13   1.111212 S    
O2    Cu2   1.958340 S    
C32   H18   1.110825 S    
N7    O19   1.300586 A    
O5    Cu1   1.963369 S    
C13   C15   1.392153 A    
C6    C8    1.402910 A    
O14   C31   1.412808 S    
C17   C18   1.363137 D    
C29   H12   1.113842 S    
C19   O13   1.385123 S    
