data_mof_unit_27249.cif
_audit_creation_date              2012-10-26T21:07:46-0400
_audit_creation_method            fapswitch 2.2
_symmetry_space_group_name_H-M    P1
_symmetry_Int_Tables_number       1
_space_group_crystal_system       triclinic
_cell_length_a                    10.923107
_cell_length_b                    9.095057
_cell_length_c                    7.786629
_cell_angle_alpha                 90.005397
_cell_angle_beta                  101.716866
_cell_angle_gamma                 89.99245
_cell_volume                      757.453747143

loop_
_atom_site_label
_atom_site_type_symbol
_atom_type_description
_atom_site_fract_x
_atom_site_fract_y
_atom_site_fract_z
_atom_type_partial_charge
C1    C     C_R   0.499965 0.220022 0.499987 0.553224
C2    C     C_1   0.499941 0.934633 0.499993 -0.052767
C3    C     C_3   0.950491 0.555714 0.768430 -0.308171
C4    C     C_3   0.012835 0.699111 0.731715 -0.451482
C5    C     C_3   0.052137 0.566508 0.235959 -0.297280
C6    C     C_3   0.991466 0.708279 0.281903 -0.443731
C7    C     C_R   0.499964 0.779973 0.499995 0.549813
C8    C     C_R   0.261200 0.494184 0.431167 0.542964
C9    C     C_R   0.738745 0.495208 0.569003 0.572862
C10   C     C_2   0.123680 0.484977 0.396244 -0.000121
C11   C     C_2   0.875967 0.483784 0.603369 0.036270
C12   C     C_2   0.066357 0.403153 0.504891 0.088741
C13   C     C_2   0.929855 0.404918 0.489711 0.139495
C14   C     C_1   0.499940 0.065373 0.499981 -0.050595
Cu1   Cu    Cu3+1 0.500010 0.500000 0.669080 1.000131
Cu2   Cu    Cu3+1 0.499990 0.500000 0.330920 1.020554
H1    H     H_    0.890529 0.197774 0.399997 0.232493
H2    H     H_    0.913757 0.684530 0.349475 0.169279
H3    H     H_    0.061972 0.779650 0.365324 0.147893
H4    H     H_    0.951960 0.768968 0.159414 0.144762
H5    H     H_    0.116491 0.597135 0.148203 0.162244
H6    H     H_    0.981028 0.494476 0.156566 0.132331
H7    H     H_    0.865034 0.327087 0.241910 0.224748
H8    H     H_    0.192797 0.237484 0.575296 0.233575
H9    H     H_    0.188107 0.363225 0.737149 0.256661
H10   H     H_    0.089735 0.678025 0.661692 0.172639
H11   H     H_    0.943078 0.774726 0.653872 0.149505
H12   H     H_    0.053751 0.753724 0.857858 0.146511
H13   H     H_    0.887676 0.581949 0.859878 0.158599
H14   H     H_    0.021405 0.478201 0.839569 0.155012
N1    N     N_1   0.499980 0.500000 0.076820 -0.081391
N2    N     N_1   0.500020 0.500000 0.923180 -0.085180
N3    N     N_3   0.855567 0.303701 0.369547 -0.601951
N4    N     N_3   0.134596 0.303904 0.633775 -0.638263
O1    O     O_R   0.500010 0.288400 0.642760 -0.498492
O2    O     O_R   0.499990 0.711600 0.357240 -0.496770
O3    O     O_R   0.499990 0.288400 0.357240 -0.485727
O4    O     O_R   0.500010 0.711600 0.642760 -0.493876
O5    O     O_R   0.320690 0.500000 0.590310 -0.512928
O6    O     O_R   0.679310 0.500000 0.409690 -0.473807
O7    O     O_R   0.320680 0.500000 0.304730 -0.507427
O8    O     O_R   0.679320 0.500000 0.695270 -0.510350

loop_
_geom_bond_atom_site_label_1
_geom_bond_atom_site_label_2
_ccdc_geom_bond_type
C3    H14   S    
C4    H10   S    
Cu1   O4    S    
C13   N3    S    
C8    O5    A    
C9    C11   S    
C7    O2    A    
Cu2   O3    S    
C2    C7    S    
C1    O3    A    
H9    N4    S    
C5    H5    S    
C5    C10   S    
H1    N3    S    
N1    N2    T    
Cu2   O2    S    
Cu2   N1    S    
C8    O7    A    
C6    H3    S    
C11   C13   D    
Cu1   O5    S    
C9    O8    A    
C10   C12   D    
Cu2   O6    S    
C2    C14   T    
Cu1   O1    S    
C4    H12   S    
C7    O4    A    
C5    C6    S    
C6    H2    S    
C3    C11   S    
C12   N4    S    
C3    C4    S    
Cu1   N2    S    
C4    H11   S    
C6    H4    S    
C12   C13   S    
C1    O1    A    
C8    C10   S    
C3    H13   S    
C1    C14   S    
Cu2   O7    S    
C9    O6    A    
H8    N4    S    
C5    H6    S    
Cu1   Cu2   S    
Cu1   O8    S    
H7    N3    S    
