data_mof_unit_27018.cif
_audit_creation_date              2012-12-11T18:11:09-0500
_audit_creation_method            fapswitch 2.2
_symmetry_space_group_name_H-M    P1
_symmetry_Int_Tables_number       1
_space_group_crystal_system       triclinic
_cell_length_a                    8.563579
_cell_length_b                    12.868172
_cell_length_c                    18.909773
_cell_angle_alpha                 100.437841
_cell_angle_beta                  91.783203
_cell_angle_gamma                 98.128013
_cell_volume                      2025.29527914

loop_
_atom_site_label
_atom_site_type_symbol
_atom_type_description
_atom_site_fract_x
_atom_site_fract_y
_atom_site_fract_z
_atom_type_partial_charge
Ba1   Ba    Ba6+2 0.852780 0.548340 0.465070 1.597531
Ba2   Ba    Ba6+2 0.337060 0.451750 0.534940 1.552640
C1    C     C_3   0.623433 0.860523 0.178163 -0.212278
C2    C     C_R   0.889518 0.429447 0.098977 0.636197
C3    C     C_R   0.784270 0.411298 0.946766 0.635265
C4    C     C_3   0.126009 0.759192 0.269097 1.040535
C5    C     C_R   0.936850 0.460792 0.975203 -0.008093
C6    C     C_R   0.722795 0.430219 0.882847 -0.153689
C7    C     C_R   0.821070 0.472776 0.834385 -0.102599
C8    C     C_R   0.980568 0.514030 0.857198 0.007097
C9    C     C_R   0.038167 0.510304 0.928828 -0.042954
C10   C     C_R   0.768985 0.462154 0.761437 0.038553
C11   C     C_R   0.878540 0.487709 0.711697 -0.204139
C12   C     C_3   0.567177 0.783924 0.229052 0.833293
C13   C     C_R   0.030154 0.545446 0.733961 0.064035
C14   C     C_R   0.081702 0.558348 0.808531 -0.094427
C15   C     C_R   0.151944 0.495879 0.070098 -0.028308
C16   C     C_3   0.136417 0.791298 0.195550 0.560276
C17   C     C_R   0.206507 0.493989 0.142999 -0.066843
C18   C     C_R   0.101576 0.455119 0.192775 -0.231947
C19   C     C_R   0.945823 0.416401 0.165475 0.573670
C20   C     C_R   0.231111 0.611714 0.836325 -0.032694
C21   C     C_R   0.289039 0.608394 0.906086 0.565962
C22   C     C_R   0.197908 0.551065 0.952219 0.032311
C23   C     C_3   0.423592 0.215542 0.306399 0.270007
C24   C     C_R   0.257476 0.535482 0.021158 0.085232
C25   C     C_R   0.419603 0.554300 0.042604 -0.010351
C26   C     C_R   0.366187 0.530757 0.165590 -0.072196
C27   C     C_R   0.472015 0.553483 0.113198 -0.027503
C28   C     C_3   0.232369 0.787673 0.624578 0.274192
C29   C     C_R   0.414408 0.547575 0.240038 -0.107450
C30   C     C_R   0.306378 0.518129 0.289842 0.335084
C31   C     C_R   0.154652 0.462978 0.267542 0.122752
C32   C     C_R   0.779511 0.174313 0.511818 -0.204291
C33   C     C_R   0.444298 0.804957 0.464767 -0.212210
C34   C     C_3   0.396801 0.129434 0.236802 0.496331
C35   C     C_R   0.415128 0.980619 0.442387 -0.014468
C36   C     C_R   0.354238 0.871786 0.436705 0.006004
C37   C     C_R   0.589392 0.845344 0.503265 0.098664
C38   C     C_R   0.650339 0.958260 0.511834 -0.044871
C39   C     C_R   0.559731 0.026640 0.481616 -0.068904
C40   C     C_3   0.218375 0.905964 0.646572 -0.239162
C41   C     C_R   0.619367 0.138601 0.488970 0.046038
C42   C     C_R   0.862086 0.113344 0.549333 0.036119
C43   C     C_R   0.796101 0.006388 0.550657 -0.106546
C44   C     C_3   0.905142 0.185756 0.285578 0.335646
C45   C     C_3   0.136756 0.251904 0.727829 0.284379
C46   C     C_3   0.925414 0.075784 0.306965 -0.156285
C47   C     C_3   0.720383 0.783070 0.706896 0.342411
C48   C     C_3   0.707989 0.871381 0.774199 -0.186827
C49   C     C_3   0.339883 0.975642 0.614589 -0.475254
C50   C     C_3   0.871666 0.166824 0.202472 -0.309589
C51   C     C_3   0.769254 0.019658 0.326559 -0.336325
C52   C     C_3   0.053944 0.081483 0.367266 -0.286138
C53   C     C_3   0.889660 0.767842 0.700632 -0.260956
C54   C     C_3   0.620105 0.680598 0.716676 -0.241953
C55   C     C_3   0.772537 0.852622 0.846818 -0.458809
C56   C     C_3   0.147406 0.238993 0.806511 0.459332
C57   C     C_3   0.503823 0.321616 0.290066 -0.366493
C58   C     C_3   0.264646 0.142438 0.184157 -0.351087
C59   C     C_3   0.627394 0.804253 0.100182 -0.417630
C60   C     C_3   0.752803 0.210519 0.740834 -0.369324
C61   C     C_3   0.542451 0.117401 0.846878 -0.312123
C62   C     C_3   0.836703 0.441581 0.634395 -0.298473
C63   C     C_3   0.871821 0.262222 0.479652 -0.268046
C64   C     C_3   0.573368 0.194823 0.730626 0.345452
C65   C     C_3   0.505694 0.100264 0.765435 -0.225125
C66   C     C_R   0.991282 0.460890 0.047412 -0.142902
F1    F     F_    0.517897 0.840324 0.291590 -0.755462
F2    F     F_    0.999084 0.826928 0.176708 -0.706522
F3    F     F_    0.363729 0.029557 0.255371 -0.721269
F4    F     F_    0.218997 0.334334 0.849046 -0.714096
F5    F     F_    0.006726 0.673536 0.264270 -0.685395
F6    F     F_    0.836956 0.368927 0.202301 -0.710590
F7    F     F_    0.353886 0.538028 0.360705 -0.724716
F8    F     F_    0.701320 0.330290 0.973020 -0.667831
F9    F     F_    0.730461 0.420261 0.090090 -0.642217
F10   F     F_    0.431467 0.667733 0.928500 -0.760032
H1    H     H_    0.230938 0.930768 0.706108 0.139761
H2    H     H_    0.310098 0.225362 0.330680 0.076300
H3    H     H_    0.507937 0.129885 0.208031 0.026359
H4    H     H_    0.154506 0.721470 0.154342 -0.103980
H5    H     H_    0.252199 0.287288 0.712411 0.134731
H6    H     H_    0.054602 0.309981 0.723673 -0.003671
H7    H     H_    0.028188 0.216720 0.825691 -0.008000
H8    H     H_    0.216505 0.175096 0.814050 0.036037
H9    H     H_    0.542040 0.175895 0.671877 0.018481
H10   H     H_    0.550586 0.027815 0.738839 0.083893
H11   H     H_    0.376707 0.085281 0.755847 0.101711
H12   H     H_    0.100825 0.920807 0.627901 0.122813
H13   H     H_    0.600116 0.399489 0.869346 0.181339
H14   H     H_    0.305867 0.656705 0.804319 0.111015
H15   H     H_    0.596944 0.575198 0.126881 0.127168
H16   H     H_    0.240439 0.733485 0.282200 -0.255441
H17   H     H_    0.509563 0.569628 0.005641 0.155009
H18   H     H_    0.342324 0.030215 0.421036 0.093539
H19   H     H_    0.863201 0.960876 0.579384 0.106981
H20   H     H_    0.393761 0.722334 0.462260 0.103782
H21   H     H_    0.237762 0.855090 0.196068 0.057356
H22   H     H_    0.353246 0.775271 0.609435 0.029380
H23   H     H_    0.803187 0.217834 0.310959 0.064566
H24   H     H_    0.147620 0.752775 0.577783 0.059872
H25   H     H_    0.460293 0.957181 0.623702 0.122157
H26   H     H_    0.304738 0.963743 0.557942 0.146930
H27   H     H_    0.334105 0.059557 0.637413 0.184032
H28   H     H_    0.968596 0.210903 0.176223 0.131624
H29   H     H_    0.856380 0.080323 0.174683 0.066518
H30   H     H_    0.756067 0.191432 0.189438 0.152745
H31   H     H_    0.742248 0.059355 0.380178 0.127660
H32   H     H_    0.670819 0.024827 0.287672 0.190790
H33   H     H_    0.781481 0.935034 0.329408 0.211130
H34   H     H_    0.963529 0.020777 0.260478 0.173279
H35   H     H_    0.159428 0.051507 0.343272 0.175637
H36   H     H_    0.093609 0.162489 0.396747 0.135303
H37   H     H_    0.012733 0.033897 0.408167 0.142041
H38   H     H_    0.960439 0.846708 0.703124 0.094833
H39   H     H_    0.931494 0.733813 0.746267 0.046455
H40   H     H_    0.901998 0.713005 0.649838 0.094166
H41   H     H_    0.672039 0.647131 0.760220 0.042334
H42   H     H_    0.505373 0.701519 0.734121 0.139352
H43   H     H_    0.607627 0.619597 0.666687 0.118037
H44   H     H_    0.749517 0.918671 0.889979 0.150009
H45   H     H_    0.743940 0.902134 0.195795 0.166143
H46   H     H_    0.713136 0.776796 0.860007 0.182525
H47   H     H_    0.902201 0.853096 0.847481 0.132086
H48   H     H_    0.511171 0.385328 0.338631 0.167204
H49   H     H_    0.624544 0.313781 0.273386 0.187158
H50   H     H_    0.440053 0.345112 0.245152 0.032667
H51   H     H_    0.152277 0.098173 0.196858 0.155951
H52   H     H_    0.250117 0.227156 0.185372 0.054449
H53   H     H_    0.289642 0.106494 0.128243 0.121138
H54   H     H_    0.704032 0.740976 0.096215 0.180769
H55   H     H_    0.505725 0.769946 0.078133 0.140537
H56   H     H_    0.771397 0.948919 0.764990 0.109591
H57   H     H_    0.676251 0.863065 0.067253 0.164400
H58   H     H_    0.804029 0.254683 0.700705 0.038968
H59   H     H_    0.791897 0.253860 0.795828 0.114492
H60   H     H_    0.797547 0.132532 0.731194 0.092018
H61   H     H_    0.501842 0.191750 0.874508 0.220495
H62   H     H_    0.479447 0.048983 0.868144 0.108724
H63   H     H_    0.670990 0.121638 0.859457 0.136068
H64   H     H_    0.770973 0.493128 0.607239 0.128046
H65   H     H_    0.939179 0.424330 0.608093 0.158677
H66   H     H_    0.782241 0.357554 0.625931 0.053905
H67   H     H_    0.581718 0.880567 0.780066 0.118644
H68   H     H_    0.834243 0.253361 0.422917 0.053189
H69   H     H_    0.854987 0.341905 0.505953 0.120748
H70   H     H_    0.999193 0.260631 0.479040 0.128905
H71   H     H_    0.462473 0.730859 0.201733 -0.064442
H72   H     H_    0.543267 0.921340 0.179307 0.137285
O1    O     O_2   0.873090 0.425890 0.325140 -0.413697
O2    O     O_2   0.188859 0.124882 0.550191 -0.491020
O3    O     O_3   0.087908 0.152612 0.681729 -0.672385
O4    O     O_3   0.122420 0.434370 0.414380 -0.423800
O5    O     O_3   0.578370 0.633800 0.536380 -0.474230
O6    O     O_2   0.341510 0.231850 0.465510 -0.473410
O7    O     O_3   0.525983 0.178288 0.351927 -0.638705
O8    O     O_2   0.446627 0.473344 0.757242 -0.448344
O9    O     O_3   0.504685 0.283959 0.762338 -0.588117
O10   O     O_3   0.659500 0.627100 0.368810 -0.380705
O11   O     O_2   0.731730 0.535956 0.243425 -0.349442
O12   O     O_3   0.663071 0.821377 0.646918 -0.658907
O13   O     O_3   0.047131 0.256513 0.308112 -0.674284
O14   O     O_3   0.691980 0.730003 0.246293 -0.542073
O15   O     O_2   0.848200 0.768190 0.534530 -0.485669
O16   O     O_3   0.081160 0.685950 0.404810 -0.408778
O17   O     O_2   0.032559 0.879665 0.458008 -0.507506
O18   O     O_3   0.092445 0.845267 0.321187 -0.600232
O19   O     O_2   0.316610 0.574140 0.674900 -0.462830
O20   O     O_3   0.067290 0.565720 0.585630 -0.518847
O21   O     O_3   0.530210 0.372990 0.631200 -0.484021
O22   O     O_3   0.199181 0.743172 0.685341 -0.645578
O23   O     O_3   0.611340 0.366290 0.463630 -0.470919
O24   O     O_3   0.108550 0.314140 0.595200 -0.508271
P1    P     P_3+3 0.041040 0.394770 0.336330 1.090419
P2    P     P_3+3 0.672880 0.754030 0.556100 0.964362
P3    P     P_3+3 0.143197 0.821456 0.406769 1.023335
P4    P     P_3+3 0.148670 0.605320 0.663680 0.950332
P5    P     P_3+3 0.060276 0.175592 0.593584 0.910621
P6    P     P_3+3 0.617934 0.611298 0.275566 1.172647
P7    P     P_3+3 0.518711 0.230120 0.443807 0.968553
P8    P     P_3+3 0.564202 0.398824 0.726212 0.959510

loop_
_geom_bond_atom_site_label_1
_geom_bond_atom_site_label_2
_ccdc_geom_bond_type
O5    P2    S    
C16   F2    S    
C27   H15   S    
C23   C57   S    
O3    P5    S    
Ba1   P2    S    
Ba2   O5    S    
C44   C50   S    
C25   C27   A    
C23   H2    S    
C54   H42   S    
C61   H62   S    
Ba1   O20   S    
O21   P8    S    
C25   H17   S    
C17   C18   A    
O13   P1    S    
C30   F7    S    
C59   H55   S    
C57   H48   S    
C46   C52   S    
Ba1   O23   S    
C65   H10   S    
O4    P1    S    
O20   P4    S    
C15   C24   A    
C26   C27   A    
C22   C24   A    
Ba2   O23   S    
C55   H47   S    
C33   C37   A    
O12   P2    S    
C53   H38   S    
C57   H49   S    
C13   C14   A    
C52   H35   S    
C28   H22   S    
C9    C22   A    
C65   H11   S    
C42   P5    S    
Ba1   Ba2   S    
C60   H58   S    
Ba1   O5    S    
O10   P6    S    
C59   H54   S    
C15   C17   A    
C55   H44   S    
C51   H32   S    
C10   P8    S    
C50   H29   S    
C6    C7    A    
C4    H16   S    
Ba2   O6    S    
C21   C22   A    
C45   H5    S    
C63   H69   S    
C33   H20   S    
C7    C8    A    
O14   P6    S    
C34   F3    S    
C40   C49   S    
C51   H33   S    
C64   C65   S    
C5    C66   A    
O23   P7    S    
C40   H1    S    
Ba2   O4    S    
C36   P3    S    
C12   O14   S    
C39   C41   A    
C46   C51   S    
O7    P7    S    
C56   H8    S    
C58   H53   S    
C64   O9    S    
C1    H45   S    
C61   C65   S    
C1    C59   S    
C61   H63   S    
C38   C43   A    
C4    C16   S    
C44   H23   S    
C44   C46   S    
O1    P1    D    
C60   C64   S    
C33   C36   A    
C32   C42   A    
C15   C66   A    
C48   H56   S    
C58   H52   S    
C64   H9    S    
C2    C66   A    
C62   H66   S    
C49   H26   S    
C47   C53   S    
C19   F6    S    
C41   P7    S    
C21   F10   S    
C35   H18   S    
O15   P2    D    
C5    C9    A    
C35   C36   A    
C29   C30   A    
Ba1   O15   S    
C34   H3    S    
C49   H27   S    
C52   H37   S    
C28   H24   S    
Ba2   O19   S    
C24   C25   A    
C6    H13   S    
O16   P3    S    
C45   H6    S    
C60   H60   S    
O11   P6    D    
C17   C26   A    
O8    P8    D    
C28   O22   S    
C47   O12   S    
C1    C12   S    
Ba2   O20   S    
C18   C31   A    
C48   H67   S    
O22   P4    S    
C38   C39   A    
O17   P3    D    
C44   O13   S    
C11   C13   A    
C32   C63   S    
C12   F1    S    
C54   H41   S    
C16   H21   S    
C56   H7    S    
O19   P4    D    
C37   C38   A    
C63   H70   S    
C42   C43   A    
C59   H57   S    
C4    F5    S    
C3    C5    A    
C53   H39   S    
C51   H31   S    
C4    O18   S    
Ba1   P1    S    
C1    H72   S    
C14   C20   A    
C46   H34   S    
C18   C19   A    
C48   C55   S    
C61   H61   S    
C26   C29   A    
C32   C41   A    
C37   P2    S    
C34   C58   S    
C58   H51   S    
C3    C6    A    
O6    P7    D    
C62   H65   S    
C47   C54   S    
C45   O3    S    
Ba2   O21   S    
C29   P6    S    
C54   H43   S    
O2    P5    D    
C57   H50   S    
C2    F9    S    
C8    C14   A    
O9    P8    S    
C30   C31   A    
C45   C56   S    
C23   O7    S    
C2    C19   A    
C56   F4    S    
Ba1   O10   S    
C11   C62   S    
C62   H64   S    
Ba1   O16   S    
C3    F8    S    
C52   H36   S    
C12   H71   S    
C16   H4    S    
Ba1   O1    S    
C60   H59   S    
C35   C39   A    
Ba1   O4    S    
C31   P1    S    
C7    C10   A    
C8    C9    A    
C23   C34   S    
C50   H28   S    
C10   C11   A    
C50   H30   S    
C47   C48   S    
C13   P4    S    
C20   H14   S    
C20   C21   A    
C28   C40   S    
C43   H19   S    
Ba2   P4    S    
C40   H12   S    
C63   H68   S    
C49   H25   S    
O24   P5    S    
Ba2   O24   S    
O18   P3    S    
C55   H46   S    
C53   H40   S    
