data_mof_unit_5225.cif
_audit_creation_date              2012-12-10T18:19:53-0500
_audit_creation_method            fapswitch 2.2
_symmetry_space_group_name_H-M    P1
_symmetry_Int_Tables_number       1
_space_group_crystal_system       triclinic
_cell_length_a                    10.636326
_cell_length_b                    10.633978
_cell_length_c                    9.535612
_cell_angle_alpha                 90.762903
_cell_angle_beta                  89.474716
_cell_angle_gamma                 88.651248
_cell_volume                      1078.09639215

loop_
_atom_site_label
_atom_site_type_symbol
_atom_type_description
_atom_site_fract_x
_atom_site_fract_y
_atom_site_fract_z
_atom_type_partial_charge
C1    C     C_R   0.501675 0.259838 0.499076 0.846877
C2    C     C_R   0.498326 0.740162 0.500924 0.846875
C3    C     C_3   0.491528 0.962613 0.635061 -0.259176
C4    C     C_3   0.508473 0.037388 0.364941 -0.259166
C5    C     C_3   0.564749 0.592203 0.050765 -0.162291
C6    C     C_3   0.435250 0.407795 0.949233 -0.162320
C7    C     C_3   0.451494 0.603592 0.953080 -0.104071
C8    C     C_3   0.548504 0.396407 0.046921 -0.104099
C9    C     C_3   0.612370 0.488455 0.948618 0.567726
C10   C     C_3   0.387629 0.511543 0.051382 0.567753
C11   C     C_R   0.259945 0.500092 0.500587 0.837703
C12   C     C_R   0.740055 0.499908 0.499413 0.837740
C13   C     C_3   0.039853 0.480781 0.631996 -0.112768
C14   C     C_3   0.960148 0.519219 0.368008 -0.112733
C15   C     C_3   0.961063 0.389875 0.544248 0.054631
C16   C     C_3   0.038938 0.610125 0.455755 0.054612
C17   C     C_3   0.876948 0.499979 0.498433 -0.023777
C18   C     C_3   0.123052 0.500021 0.501570 -0.023791
C19   C     C_3   0.954174 0.592558 0.585606 -0.265350
C20   C     C_3   0.045827 0.407442 0.414398 -0.265345
C21   C     C_3   0.600661 0.039684 0.573658 -0.330977
C22   C     C_3   0.399340 0.960316 0.426344 -0.330962
C23   C     C_3   0.604134 0.953471 0.442359 0.564251
C24   C     C_3   0.395868 0.046530 0.557642 0.564227
C25   C     C_3   0.497157 0.877245 0.502604 -0.096328
C26   C     C_3   0.502845 0.122756 0.497397 -0.096336
Cu1   Cu    Cu3+1 0.500030 0.499990 0.643150 1.056786
Cu2   Cu    Cu3+1 0.499970 0.500010 0.356850 1.056796
H1    H     H_    0.072453 0.461722 0.739477 0.170061
H2    H     H_    0.927552 0.538280 0.260526 0.170032
H3    H     H_    0.914713 0.668770 0.654822 0.156849
H4    H     H_    0.085288 0.331230 0.345181 0.156855
H5    H     H_    0.682647 0.074543 0.632376 0.193633
H6    H     H_    0.317353 0.925455 0.367629 0.193605
H7    H     H_    0.482747 0.931684 0.745019 0.157224
H8    H     H_    0.517254 0.068319 0.254982 0.157213
N1    N     N_3   0.500090 0.499970 0.858290 -0.211829
N2    N     N_3   0.499910 0.500030 0.141710 -0.211819
O1    O     O_R   0.500060 0.316850 0.620870 -0.547368
O2    O     O_R   0.499940 0.683150 0.379130 -0.547326
O3    O     O_R   0.500000 0.316860 0.379090 -0.587959
O4    O     O_R   0.500000 0.683140 0.620910 -0.587931
O5    O     O_R   0.316880 0.499960 0.620870 -0.533303
O6    O     O_R   0.683120 0.500040 0.379130 -0.533288
O7    O     O_R   0.316830 0.499970 0.379090 -0.523621
O8    O     O_R   0.683170 0.500030 0.620910 -0.523618
C27   C     C_2   0.918003 0.265291 0.593920 0.347827
H9    H     H_    0.949981 0.180110 0.539886 0.033965
O9    O     O_2   0.848891 0.259012 0.696227 -0.524672
C28   C     C_2   0.082001 0.734706 0.406074 0.347828
H10   H     H_    0.050072 0.819885 0.460147 0.033945
O10   O     O_2   0.151061 0.740983 0.303720 -0.524662
O11   O     O_3   0.709969 0.893057 0.378976 -0.555587
C29   C     C_3   0.808072 0.978712 0.366752 -0.305885
H11   H     H_    0.852386 0.993593 0.470379 0.140370
H12   H     H_    0.775878 0.069908 0.321841 0.191069
H13   H     H_    0.880993 0.937459 0.294861 0.207858
O12   O     O_3   0.290037 0.106946 0.621030 -0.555614
C30   C     C_3   0.191928 0.021296 0.633245 -0.305906
H14   H     H_    0.224120 0.930090 0.678137 0.191073
H15   H     H_    0.147608 0.006435 0.529616 0.140372
H16   H     H_    0.119013 0.062543 0.705149 0.207860
C31   C     C_2   0.390989 0.722611 0.901180 0.445446
H17   H     H_    0.420529 0.812657 0.941885 0.004600
O13   O     O_2   0.304869 0.719068 0.817783 -0.564673
C32   C     C_2   0.609003 0.277392 0.098840 0.445562
H18   H     H_    0.579416 0.187322 0.058179 0.004468
O14   O     O_2   0.695166 0.280958 0.182205 -0.564644
C33   C     C_2   0.633404 0.702298 0.109804 0.447659
H19   H     H_    0.601137 0.797413 0.088024 0.040755
O15   O     O_2   0.725266 0.686151 0.183415 -0.523652
C34   C     C_2   0.366609 0.297703 0.890163 0.447715
H20   H     H_    0.398976 0.202577 0.911791 0.040853
O16   O     O_2   0.274683 0.313860 0.816645 -0.523746
O17   O     O_3   0.729878 0.463678 0.882744 -0.523961
C35   C     C_3   0.829381 0.492457 0.972266 -0.257079
H21   H     H_    0.811942 0.463013 0.081636 0.201843
H22   H     H_    0.849059 0.594342 0.967475 0.164110
H23   H     H_    0.914626 0.440136 0.934350 0.183012
O18   O     O_3   0.270123 0.536317 0.117263 -0.523980
C36   C     C_3   0.170614 0.507576 0.027737 -0.257036
H24   H     H_    0.150935 0.405693 0.032480 0.164173
H25   H     H_    0.188042 0.537072 0.918384 0.201837
H26   H     H_    0.085367 0.559875 0.065688 0.183003

loop_
_geom_bond_atom_site_label_1
_geom_bond_atom_site_label_2
_ccdc_geom_bond_type
C7    C10   S    
C32   O14   D    
C21   C26   S    
C31   O13   D    
C11   C18   S    
C8    C32   S    
C35   H23   S    
C15   C27   S    
C19   H3    S    
C4    H8    S    
C36   H24   S    
C27   O9    D    
O11   C29   S    
C6    C34   S    
C13   C18   S    
C22   C24   S    
C13   H1    S    
C16   C28   S    
C21   H5    S    
Cu2   O2    S    
Cu2   O3    S    
C33   O15   D    
C5    C33   S    
Cu1   O1    S    
C8    C9    S    
C22   C25   S    
C12   C17   S    
C28   O10   D    
C11   O5    A    
C3    H7    S    
C32   H18   S    
C30   H14   S    
C5    N2    S    
C14   C17   S    
C3    C24   S    
C8    N2    S    
C14   H2    S    
C36   H25   S    
C23   O11   S    
C15   C20   S    
C22   H6    S    
C29   H12   S    
Cu2   O7    S    
C30   H15   S    
C13   C19   S    
C14   C20   S    
C3    C25   S    
C35   H21   S    
C12   O8    A    
C5    C7    S    
C4    C23   S    
C10   O18   S    
C34   H20   S    
C6    C8    S    
O12   C30   S    
Cu2   O6    S    
O17   C35   S    
C5    C9    S    
Cu1   O5    S    
C4    C22   S    
C27   H9    S    
Cu2   N2    S    
C2    O4    A    
C9    N1    S    
C28   H10   S    
C7    N1    S    
C6    N1    S    
C16   C18   S    
C7    C31   S    
Cu1   O8    S    
C34   O16   D    
C13   C15   S    
C1    C26   S    
C14   C16   S    
C11   O7    A    
C36   H26   S    
C20   H4    S    
C1    O3    A    
C15   C17   S    
C29   H11   S    
C30   H16   S    
C24   C26   S    
C35   H22   S    
O18   C36   S    
C6    C10   S    
C4    C26   S    
C10   N2    S    
C21   C23   S    
C12   O6    A    
Cu1   O4    S    
Cu1   N1    S    
C16   C19   S    
C17   C19   S    
C2    C25   S    
C18   C20   S    
C23   C25   S    
C33   H19   S    
C3    C21   S    
C1    O1    A    
C31   H17   S    
C2    O2    A    
C24   O12   S    
Cu1   Cu2   S    
C9    O17   S    
C29   H13   S    
