data_mof_unit_19243.cif
_audit_creation_date              2012-12-10T19:00:47-0500
_audit_creation_method            fapswitch 2.2
_symmetry_space_group_name_H-M    P1
_symmetry_Int_Tables_number       1
_space_group_crystal_system       triclinic
_cell_length_a                    15.082851
_cell_length_b                    10.840401
_cell_length_c                    9.547766
_cell_angle_alpha                 90.588902
_cell_angle_beta                  89.871077
_cell_angle_gamma                 90.418275
_cell_volume                      1560.97164521

loop_
_atom_site_label
_atom_site_type_symbol
_atom_type_description
_atom_site_fract_x
_atom_site_fract_y
_atom_site_fract_z
_atom_type_partial_charge
C1    C     C_R   0.497706 0.262430 0.499289 0.807389
C2    C     C_R   0.906779 0.512111 0.627826 0.036461
C3    C     C_R   0.954230 0.474944 0.246534 -0.212619
C4    C     C_R   0.046586 0.473590 0.247142 -0.203292
C5    C     C_R   0.093036 0.487082 0.373357 0.123342
C6    C     C_R   0.046491 0.500744 0.500960 -0.003546
C7    C     C_R   0.092817 0.513985 0.628803 -0.012774
C8    C     C_R   0.045716 0.528398 0.755546 0.496544
C9    C     C_R   0.952859 0.524744 0.754359 -0.305407
C10   C     C_R   0.185353 0.486896 0.373956 -0.237414
C11   C     C_R   0.231725 0.499981 0.500353 -0.100721
C12   C     C_R   0.328616 0.499893 0.500117 0.825372
C13   C     C_R   0.185430 0.513409 0.627038 -0.168665
C14   C     C_R   0.479075 0.065575 0.622831 0.158862
C15   C     C_R   0.487767 0.129548 0.497627 -0.104496
C16   C     C_R   0.483785 0.063099 0.370616 -0.215640
C17   C     C_R   0.484451 0.934411 0.371544 -0.213293
C18   C     C_R   0.489234 0.871146 0.499458 -0.099808
C19   C     C_R   0.479852 0.938550 0.623996 0.129325
C20   C     C_3   0.533062 0.937015 0.755686 -0.501921
C21   C     C_3   0.531562 0.076741 0.754495 -0.445856
C22   C     C_R   0.574322 0.533498 0.073894 0.236883
C23   C     C_R   0.498390 0.737855 0.500357 0.793126
C24   C     C_R   0.431079 0.451210 0.074454 -0.173388
C25   C     C_R   0.431214 0.450297 0.925836 0.657735
C26   C     C_R   0.574538 0.532927 0.926665 0.153594
C27   C     C_3   0.622688 0.653166 0.922696 -0.493230
C28   C     C_3   0.622186 0.653887 0.081725 -0.469767
C29   C     C_R   0.671384 0.499861 0.499861 0.803073
C30   C     C_R   0.814447 0.510514 0.626684 -0.218216
C31   C     C_R   0.768276 0.499678 0.499752 -0.070566
C32   C     C_R   0.814912 0.488540 0.373022 -0.252421
C33   C     C_R   0.907322 0.488207 0.372565 0.124434
C34   C     C_R   0.953534 0.500667 0.500469 0.064089
Cu1   Cu    Cu3+1 0.500000 0.499980 0.640670 0.992203
Cu2   Cu    Cu3+1 0.500000 0.500020 0.359330 0.943459
H1    H     H_    0.778693 0.518214 0.724833 0.147425
H2    H     H_    0.485783 0.885372 0.272193 0.162233
H3    H     H_    0.494762 0.897989 0.844627 0.199331
H4    H     H_    0.600632 0.899103 0.739071 0.198690
H5    H     H_    0.492248 0.117446 0.841866 0.212329
H6    H     H_    0.598054 0.119249 0.737892 0.195545
H7    H     H_    0.374846 0.412965 0.129871 0.170394
H8    H     H_    0.690205 0.644862 0.877213 0.189090
H9    H     H_    0.581465 0.726156 0.877543 0.211619
H10   H     H_    0.689421 0.644792 0.127719 0.189178
H11   H     H_    0.779465 0.479185 0.274766 0.149310
H12   H     H_    0.581163 0.728770 0.127932 0.207417
H13   H     H_    0.919531 0.464925 0.147733 0.147273
H14   H     H_    0.081786 0.461642 0.149084 0.200572
H15   H     H_    0.220970 0.476252 0.275835 0.160913
H16   H     H_    0.221718 0.524207 0.724229 0.231184
H17   H     H_    0.916945 0.531903 0.852564 0.149138
H18   H     H_    0.485013 0.109817 0.270887 0.169433
N1    N     N_R   0.500570 0.500930 0.147930 -0.219216
N2    N     N_R   0.500570 0.500890 0.852020 -0.238796
O1    O     O_R   0.500000 0.319640 0.618810 -0.554551
O2    O     O_R   0.500010 0.319680 0.381230 -0.587684
O3    O     O_R   0.370250 0.499950 0.618800 -0.519871
O4    O     O_R   0.370260 0.499990 0.381220 -0.598411
O5    O     O_R   0.499990 0.680320 0.618770 -0.583194
O6    O     O_R   0.500000 0.680360 0.381190 -0.584555
O7    O     O_R   0.629740 0.500010 0.618780 -0.589216
O8    O     O_R   0.629750 0.500050 0.381200 -0.583164
F1    F     F_    0.361610 0.397869 0.857983 -0.662691
O9    O     O_3   0.090562 0.537578 0.881469 -0.586746
C35   C     C_3   0.086562 0.660705 0.930016 -0.358107
H19   H     H_    0.112839 0.726225 0.850652 0.167221
H20   H     H_    0.128761 0.670051 0.024606 0.197009
H21   H     H_    0.017843 0.685899 0.960928 0.168047

loop_
_geom_bond_atom_site_label_1
_geom_bond_atom_site_label_2
_ccdc_geom_bond_type
C17   C18   A    
Cu1   N2    S    
C11   C12   S    
C29   O7    A    
C8    O9    S    
C6    C7    A    
C1    C15   S    
C1    O1    A    
C13   H16   S    
C31   C32   A    
C19   C20   S    
C25   N2    A    
C2    C30   A    
C30   C31   A    
Cu1   O1    S    
C35   H21   S    
C32   C33   A    
C27   H9    S    
C16   H18   S    
O9    C35   S    
C3    H13   S    
C29   O8    A    
C5    C10   A    
Cu1   O5    S    
Cu2   N1    S    
C22   C28   S    
C1    O2    A    
C24   C25   A    
C24   N1    A    
C4    C5    A    
C11   C13   A    
C28   H10   S    
C26   C27   S    
C22   N1    A    
C35   H19   S    
C21   H5    S    
C10   H15   S    
C14   C19   A    
C14   C21   S    
Cu1   O3    S    
C33   C34   A    
Cu2   O2    S    
C17   H2    S    
C5    C6    A    
C20   H4    S    
C32   H11   S    
Cu2   O6    S    
C9    H17   S    
C10   C11   A    
C3    C33   A    
C15   C16   A    
C12   O4    A    
C6    C34   A    
C7    C13   A    
C2    C9    A    
C25   F1    S    
C20   C21   S    
C30   H1    S    
C29   C31   S    
C7    C8    A    
C22   C26   A    
C23   O5    A    
C27   C28   S    
C24   H7    S    
C20   H3    S    
C14   C15   A    
C18   C19   A    
Cu1   O7    S    
C21   H6    S    
C35   H20   S    
C2    C34   A    
Cu2   O8    S    
C12   O3    A    
C27   H8    S    
C23   O6    A    
C28   H12   S    
C3    C4    A    
C18   C23   S    
C16   C17   A    
C4    H14   S    
C8    C9    A    
Cu2   O4    S    
Cu1   Cu2   S    
C26   N2    A    
