data_mof_unit_16883.cif
_audit_creation_date              2012-12-10T18:03:59-0500
_audit_creation_method            fapswitch 2.2
_symmetry_space_group_name_H-M    P1
_symmetry_Int_Tables_number       1
_space_group_crystal_system       triclinic
_cell_length_a                    10.819953
_cell_length_b                    9.512539
_cell_length_c                    10.860515
_cell_angle_alpha                 89.985718
_cell_angle_beta                  90.273728
_cell_angle_gamma                 89.932685
_cell_volume                      1117.80738444

loop_
_atom_site_label
_atom_site_type_symbol
_atom_type_description
_atom_site_fract_x
_atom_site_fract_y
_atom_site_fract_z
_atom_type_partial_charge
C1    C     C_R   0.262120 0.500241 0.502632 0.843008
C2    C     C_R   0.737787 0.500029 0.502545 0.853463
C3    C     C_R   0.419556 0.074552 0.426996 -0.031202
C4    C     C_R   0.580304 0.074299 0.573137 -0.038414
C5    C     C_R   0.419296 0.925682 0.427322 0.043308
C6    C     C_R   0.580505 0.925455 0.572852 0.028412
C7    C     C_R   0.499049 0.499923 0.262643 0.801676
C8    C     C_R   0.499969 0.499914 0.737388 0.830894
C9    C     C_R   0.510219 0.621420 0.062410 0.045934
C10   C     C_R   0.509548 0.621539 0.937795 0.041093
C11   C     C_R   0.497044 0.498670 0.130125 -0.104263
C12   C     C_R   0.497933 0.498635 0.869918 -0.105128
C13   C     C_R   0.482919 0.371585 0.064503 -0.220286
C14   C     C_R   0.483615 0.371533 0.935398 -0.220943
C15   C     C_3   0.531018 0.777022 0.928219 0.470111
C16   C     C_3   0.532838 0.776751 0.072137 0.483467
C17   C     C_R   0.063653 0.388346 0.456210 -0.263714
C18   C     C_R   0.936113 0.389195 0.454311 -0.273769
C19   C     C_R   0.871569 0.500788 0.507512 -0.096018
C20   C     C_R   0.128182 0.501119 0.508061 -0.090523
C21   C     C_R   0.934586 0.610998 0.567149 0.314478
C22   C     C_R   0.064741 0.614577 0.562529 0.299816
Cu1   Cu    Cu3+1 0.500000 0.640660 0.500000 1.029283
Cu2   Cu    Cu3+1 0.500000 0.359340 0.500000 0.937263
H1    H     H_    0.471900 0.272402 0.112216 0.158506
H2    H     H_    0.473158 0.272299 0.887587 0.160380
H3    H     H_    0.112019 0.301376 0.413538 0.172635
H4    H     H_    0.887755 0.303113 0.410026 0.179127
H5    H     H_    0.355222 0.130765 0.368400 0.118237
H6    H     H_    0.644569 0.130287 0.631815 0.127276
H7    H     H_    0.354448 0.869617 0.369393 0.158293
H8    H     H_    0.645163 0.869244 0.630877 0.196798
N1    N     N_R   0.500000 0.852070 0.500000 -0.166866
N2    N     N_R   0.500000 0.147940 0.500000 -0.161742
O1    O     O_R   0.319640 0.618740 0.499990 -0.538907
O2    O     O_R   0.680360 0.618740 0.500010 -0.534269
O3    O     O_R   0.319620 0.381170 0.499990 -0.605066
O4    O     O_R   0.680380 0.381170 0.500010 -0.605600
O5    O     O_R   0.499990 0.618810 0.319660 -0.547532
O6    O     O_R   0.500010 0.618810 0.680340 -0.538698
O7    O     O_R   0.499960 0.381240 0.319650 -0.601450
O8    O     O_R   0.500040 0.381240 0.680350 -0.601427
O9    O     O_3   0.645495 0.806426 0.873885 -0.740993
H9    H     H_    0.659425 0.908856 0.883998 0.298376
O10   O     O_3   0.432569 0.846140 0.126638 -0.758641
H10   H     H_    0.447561 0.948317 0.116104 0.297327
N3    N     N_2   0.430567 0.857178 0.870695 -0.421296
H11   H     H_    0.435972 0.964017 0.885899 0.220524
C23   C     C_3   0.305339 0.802650 0.871147 -0.594511
H12   H     H_    0.243008 0.877991 0.823381 0.230687
H13   H     H_    0.271820 0.787940 0.966598 0.235573
H14   H     H_    0.300504 0.701385 0.820787 0.247214
N4    N     N_2   0.650456 0.816740 0.129389 -0.408923
H15   H     H_    0.675336 0.919674 0.113099 0.228597
C24   C     C_3   0.753745 0.719232 0.130377 -0.642316
H16   H     H_    0.835060 0.769999 0.174414 0.218898
H17   H     H_    0.779097 0.687975 0.035407 0.250560
H18   H     H_    0.730998 0.624481 0.185232 0.216653
O11   O     O_3   0.867365 0.709427 0.632418 -0.733566
H19   H     H_    0.918687 0.745375 0.701247 0.331456
O12   O     O_3   0.131379 0.725569 0.610975 -0.747413
H20   H     H_    0.080923 0.812252 0.604730 0.324153

loop_
_geom_bond_atom_site_label_1
_geom_bond_atom_site_label_2
_ccdc_geom_bond_type
C16   O10   S    
Cu1   N1    S    
Cu2   O4    S    
C24   H16   S    
C21   O11   S    
C1    O3    A    
Cu2   O8    S    
C9    C10   A    
C2    O4    A    
C6    H8    S    
N3    H11   S    
C6    N1    A    
C15   N3    S    
C8    C12   S    
C23   H14   S    
C23   H13   S    
N4    C24   S    
C17   C18   A    
C15   O9    S    
O11   H19   S    
N3    C23   S    
N4    H15   S    
C14   H2    S    
C22   O12   S    
C7    C11   S    
Cu2   O7    S    
C11   C13   A    
C13   H1    S    
C10   C12   A    
Cu1   O5    S    
C9    C11   A    
C19   C21   A    
C9    C16   S    
C12   C14   A    
Cu2   O3    S    
Cu1   O1    S    
C10   C15   S    
C24   H17   S    
O9    H9    S    
O12   H20   S    
C23   H12   S    
C4    N2    A    
C20   C22   A    
Cu1   Cu2   S    
C15   C16   S    
C17   H3    S    
C5    N1    A    
O10   H10   S    
C17   C20   A    
C18   H4    S    
C1    O1    A    
C4    C6    A    
Cu1   O2    S    
C24   H18   S    
C2    O2    A    
C3    H5    S    
C7    O5    A    
C16   N4    S    
C18   C19   A    
C1    C20   S    
C8    O6    A    
C3    N2    A    
C5    H7    S    
C2    C19   S    
C21   C22   A    
C4    H6    S    
Cu1   O6    S    
C7    O7    A    
C8    O8    A    
C13   C14   A    
C3    C5    A    
Cu2   N2    S    
