data_mof_unit_29605.cif
_audit_creation_date              2012-12-11T15:17:43-0500
_audit_creation_method            fapswitch 2.2
_symmetry_space_group_name_H-M    P1
_symmetry_Int_Tables_number       1
_space_group_crystal_system       triclinic
_cell_length_a                    15.665125
_cell_length_b                    15.66572
_cell_length_c                    34.261345
_cell_angle_alpha                 89.892767
_cell_angle_beta                  89.966778
_cell_angle_gamma                 119.459603
_cell_volume                      7320.7757315

loop_
_atom_site_label
_atom_site_type_symbol
_atom_type_description
_atom_site_fract_x
_atom_site_fract_y
_atom_site_fract_z
_atom_type_partial_charge
C1    C     C_R   0.576123 0.443171 0.553931 0.553895
C2    C     C_R   0.556504 0.132082 0.553738 0.580185
C3    C     C_R   0.867486 0.423847 0.553801 0.607993
C4    C     C_R   0.443291 0.575997 0.053880 0.584758
C5    C     C_R   0.132089 0.556512 0.053730 0.580274
C6    C     C_R   0.423825 0.867209 0.053913 0.606489
C7    C     C_R   0.971221 0.506537 0.712306 0.364672
C8    C     C_R   0.494851 0.467870 0.712318 0.361637
C9    C     C_R   0.475273 0.913934 0.697224 0.377442
C10   C     C_R   0.504178 0.968406 0.212874 0.365765
C11   C     C_R   0.466303 0.497014 0.212671 0.363266
C12   C     C_R   0.914554 0.475607 0.197260 0.378407
C13   C     C_R   0.003714 0.438688 0.852618 -0.106462
C14   C     C_R   0.563510 0.566790 0.852518 -0.110707
C15   C     C_R   0.344111 0.831857 0.834096 -0.105051
C16   C     C_R   0.437194 0.002195 0.353125 -0.106823
C17   C     C_R   0.566268 0.564751 0.352847 -0.110651
C18   C     C_R   0.831449 0.344081 0.334114 -0.105108
C19   C     C_R   0.040014 0.449167 0.890475 -0.114654
C20   C     C_R   0.552343 0.592053 0.890400 -0.120636
C21   C     C_R   0.332437 0.821554 0.874485 -0.124289
C22   C     C_R   0.448277 0.039178 0.390862 -0.114661
C23   C     C_R   0.591864 0.553031 0.390622 -0.122969
C24   C     C_R   0.820926 0.332305 0.374494 -0.124372
C25   C     C_R   0.069537 0.616199 0.891924 -0.126698
C26   C     C_R   0.386063 0.455640 0.891950 -0.117693
C27   C     C_R   0.493625 0.837189 0.880310 -0.120106
C28   C     C_R   0.615173 0.068234 0.392195 -0.127132
C29   C     C_R   0.455069 0.386974 0.392115 -0.117687
C30   C     C_R   0.838381 0.494220 0.380321 -0.119382
C31   C     C_R   0.034873 0.606301 0.853858 -0.114593
C32   C     C_R   0.396859 0.431118 0.853971 -0.108273
C33   C     C_R   0.505962 0.849050 0.839948 -0.110510
C34   C     C_R   0.604636 0.032777 0.354258 -0.114676
C35   C     C_R   0.430157 0.398344 0.354249 -0.108112
C36   C     C_R   0.850441 0.506635 0.339968 -0.110400
C37   C     C_R   0.005254 0.518716 0.833399 0.036582
C38   C     C_R   0.484220 0.488939 0.833422 0.035863
C39   C     C_R   0.431530 0.847036 0.816490 0.036913
C40   C     C_R   0.516858 0.003156 0.333892 0.036397
C41   C     C_R   0.488015 0.485851 0.333757 0.035930
C42   C     C_R   0.847633 0.431888 0.316514 0.036808
C43   C     C_R   0.077080 0.539392 0.909765 0.029818
C44   C     C_R   0.462111 0.539092 0.909749 0.028735
C45   C     C_R   0.407426 0.825223 0.898032 0.018364
C46   C     C_R   0.538766 0.076418 0.410000 0.029736
C47   C     C_R   0.538883 0.462615 0.409872 0.026537
C48   C     C_R   0.825404 0.407598 0.398036 0.018526
C49   C     C_R   0.577914 0.442343 0.445506 0.542430
C50   C     C_R   0.558027 0.135378 0.445548 0.553244
C51   C     C_R   0.809979 0.392487 0.440499 0.553068
C52   C     C_R   0.442282 0.577933 0.945499 0.550438
C53   C     C_R   0.135449 0.558124 0.945499 0.553381
C54   C     C_R   0.392418 0.809941 0.940509 0.552912
C55   C     C_R   0.931073 0.463887 0.588970 -0.028853
C56   C     C_R   0.535375 0.466647 0.589064 -0.070818
C57   C     C_R   0.527367 0.056565 0.585486 -0.044698
C58   C     C_R   0.463771 0.929652 0.089370 -0.029893
C59   C     C_R   0.466468 0.535252 0.089145 -0.035478
C60   C     C_R   0.056647 0.527528 0.085476 -0.044251
C61   C     C_R   0.954315 0.403029 0.611926 0.024087
C62   C     C_R   0.594958 0.551268 0.611362 -0.031773
C63   C     C_R   0.434273 0.016715 0.604055 0.027347
C64   C     C_R   0.403676 0.954455 0.112017 0.025871
C65   C     C_R   0.551531 0.594197 0.111405 0.027479
C66   C     C_R   0.016166 0.434205 0.103918 0.027766
C67   C     C_R   0.967482 0.420014 0.652016 -0.129429
C68   C     C_R   0.578457 0.548978 0.651445 -0.115534
C69   C     C_R   0.419536 0.969034 0.639899 -0.122139
C70   C     C_R   0.419718 0.966908 0.152202 -0.128992
C71   C     C_R   0.548420 0.578952 0.151628 -0.120792
C72   C     C_R   0.968672 0.419512 0.139794 -0.122287
C73   C     C_R   0.965882 0.500176 0.669242 -0.039886
C74   C     C_R   0.500121 0.467810 0.669299 -0.031753
C75   C     C_R   0.491056 0.951699 0.656564 -0.027227
C76   C     C_R   0.498144 0.962669 0.169845 -0.039591
C77   C     C_R   0.466259 0.502045 0.169638 -0.039926
C78   C     C_R   0.952035 0.491326 0.156573 -0.026479
C79   C     C_R   0.963596 0.572479 0.645055 0.026501
C80   C     C_R   0.428729 0.392126 0.645764 0.031177
C81   C     C_R   0.576578 0.974416 0.634921 0.029046
C82   C     C_R   0.569599 0.957707 0.146104 0.026578
C83   C     C_R   0.390053 0.430837 0.146240 0.026780
C84   C     C_R   0.975220 0.577131 0.135019 0.031811
C85   C     C_R   0.950420 0.555994 0.604293 0.000382
C86   C     C_R   0.444536 0.394156 0.605000 0.016768
C87   C     C_R   0.594590 0.026706 0.599195 0.006550
C88   C     C_R   0.554321 0.945685 0.105296 0.001532
C89   C     C_R   0.392836 0.445438 0.105384 0.004880
C90   C     C_R   0.027495 0.595156 0.099318 0.008700
C91   C     C_R   0.986912 0.514368 0.791197 0.343311
C92   C     C_R   0.488412 0.475604 0.791205 0.341905
C93   C     C_R   0.446560 0.865447 0.774151 0.342996
C94   C     C_R   0.512139 0.984515 0.291725 0.343512
C95   C     C_R   0.474393 0.490413 0.291559 0.341520
C96   C     C_R   0.866185 0.446941 0.274185 0.343157
Cr1   Cr    Cr6+3 0.522350 0.263930 0.500020 1.093779
Cr2   Cr    Cr6+3 0.736070 0.258420 0.500020 1.085491
Cr3   Cr    Cr6+3 0.741580 0.477650 0.500020 1.095600
Cr4   Cr    Cr6+3 0.263930 0.522350 0.000020 1.093302
Cr5   Cr    Cr6+3 0.258420 0.736070 0.000020 1.083943
Cr6   Cr    Cr6+3 0.477650 0.741580 0.000020 1.096900
H1    H     H_    0.044120 0.388493 0.903757 0.147725
H2    H     H_    0.612340 0.656282 0.903628 0.145679
H3    H     H_    0.264614 0.810592 0.887316 0.126198
H4    H     H_    0.387873 0.043706 0.404147 0.148039
H5    H     H_    0.656347 0.612759 0.403833 0.144977
H6    H     H_    0.809138 0.264156 0.387325 0.126133
H7    H     H_    0.980315 0.370608 0.670124 0.191003
H8    H     H_    0.627191 0.611673 0.669047 0.183618
H9    H     H_    0.350653 0.944865 0.655072 0.199753
H10   H     H_    0.371016 0.981276 0.170054 0.190889
H11   H     H_    0.611383 0.626889 0.169255 0.196481
H12   H     H_    0.944072 0.350443 0.154899 0.199822
H13   H     H_    0.980717 0.370070 0.837564 0.150354
H14   H     H_    0.631905 0.612298 0.837354 0.149049
H15   H     H_    0.285399 0.829975 0.816778 0.151204
H16   H     H_    0.368430 0.979168 0.338153 0.150353
H17   H     H_    0.611811 0.633254 0.337746 0.149153
H18   H     H_    0.828922 0.285114 0.316801 0.151189
H19   H     H_    0.096094 0.686068 0.906424 0.132219
H20   H     H_    0.315915 0.412946 0.906344 0.142273
H21   H     H_    0.551808 0.837867 0.897599 0.144292
H22   H     H_    0.685211 0.094892 0.406597 0.132497
H23   H     H_    0.412339 0.316722 0.406445 0.142374
H24   H     H_    0.839722 0.552671 0.397608 0.144994
H25   H     H_    0.035309 0.668581 0.839874 0.143983
H26   H     H_    0.335170 0.369791 0.840055 0.148403
H27   H     H_    0.573698 0.859650 0.827109 0.146301
H28   H     H_    0.666642 0.032737 0.340272 0.144279
H29   H     H_    0.368515 0.336930 0.340353 0.148408
H30   H     H_    0.861823 0.574686 0.327133 0.146507
N1    N     N_R   0.939416 0.426848 0.772644 -0.208111
N2    N     N_R   0.575664 0.516273 0.772227 -0.207091
N3    N     N_R   0.369301 0.842329 0.750200 -0.204394
N4    N     N_R   0.424544 0.938034 0.273135 -0.208355
N5    N     N_R   0.516084 0.577698 0.272539 -0.206727
N6    N     N_R   0.842539 0.369640 0.250222 -0.204615
N7    N     N_R   0.931429 0.423076 0.733984 -0.199544
N8    N     N_R   0.578764 0.512100 0.733542 -0.193160
N9    N     N_R   0.383395 0.866064 0.712538 -0.198402
N10   N     N_R   0.420690 0.929841 0.234479 -0.198835
N11   N     N_R   0.511755 0.580892 0.233849 -0.190938
N12   N     N_R   0.866222 0.383710 0.212559 -0.198637
N13   N     N_R   0.018698 0.594068 0.730897 -0.163538
N14   N     N_R   0.407650 0.427451 0.731328 -0.168557
N15   N     N_R   0.552455 0.936188 0.721168 -0.168392
N16   N     N_R   0.591745 0.015017 0.231493 -0.163657
N17   N     N_R   0.424877 0.409813 0.231727 -0.168046
N18   N     N_R   0.937406 0.552833 0.221224 -0.167731
N19   N     N_R   0.026187 0.597923 0.769600 -0.208247
N20   N     N_R   0.404491 0.431032 0.770033 -0.208241
N21   N     N_R   0.538384 0.911934 0.758813 -0.207023
N22   N     N_R   0.595662 0.022704 0.270175 -0.208544
N23   N     N_R   0.428621 0.406573 0.270422 -0.208697
N24   N     N_R   0.913210 0.538791 0.258866 -0.207117
O1    O     O_R   0.498680 0.159540 0.541860 -0.460414
O2    O     O_R   0.840460 0.339140 0.541860 -0.461901
O3    O     O_R   0.660860 0.501320 0.541860 -0.481347
O4    O     O_R   0.159540 0.498680 0.041860 -0.460531
O5    O     O_R   0.339140 0.840460 0.041860 -0.461159
O6    O     O_R   0.501320 0.660860 0.041860 -0.464905
O7    O     O_R   0.532760 0.358060 0.540030 -0.472146
O8    O     O_R   0.641940 0.174700 0.540030 -0.482180
O9    O     O_R   0.825300 0.467240 0.540030 -0.478070
O10   O     O_R   0.358060 0.532760 0.040030 -0.482305
O11   O     O_R   0.174700 0.641940 0.040030 -0.481859
O12   O     O_R   0.467240 0.825300 0.040030 -0.481710
O13   O     O_R   0.498590 0.161190 0.456930 -0.508845
O14   O     O_R   0.838810 0.337400 0.456930 -0.490892
O15   O     O_R   0.662600 0.501410 0.456930 -0.527699
O16   O     O_R   0.161190 0.498590 0.956930 -0.508714
O17   O     O_R   0.337400 0.838810 0.956930 -0.490857
O18   O     O_R   0.501410 0.662600 0.956930 -0.524686
O19   O     O_R   0.532680 0.359580 0.461300 -0.501502
O20   O     O_R   0.640420 0.173100 0.461300 -0.522065
O21   O     O_R   0.826900 0.467320 0.461300 -0.479405
O22   O     O_R   0.359580 0.532680 0.961300 -0.501948
O23   O     O_R   0.173100 0.640420 0.961300 -0.521939
O24   O     O_R   0.467320 0.826900 0.961300 -0.480986
O25   O     O_3   0.666667 0.333333 0.499990 -0.304504
O26   O     O_3   0.333333 0.666667 0.999990 -0.307102
C97   C     C_2   0.970191 0.324719 0.594871 0.633181
O27   O     O_2   0.959253 0.255490 0.615026 -0.452414
O28   O     O_R   0.003580 0.333033 0.556432 -0.647056
H31   H     H_    0.013041 0.275952 0.548428 0.347473
C98   C     C_2   0.673592 0.643886 0.593874 0.645962
O29   O     O_2   0.746994 0.696264 0.612796 -0.404247
O30   O     O_R   0.663370 0.675507 0.556826 -0.617590
H32   H     H_    0.596324 0.632944 0.544943 0.311129
C99   C     C_2   0.347498 0.016466 0.586470 0.631671
O31   O     O_2   0.331108 0.001583 0.551531 -0.470500
O32   O     O_R   0.279716 0.024622 0.610538 -0.642722
H33   H     H_    0.220366 0.016769 0.595660 0.358556
C100  C     C_2   0.327186 0.972613 0.094532 0.632812
O33   O     O_2   0.258189 0.963415 0.114375 -0.455862
O34   O     O_R   0.336963 0.006010 0.056021 -0.647134
H34   H     H_    0.281027 0.017046 0.047703 0.347265
C101  C     C_2   0.646124 0.668188 0.093728 0.634488
O35   O     O_2   0.664891 0.660405 0.059699 -0.466996
O36   O     O_R   0.716844 0.743239 0.116791 -0.654955
H35   H     H_    0.779673 0.786389 0.101947 0.359856
C102  C     C_2   0.015002 0.347215 0.086144 0.632080
O37   O     O_2   0.000661 0.331698 0.051138 -0.470850
O38   O     O_R   0.021655 0.278295 0.110082 -0.643583
H36   H     H_    0.013397 0.219027 0.095053 0.356174
C103  C     C_2   0.958328 0.634484 0.577386 0.627062
O39   O     O_2   0.001335 0.647758 0.546236 -0.474233
O40   O     O_R   0.916421 0.692311 0.587208 -0.613992
H37   H     H_    0.926836 0.742462 0.566315 0.364161
C104  C     C_2   0.366779 0.321942 0.578817 0.633652
O41   O     O_2   0.349117 0.349848 0.548047 -0.494172
O42   O     O_R   0.314968 0.222679 0.588821 -0.637577
H38   H     H_    0.264514 0.181852 0.568412 0.346171
C105  C     C_2   0.677348 0.040078 0.574079 0.620657
O43   O     O_2   0.660531 0.996622 0.542974 -0.490321
O44   O     O_R   0.773745 0.104081 0.585339 -0.602889
H39   H     H_    0.823273 0.107416 0.565459 0.353575
C106  C     C_2   0.632353 0.950276 0.079077 0.632627
O45   O     O_2   0.651505 0.997315 0.048688 -0.472461
O46   O     O_R   0.682542 0.900063 0.088596 -0.641271
H40   H     H_    0.733136 0.908831 0.068188 0.347376
C107  C     C_2   0.320294 0.367404 0.079383 0.634175
O47   O     O_2   0.348131 0.348163 0.048971 -0.484653
O48   O     O_R   0.220825 0.317260 0.089104 -0.638692
H41   H     H_    0.179810 0.266483 0.068833 0.345357
C108  C     C_2   0.041764 0.678613 0.074416 0.617298
O49   O     O_2   0.997577 0.662740 0.043504 -0.492721
O50   O     O_R   0.107423 0.774564 0.085658 -0.606569
H42   H     H_    0.111240 0.824648 0.065928 0.351592
C109  C     C_2   0.972687 0.663463 0.662011 0.656103
O51   O     O_2   0.909481 0.659075 0.684210 -0.448553
O52   O     O_R   0.053127 0.754073 0.652202 -0.640583
H43   H     H_    0.051058 0.810866 0.665426 0.365326
C110  C     C_2   0.339664 0.310084 0.663368 0.648181
O53   O     O_2   0.347195 0.254050 0.686194 -0.451468
O54   O     O_R   0.247271 0.296392 0.653360 -0.639538
H44   H     H_    0.192110 0.237699 0.667027 0.365930
C111  C     C_2   0.642038 0.936380 0.648092 0.625838
O55   O     O_2   0.730396 0.991318 0.650778 -0.415953
O56   O     O_R   0.601631 0.837330 0.658034 -0.667648
H45   H     H_    0.653025 0.819826 0.666667 0.359507
C112  C     C_2   0.658239 0.962190 0.163564 0.652175
O57   O     O_2   0.649987 0.898429 0.186383 -0.452138
O58   O     O_R   0.751018 0.038784 0.153475 -0.641982
H46   H     H_    0.805789 0.033630 0.167060 0.362306
C113  C     C_2   0.306721 0.343213 0.164076 0.650811
O59   O     O_2   0.251531 0.352864 0.186628 -0.453588
O60   O     O_R   0.290958 0.249779 0.154657 -0.637650
H47   H     H_    0.231579 0.195808 0.168448 0.364423
C114  C     C_2   0.937765 0.642997 0.148265 0.619547
O61   O     O_2   0.993001 0.731327 0.150793 -0.426540
O62   O     O_R   0.838900 0.603018 0.158411 -0.665855
H48   H     H_    0.821822 0.654657 0.167087 0.360888

loop_
_geom_bond_atom_site_label_1
_geom_bond_atom_site_label_2
_ccdc_geom_bond_type
C25   C31   A    
C7    N7    A    
C102  O37   D    
C30   H24   S    
C26   C32   A    
Cr1   O19   S    
C29   H23   S    
Cr4   O16   S    
Cr6   O24   S    
O36   H35   S    
C6    C58   S    
C36   C42   A    
C111  O55   D    
C36   H30   S    
C31   H25   S    
C97   O27   D    
Cr4   O10   S    
Cr4   O22   S    
C25   C43   A    
C2    C57   S    
C26   C44   A    
C114  O61   D    
C7    C73   S    
C41   C95   S    
O42   H38   S    
C27   C33   A    
C7    N13   A    
C102  O38   S    
C28   C46   A    
O60   H47   S    
C33   C39   A    
N16   N22   A    
C29   C47   A    
C42   C96   S    
C107  O48   S    
C54   O17   A    
C30   C48   A    
C1    C56   S    
O48   H41   S    
Cr3   O21   S    
Cr3   O3    S    
C18   C42   A    
C96   N6    A    
O62   H48   S    
C63   C99   S    
C114  O62   S    
Cr3   O15   S    
C77   C83   A    
C68   C74   A    
C112  O57   D    
C64   C100  S    
C72   H12   S    
C16   H16   S    
C1    O7    A    
Cr1   O13   S    
C71   H11   S    
C14   C20   A    
C50   O20   A    
O56   H45   S    
C10   N10   A    
Cr5   O11   S    
C61   C67   A    
C39   C93   S    
C72   C78   A    
C11   C77   S    
C53   O16   A    
C65   C101  S    
C18   H18   S    
C3    C55   S    
C43   C53   S    
C48   C51   S    
C66   C72   A    
Cr2   O2    S    
C19   C43   A    
C112  O58   S    
C12   C78   S    
C92   N20   A    
C3    O2    A    
N4    N10   A    
C110  O53   D    
C57   C87   A    
C16   C22   A    
C67   C73   A    
C32   C38   A    
Cr4   O26   S    
O52   H43   S    
C13   C37   A    
C82   C88   A    
Cr6   O6    S    
C56   C62   A    
C27   C45   A    
C95   N23   A    
N5    N11   A    
C60   C66   A    
C101  O35   D    
N18   N24   A    
O58   H46   S    
C84   C114  S    
C110  O54   S    
C80   C110  S    
C54   O24   A    
O34   H34   S    
C84   C90   A    
C30   C36   A    
C23   H5    S    
C53   O23   A    
C20   C44   A    
C11   N17   A    
C46   C50   S    
C57   C63   A    
C21   C45   A    
C113  O60   S    
C58   C64   A    
C83   C89   A    
C6    O12   A    
C95   N5    A    
C17   C41   A    
C61   C97   S    
Cr5   O17   S    
C37   C91   S    
C103  O39   D    
Cr6   O26   S    
C94   N4    A    
C63   C69   A    
C90   C108  S    
C1    O3    A    
C23   C47   A    
C86   C104  S    
C107  O47   D    
C47   C49   S    
C76   C82   A    
C106  O45   D    
C49   O15   A    
C27   H21   S    
C75   C81   A    
C13   C19   A    
C68   H8    S    
Cr1   O7    S    
O44   H39   S    
C22   H4    S    
C19   H1    S    
C9    N15   A    
C78   C84   A    
C12   N12   A    
C31   C37   A    
C59   C89   A    
N13   N19   A    
Cr1   O1    S    
C55   C85   A    
C105  O43   D    
C99   O32   S    
C104  O41   D    
O50   H42   S    
Cr5   O23   S    
C12   N18   A    
C14   C38   A    
O46   H40   S    
Cr2   O20   S    
Cr4   O4    S    
C24   C48   A    
C56   C86   A    
C108  O49   D    
C91   N1    A    
C6    O5    A    
C15   C21   A    
C69   H9    S    
C94   N22   A    
C5    O4    A    
C79   C109  S    
C8    C74   S    
O40   H37   S    
C73   C79   A    
C111  O56   S    
C17   C23   A    
C15   C39   A    
C13   H13   S    
C35   C41   A    
C70   H10   S    
C16   C40   A    
C24   H6    S    
C66   C102  S    
C22   C46   A    
C45   C54   S    
N1    N7    A    
C64   C70   A    
C109  O52   S    
C70   C76   A    
C18   C24   A    
C2    O8    A    
C52   O18   A    
C71   C77   A    
C3    O9    A    
C103  O40   S    
C33   H27   S    
C99   O31   D    
C104  O42   S    
O38   H36   S    
Cr6   O12   S    
C5    C60   S    
C85   C103  S    
C10   C76   S    
C51   O14   A    
C92   N2    A    
C67   H7    S    
C40   C94   S    
C93   N3    A    
C58   C88   A    
C89   C107  S    
Cr2   O8    S    
C113  O59   D    
C28   H22   S    
Cr1   O25   S    
C20   H2    S    
N2    N8    A    
C60   C90   A    
Cr6   O18   S    
C9    C75   S    
C29   C35   A    
C80   C86   A    
C88   C106  S    
C62   C68   A    
C8    N8    A    
C15   H15   S    
C32   H26   S    
Cr2   O25   S    
C93   N21   A    
N17   N23   A    
C35   H29   S    
C8    N14   A    
C108  O50   S    
N6    N12   A    
C59   C65   A    
C91   N19   A    
C81   C87   A    
C44   C52   S    
O28   H31   S    
C96   N24   A    
C25   H19   S    
N14   N20   A    
C2    O1    A    
C14   H14   S    
O54   H44   S    
C55   C61   A    
C4    C59   S    
Cr5   O5    S    
C79   C85   A    
C4    O10   A    
C82   C112  S    
C69   C75   A    
C50   O13   A    
C4    O6    A    
C65   C71   A    
C5    O11   A    
O30   H32   S    
N15   N21   A    
C52   O22   A    
C98   O30   S    
C105  O44   S    
C9    N9    A    
C17   H17   S    
C28   C34   A    
C100  O33   D    
Cr2   O14   S    
C81   C111  S    
N3    N9    A    
C34   H28   S    
C97   O28   S    
O32   H33   S    
C74   C80   A    
C83   C113  S    
C109  O51   D    
C101  O36   S    
C87   C105  S    
C34   C40   A    
Cr3   O25   S    
C98   O29   D    
C26   H20   S    
C100  O34   S    
C51   O21   A    
C11   N11   A    
C106  O46   S    
C21   H3    S    
Cr5   O26   S    
C38   C92   S    
C10   N16   A    
C62   C98   S    
Cr3   O9    S    
C49   O19   A    
