data_mof_unit_24027.cif
_audit_creation_date              2012-12-10T19:46:52-0500
_audit_creation_method            fapswitch 2.2
_symmetry_space_group_name_H-M    P1
_symmetry_Int_Tables_number       1
_space_group_crystal_system       triclinic
_cell_length_a                    10.881018
_cell_length_b                    10.888778
_cell_length_c                    13.120086
_cell_angle_alpha                 90.485439
_cell_angle_beta                  90.247788
_cell_angle_gamma                 90.230652
_cell_volume                      1554.3976149

loop_
_atom_site_label
_atom_site_type_symbol
_atom_type_description
_atom_site_fract_x
_atom_site_fract_y
_atom_site_fract_z
_atom_type_partial_charge
C1    C     C_R   0.491755 0.259654 0.499361 0.829157
C2    C     C_R   0.508232 0.740347 0.500639 0.829145
C3    C     C_R   0.872810 0.495054 0.501159 -0.052757
C4    C     C_R   0.127190 0.504931 0.498839 -0.052758
C5    C     C_R   0.939755 0.444619 0.582929 0.069238
C6    C     C_R   0.060245 0.555360 0.417066 0.069234
C7    C     C_R   0.276912 0.224739 0.211905 -0.099180
C8    C     C_R   0.722924 0.775215 0.788136 -0.099228
C9    C     C_R   0.316000 0.174728 0.304264 -0.143109
C10   C     C_R   0.683879 0.825207 0.695764 -0.142984
C11   C     C_R   0.429929 0.114911 0.310605 0.111967
C12   C     C_R   0.569987 0.885094 0.689407 0.112005
C13   C     C_R   0.503282 0.104572 0.223119 -0.133702
C14   C     C_R   0.496631 0.895527 0.776890 -0.133757
C15   C     C_R   0.463964 0.155094 0.130975 -0.167289
C16   C     C_R   0.535905 0.845022 0.869046 -0.167271
C17   C     C_R   0.350859 0.215098 0.125378 -0.099430
C18   C     C_R   0.648973 0.784946 0.874659 -0.099449
C19   C     C_R   0.482369 0.932535 0.410313 -0.266806
C20   C     C_R   0.517598 0.067467 0.589689 -0.266843
C21   C     C_R   0.509395 0.873068 0.501689 -0.081666
C22   C     C_R   0.490580 0.126933 0.498313 -0.081662
C23   C     C_R   0.259635 0.504991 0.499646 0.843355
C24   C     C_R   0.740364 0.495003 0.500353 0.843353
C25   C     C_R   0.529875 0.941068 0.592301 0.007038
C26   C     C_R   0.470086 0.058934 0.407702 0.007036
C27   C     C_1   0.500053 0.500075 0.173570 0.160415
C28   C     C_1   0.499948 0.499925 0.826430 0.160415
C29   C     C_1   0.500052 0.500048 0.050684 -0.106933
C30   C     C_1   0.499951 0.499951 0.949316 -0.106921
C31   C     C_R   0.227539 0.787364 0.250519 -0.216138
C32   C     C_R   0.772437 0.212611 0.749461 -0.216116
C33   C     C_R   0.172042 0.736630 0.337083 0.050031
C34   C     C_R   0.827938 0.263350 0.662900 0.050038
C35   C     C_R   0.119474 0.617156 0.329582 0.052863
C36   C     C_R   0.880525 0.382815 0.670410 0.052870
C37   C     C_R   0.121209 0.554093 0.235728 -0.150607
C38   C     C_R   0.878811 0.445861 0.764273 -0.150660
C39   C     C_R   0.176717 0.606145 0.149870 0.065086
C40   C     C_R   0.823297 0.393806 0.850128 0.065059
C41   C     C_R   0.230567 0.722697 0.158278 -0.203048
C42   C     C_R   0.769423 0.277266 0.841709 -0.203044
C43   C     C_R   0.933123 0.548575 0.418748 -0.201981
C44   C     C_R   0.066877 0.451406 0.581248 -0.202006
Cu1   Cu    Cu3+1 0.499990 0.499990 0.592680 0.992714
Cu2   Cu    Cu3+1 0.500010 0.500010 0.407320 0.992727
H1    H     H_    0.273909 0.764552 0.092914 0.127068
H2    H     H_    0.726077 0.235409 0.907071 0.127064
H3    H     H_    0.590913 0.057918 0.226503 0.136515
H4    H     H_    0.409030 0.942243 0.773497 0.136522
H5    H     H_    0.521052 0.147542 0.063860 0.131384
H6    H     H_    0.478815 0.852647 0.936161 0.131382
H7    H     H_    0.466298 0.879921 0.340987 0.157277
H8    H     H_    0.533662 0.120082 0.659015 0.157282
H9    H     H_    0.267429 0.878617 0.253736 0.136496
H10   H     H_    0.732533 0.121364 0.746237 0.136491
H11   H     H_    0.079006 0.464001 0.230038 0.160709
H12   H     H_    0.921036 0.535943 0.769973 0.160735
H13   H     H_    0.880969 0.588053 0.356515 0.153067
H14   H     H_    0.119032 0.411928 0.643481 0.153065
H15   H     H_    0.320519 0.253985 0.053965 0.165568
H16   H     H_    0.679278 0.746075 0.946083 0.165474
H17   H     H_    0.189015 0.270346 0.207303 0.156660
H18   H     H_    0.810793 0.729556 0.792751 0.156675
H19   H     H_    0.257566 0.182136 0.370660 0.123652
H20   H     H_    0.742318 0.817732 0.629372 0.123619
N1    N     N_1   0.500030 0.500030 0.268070 -0.131335
N2    N     N_1   0.499970 0.499970 0.731930 -0.131338
O1    O     O_R   0.499980 0.319630 0.578260 -0.589000
O2    O     O_R   0.500020 0.680370 0.421740 -0.588990
O3    O     O_R   0.500000 0.319650 0.421740 -0.563345
O4    O     O_R   0.500000 0.680350 0.578260 -0.563355
O5    O     O_R   0.319630 0.500000 0.578260 -0.579095
O6    O     O_R   0.680370 0.500000 0.421740 -0.579093
O7    O     O_R   0.319650 0.500020 0.421740 -0.584822
O8    O     O_R   0.680350 0.499980 0.578260 -0.584831
C45   C     C_2   0.169258 0.813408 0.431303 0.319895
H21   H     H_    0.216506 0.901395 0.432864 0.082706
O9    O     O_2   0.113434 0.781879 0.507231 -0.552134
C46   C     C_2   0.830709 0.186582 0.568672 0.319885
H22   H     H_    0.783447 0.098603 0.567103 0.082716
O10   O     O_2   0.886540 0.218110 0.492746 -0.552144
C47   C     C_2   0.178447 0.540542 0.050764 0.382622
H23   H     H_    0.222420 0.582385 0.985473 0.069718
O11   O     O_2   0.130765 0.439456 0.040544 -0.562776
C48   C     C_2   0.821585 0.459395 0.949242 0.382626
H24   H     H_    0.777607 0.417551 0.014531 0.069700
O12   O     O_2   0.869288 0.560469 0.959471 -0.562718

loop_
_geom_bond_atom_site_label_1
_geom_bond_atom_site_label_2
_ccdc_geom_bond_type
C27   C29   S    
C24   O6    A    
C39   C41   A    
C45   H21   S    
C3    C43   A    
C1    O3    A    
C10   H20   S    
Cu1   O8    S    
C28   N2    T    
C23   O5    A    
C48   O12   D    
C20   C25   A    
C5    C36   S    
C6    C35   S    
Cu1   O5    S    
C40   C48   S    
C19   C26   A    
C17   H15   S    
C38   H12   S    
C7    C17   A    
C31   C33   A    
C15   H5    S    
C43   H13   S    
C34   C46   S    
C19   H7    S    
C40   C42   A    
C1    C22   S    
Cu1   O4    S    
C3    C24   S    
C2    C21   S    
C2    O4    A    
Cu2   O7    S    
C9    H19   S    
C45   O9    D    
Cu1   O1    S    
C20   H8    S    
C23   O7    A    
C4    C23   S    
C48   H24   S    
C24   O8    A    
C4    C44   A    
C11   C26   S    
Cu1   Cu2   S    
C8    C18   A    
C32   C34   A    
C29   C30   T    
C47   H23   S    
Cu1   N2    S    
C41   H1    S    
C16   C18   A    
C42   H2    S    
C9    C11   A    
C7    H17   S    
Cu2   O3    S    
C10   C12   A    
C8    H18   S    
C13   H3    S    
C4    C6    A    
C47   O11   D    
C5    C44   A    
C20   C22   A    
C6    C43   A    
C13   C15   A    
C14   C16   A    
Cu2   O6    S    
C35   C37   A    
C15   C17   A    
C21   C25   A    
C31   C41   A    
C19   C21   A    
C18   H16   S    
C16   H6    S    
C12   C14   A    
C46   H22   S    
C3    C5    A    
C12   C25   S    
C28   C30   S    
C39   C47   S    
Cu2   N1    S    
C37   C39   A    
C38   C40   A    
C11   C13   A    
C33   C45   S    
C14   H4    S    
C44   H14   S    
C36   C38   A    
C33   C35   A    
C46   O10   D    
C34   C36   A    
C1    O1    A    
Cu2   O2    S    
C27   N1    T    
C7    C9    A    
C8    C10   A    
C22   C26   A    
C32   C42   A    
C31   H9    S    
C2    O2    A    
C32   H10   S    
C37   H11   S    
