data_mof_unit_29570.cif
_audit_creation_date              2012-12-10T16:44:38-0500
_audit_creation_method            fapswitch 2.2
_symmetry_space_group_name_H-M    P1
_symmetry_Int_Tables_number       1
_space_group_crystal_system       triclinic
_cell_length_a                    14.999439
_cell_length_b                    8.658656
_cell_length_c                    7.566235
_cell_angle_alpha                 102.451283
_cell_angle_beta                  95.518484
_cell_angle_gamma                 93.752186
_cell_volume                      951.343302458

loop_
_atom_site_label
_atom_site_type_symbol
_atom_type_description
_atom_site_fract_x
_atom_site_fract_y
_atom_site_fract_z
_atom_type_partial_charge
C1    C     C_R   0.494890 0.200227 0.454073 0.853990
C2    C     C_R   0.505106 0.799773 0.545927 0.854032
C3    C     C_R   0.036268 0.213705 0.414938 -0.207609
C4    C     C_R   0.963720 0.786304 0.584800 -0.207605
C5    C     C_2   0.487735 0.031970 0.430249 -0.373275
C6    C     C_2   0.512259 0.968030 0.569750 -0.373301
C7    C     C_R   0.329560 0.501782 0.500638 0.799352
C8    C     C_R   0.670441 0.498221 0.499362 0.799344
C9    C     C_R   0.819087 0.636509 0.541259 -0.310595
C10   C     C_R   0.180908 0.363498 0.458617 -0.310585
C11   C     C_R   0.766516 0.491995 0.497553 -0.037646
C12   C     C_R   0.233484 0.508010 0.502438 -0.037651
C13   C     C_R   0.805535 0.346132 0.453563 0.126455
C14   C     C_R   0.194465 0.653874 0.546437 0.126466
C15   C     C_R   0.900052 0.349176 0.454830 0.102597
C16   C     C_R   0.099940 0.650831 0.545024 0.102598
C17   C     C_R   0.952889 0.497354 0.499090 0.029915
C18   C     C_R   0.047103 0.502655 0.500737 0.029914
C19   C     C_R   0.911766 0.640519 0.541864 0.120780
C20   C     C_R   0.088226 0.359490 0.457954 0.120777
C21   C     C_R   0.943400 0.208250 0.413258 -0.211692
C22   C     C_R   0.056589 0.791756 0.586489 -0.211700
Cu1   Cu    Cu3+1 0.510010 0.517380 0.684380 0.943381
Cu2   Cu    Cu3+1 0.489990 0.482620 0.315620 0.943411
H1    H     H_    0.787195 0.746576 0.574191 0.130822
H2    H     H_    0.212799 0.253431 0.425656 0.130825
H3    H     H_    0.906460 0.092328 0.378873 0.157170
H4    H     H_    0.093529 0.907673 0.620792 0.157177
H5    H     H_    0.067568 0.103234 0.382265 0.144412
H6    H     H_    0.932418 0.896774 0.617417 0.144408
H7    H     H_    0.460371 0.960753 0.297763 0.166674
H8    H     H_    0.539624 0.039247 0.702237 0.166668
N1    N     N_2   0.474890 0.456420 0.038520 -0.053183
N2    N     N_2   0.525110 0.543580 0.961480 -0.053181
O1    O     O_R   0.506510 0.286130 0.619770 -0.591469
O2    O     O_R   0.493490 0.713870 0.380230 -0.591445
O3    O     O_R   0.489600 0.256770 0.308360 -0.596792
O4    O     O_R   0.510400 0.743230 0.691640 -0.596838
O5    O     O_R   0.378710 0.514640 0.655720 -0.588324
O6    O     O_R   0.621290 0.485360 0.344280 -0.588279
O7    O     O_R   0.361800 0.485290 0.344300 -0.574604
O8    O     O_R   0.638200 0.514710 0.655700 -0.574623
C23   C     C_3   0.747855 0.189031 0.407355 -0.878368
H9    H     H_    0.767969 0.116210 0.506243 0.221605
H10   H     H_    0.675319 0.202128 0.411721 0.234435
H11   H     H_    0.756356 0.123888 0.267439 0.229004
C24   C     C_3   0.252148 0.810974 0.592822 -0.878478
H12   H     H_    0.243433 0.876216 0.732566 0.228981
H13   H     H_    0.324713 0.797880 0.589034 0.234501
H14   H     H_    0.232221 0.883694 0.493702 0.221658
C25   C     C_3   0.432415 0.305106 0.937261 -0.344008
H15   H     H_    0.385574 0.258750 0.022154 0.155388
H16   H     H_    0.390009 0.314153 0.813729 0.187550
H17   H     H_    0.483601 0.219306 0.911322 0.164021
C26   C     C_3   0.567584 0.694893 0.062739 -0.344016
H18   H     H_    0.614424 0.741250 0.977845 0.155393
H19   H     H_    0.516399 0.780694 0.088680 0.164021
H20   H     H_    0.609992 0.685846 0.186268 0.187544

loop_
_geom_bond_atom_site_label_1
_geom_bond_atom_site_label_2
_ccdc_geom_bond_type
C17   C18   A    
C5    H7    S    
C15   C21   A    
C26   H18   S    
C14   C24   S    
Cu2   N1    S    
N1    C25   S    
Cu1   O4    S    
C4    C22   A    
C2    O4    A    
Cu1   O1    S    
C24   H12   S    
C1    C5    S    
C1    O3    A    
C23   H9    S    
C25   H17   S    
C10   H2    S    
C3    C20   A    
Cu2   O3    S    
C21   H3    S    
C9    H1    S    
N2    C26   S    
C24   H13   S    
C26   H19   S    
C22   H4    S    
Cu2   O7    S    
C9    C11   A    
C3    H5    S    
Cu2   O2    S    
Cu1   O8    S    
C10   C12   A    
C8    C11   S    
Cu1   O5    S    
C17   C19   A    
C12   C14   A    
N1    N2    D    
C24   H14   S    
C18   C20   A    
C13   C15   A    
C5    C6    D    
C23   H11   S    
C14   C16   A    
C7    C12   S    
C3    C21   A    
C11   C13   A    
Cu1   Cu2   S    
C8    O8    A    
C25   H15   S    
C13   C23   S    
C1    O1    A    
C16   C18   A    
C6    H8    S    
C26   H20   S    
C2    O2    A    
C15   C17   A    
C7    O5    A    
Cu1   N2    S    
C16   C22   A    
C8    O6    A    
Cu2   O6    S    
C4    C19   A    
C23   H10   S    
C9    C19   A    
C4    H6    S    
C2    C6    S    
C7    O7    A    
C10   C20   A    
C25   H16   S    
