data_mof_unit_66009.cif
_audit_creation_date              2012-12-10T19:29:18-0500
_audit_creation_method            fapswitch 2.2
_symmetry_space_group_name_H-M    P1
_symmetry_Int_Tables_number       1
_space_group_crystal_system       triclinic
_cell_length_a                    15.859275
_cell_length_b                    17.705303
_cell_length_c                    16.670247
_cell_angle_alpha                 90.097963
_cell_angle_beta                  90.017259
_cell_angle_gamma                 92.912133
_cell_volume                      4674.84116182

loop_
_atom_site_label
_atom_site_type_symbol
_atom_type_description
_atom_site_fract_x
_atom_site_fract_y
_atom_site_fract_z
_atom_type_partial_charge
C1    C     C_R   0.499591 0.355963 0.499906 0.900021
C2    C     C_R   0.499568 0.644273 0.499954 0.880434
C3    C     C_R   0.566558 0.769642 0.537696 0.209551
C4    C     C_R   0.575499 0.237474 0.492742 0.184033
C5    C     C_R   0.500248 0.727213 0.499423 -0.216300
C6    C     C_R   0.498760 0.273530 0.499525 -0.205064
C7    C     C_R   0.435092 0.764055 0.460107 0.055354
C8    C     C_R   0.421720 0.231159 0.507673 0.028508
C9    C     C_R   0.435274 0.843498 0.460689 0.155474
C10   C     C_R   0.421618 0.151850 0.511529 0.181806
C11   C     C_R   0.498973 0.885500 0.502408 -0.079644
C12   C     C_R   0.498242 0.115599 0.504713 -0.076546
C13   C     C_1   0.498111 0.966603 0.504352 0.046972
C14   C     C_1   0.497860 0.034436 0.505377 0.045752
C15   C     C_R   0.553802 0.549431 0.829818 0.068939
C16   C     C_R   0.443841 0.451978 0.170619 0.066070
C17   C     C_R   0.558762 0.543963 0.744710 0.351103
C18   C     C_R   0.449952 0.447801 0.255745 0.348044
C19   C     C_R   0.441016 0.455765 0.744128 0.349039
C20   C     C_R   0.549927 0.552257 0.255792 0.357802
C21   C     C_R   0.445125 0.450678 0.829359 0.063210
C22   C     C_R   0.555302 0.548341 0.170596 0.059820
C23   C     C_R   0.339933 0.500279 0.499942 0.848855
C24   C     C_R   0.660051 0.499766 0.499996 0.829021
C25   C     C_R   0.499302 0.500122 0.873771 -0.095871
C26   C     C_R   0.499380 0.500234 0.126435 -0.092257
C27   C     C_1   0.499175 0.500159 0.963100 0.132259
C28   C     C_1   0.499210 0.500196 0.037108 0.133833
C29   C     C_3   0.968919 0.425994 0.500486 0.093592
C30   C     C_3   0.030849 0.572971 0.499757 0.111182
C31   C     C_3   0.026092 0.463788 0.435145 0.177048
C32   C     C_3   0.973774 0.535220 0.565057 0.196361
C33   C     C_1   0.250518 0.501017 0.499769 -0.122287
C34   C     C_1   0.749419 0.498983 0.499925 -0.182705
C35   C     C_3   0.026198 0.464603 0.565368 0.197815
C36   C     C_3   0.973679 0.534353 0.434845 0.184945
C37   C     C_3   0.083630 0.501322 0.500033 -0.092062
C38   C     C_3   0.916221 0.497874 0.500181 -0.082662
C39   C     C_1   0.175143 0.501396 0.499869 0.040321
C40   C     C_1   0.824758 0.498308 0.500044 0.012743
C41   C     C_R   0.564956 0.849052 0.540459 0.193743
C42   C     C_R   0.575236 0.158098 0.494944 0.191340
Cu1   Cu    Cu3+1 0.500000 0.499980 0.580420 0.969202
Cu2   Cu    Cu3+1 0.500000 0.500020 0.419580 0.957021
N1    N     N_R   0.499980 0.499970 0.701220 -0.245786
N2    N     N_R   0.500020 0.500030 0.298780 -0.241454
O1    O     O_R   0.499990 0.391240 0.567930 -0.581734
O2    O     O_R   0.500010 0.608760 0.432070 -0.569683
O3    O     O_R   0.500000 0.391270 0.432120 -0.587167
O4    O     O_R   0.500000 0.608730 0.567880 -0.575287
O5    O     O_R   0.379070 0.499980 0.567900 -0.578467
O6    O     O_R   0.620930 0.500020 0.432100 -0.601524
O7    O     O_R   0.379080 0.500010 0.432080 -0.574988
O8    O     O_R   0.620920 0.499990 0.567920 -0.571346
N3    N     N_2   0.059665 0.427300 0.364998 -0.407906
H1    H     H_    0.109856 0.394462 0.377541 0.281730
C43   C     C_3   0.998689 0.390784 0.311197 -0.606732
H2    H     H_    0.028193 0.384096 0.251418 0.236636
H3    H     H_    0.942317 0.424750 0.303942 0.226262
H4    H     H_    0.978835 0.333810 0.333879 0.252043
N4    N     N_2   0.940067 0.572342 0.634761 -0.432952
H5    H     H_    0.894328 0.609511 0.620746 0.256837
C44   C     C_3   0.001013 0.602708 0.692396 -0.605660
H6    H     H_    0.967958 0.615802 0.749033 0.226829
H7    H     H_    0.032518 0.655672 0.669541 0.248699
H8    H     H_    0.049346 0.561460 0.705995 0.257821
N5    N     N_2   0.374402 0.413418 0.704669 -0.395200
H9    H     H_    0.385255 0.386732 0.651521 0.304504
C45   C     C_3   0.288670 0.435581 0.718322 -0.566886
H10   H     H_    0.260743 0.455611 0.661839 0.223013
H11   H     H_    0.286042 0.481448 0.763772 0.224622
H12   H     H_    0.249424 0.385839 0.739326 0.248349
N6    N     N_2   0.598089 0.611491 0.295142 -0.409268
H13   H     H_    0.628514 0.601589 0.347885 0.279239
C46   C     C_3   0.574089 0.688509 0.281935 -0.569557
H14   H     H_    0.555931 0.714672 0.339324 0.220276
H15   H     H_    0.520253 0.691031 0.239418 0.241685
H16   H     H_    0.628875 0.722496 0.257520 0.239720
I1    I     I_    0.372066 0.363341 0.888810 -0.272058
I2    I     I_    0.653778 0.612350 0.110956 -0.300815
I3    I     I_    0.915736 0.312295 0.501970 -0.400984
I4    I     I_    0.081222 0.687605 0.498984 -0.294697
N7    N     N_2   0.940861 0.571930 0.365127 -0.415294
H17   H     H_    0.887396 0.545000 0.341294 0.253857
C47   C     C_3   0.002114 0.596188 0.305016 -0.542911
H18   H     H_    0.972874 0.635837 0.263049 0.228849
H19   H     H_    0.022784 0.547041 0.270169 0.234207
H20   H     H_    0.058075 0.625774 0.332796 0.260423
N8    N     N_2   0.060165 0.428355 0.635369 -0.432131
H21   H     H_    0.105929 0.391089 0.621638 0.274140
C48   C     C_3   0.999449 0.398586 0.693391 -0.592681
H22   H     H_    0.032615 0.386798 0.750304 0.226433
H23   H     H_    0.968503 0.344971 0.671383 0.252493
H24   H     H_    0.950661 0.439661 0.706187 0.255828
N9    N     N_2   0.630599 0.891857 0.581150 -0.428573
H25   H     H_    0.611891 0.938069 0.613066 0.261738
C49   C     C_3   0.708161 0.905743 0.536345 -0.647168
H26   H     H_    0.760149 0.877801 0.567182 0.248811
H27   H     H_    0.724810 0.967269 0.533623 0.220352
H28   H     H_    0.702818 0.884151 0.473739 0.225552
N10   N     N_2   0.653287 0.121972 0.490366 -0.423023
H29   H     H_    0.662026 0.084801 0.536773 0.253188
C50   C     C_3   0.672158 0.090199 0.412737 -0.636467
H30   H     H_    0.660832 0.131076 0.363996 0.233636
H31   H     H_    0.632624 0.037656 0.401785 0.224285
H32   H     H_    0.739521 0.076059 0.411075 0.238080
N11   N     N_2   0.633679 0.732193 0.575217 -0.427783
H33   H     H_    0.659858 0.759430 0.624687 0.296447
C51   C     C_3   0.696685 0.704455 0.521259 -0.696460
H34   H     H_    0.742175 0.671628 0.555796 0.224762
H35   H     H_    0.731807 0.752166 0.491173 0.241635
H36   H     H_    0.667188 0.666714 0.474965 0.211906
N12   N     N_2   0.653157 0.281702 0.488986 -0.419918
H37   H     H_    0.701574 0.260474 0.521999 0.299302
C52   C     C_3   0.679710 0.304756 0.409262 -0.611308
H38   H     H_    0.730046 0.350413 0.413909 0.239404
H39   H     H_    0.626539 0.326528 0.374398 0.235850
H40   H     H_    0.705662 0.256591 0.376560 0.231184
I5    I     I_    0.334269 0.699254 0.402678 -0.248369
I6    I     I_    0.305768 0.287953 0.512008 -0.373119
I7    I     I_    0.340377 0.901187 0.397324 -0.205423
I8    I     I_    0.306300 0.086151 0.529917 -0.193866
I9    I     I_    0.626119 0.637301 0.889526 -0.283164
I10   I     I_    0.345339 0.387562 0.111150 -0.278126
N13   N     N_2   0.625956 0.585812 0.705936 -0.403016
H41   H     H_    0.615729 0.608702 0.650933 0.314998
C53   C     C_3   0.711235 0.562859 0.720490 -0.606011
H42   H     H_    0.738711 0.540363 0.664816 0.225515
H43   H     H_    0.713188 0.518584 0.767595 0.233628
H44   H     H_    0.751329 0.612800 0.739768 0.242108
N14   N     N_2   0.403060 0.387819 0.294930 -0.398183
H45   H     H_    0.373682 0.396933 0.348466 0.301206
C54   C     C_3   0.428272 0.311293 0.280424 -0.580177
H46   H     H_    0.451892 0.286256 0.336393 0.223403
H47   H     H_    0.478776 0.309447 0.234298 0.218871
H48   H     H_    0.372687 0.275875 0.259849 0.257155

loop_
_geom_bond_atom_site_label_1
_geom_bond_atom_site_label_2
_ccdc_geom_bond_type
Cu2   O3    S    
C24   O6    A    
C38   C40   S    
N3    H1    S    
C44   H7    S    
N10   H29   S    
C52   H39   S    
N6    C46   S    
N6    H13   S    
N9    H25   S    
Cu1   Cu2   S    
C17   N13   S    
C49   H26   S    
C41   N9    S    
C47   H18   S    
C33   C39   T    
C15   I9    S    
C34   C40   T    
C35   C37   S    
C17   N1    A    
C32   N4    S    
C51   H35   S    
C15   C25   A    
C36   N7    S    
C24   O8    A    
C52   H38   S    
N4    C44   S    
C45   H11   S    
C12   C42   A    
C2    O4    A    
Cu2   O7    S    
C23   C33   S    
C29   C38   S    
C54   H48   S    
C9    I7    S    
N11   H33   S    
C19   N5    S    
C32   C38   S    
N8    C48   S    
Cu1   O1    S    
Cu2   O6    S    
C44   H8    S    
N10   C50   S    
C13   C14   T    
N11   C51   S    
C18   N14   S    
N4    H5    S    
C18   N2    A    
C49   H27   S    
Cu2   N2    S    
C23   O7    A    
C47   H19   S    
C16   C26   A    
N5    H9    S    
C32   C35   S    
C7    I5    S    
C4    N12   S    
C4    C6    A    
C51   H36   S    
C48   H22   S    
C5    C7    A    
C1    O1    A    
C43   H4    S    
C6    C8    A    
N14   C54   S    
C24   C34   S    
C31   C37   S    
C30   C37   S    
N5    C45   S    
C30   I4    S    
C45   H12   S    
C46   H14   S    
C53   H43   S    
C29   I3    S    
C48   H23   S    
C9    C11   A    
Cu1   O8    S    
C23   O5    A    
N7    H17   S    
C29   C31   S    
C52   H40   S    
C21   I1    S    
C19   N1    A    
C50   H31   S    
Cu1   N1    S    
C10   C12   A    
C35   N8    S    
C16   C18   A    
N7    C47   S    
C12   C14   S    
N3    C43   S    
N13   H41   S    
C2    C5    S    
N14   H45   S    
C42   N10   S    
C3    C5    A    
C50   H30   S    
C49   H28   S    
C8    I6    S    
N13   C53   S    
N12   H37   S    
C47   H20   S    
C7    C9    A    
C21   C25   A    
C3    C41   A    
C1    C6    S    
C19   C21   A    
C20   C22   A    
C10   I8    S    
N9    C49   S    
Cu1   O4    S    
C15   C17   A    
C25   C27   S    
C29   C35   S    
C26   C28   S    
C30   C36   S    
C2    O2    A    
C36   C38   S    
C16   I10   S    
C53   H44   S    
C22   I2    S    
C37   C39   S    
C51   H34   S    
C48   H24   S    
C30   C32   S    
C11   C13   S    
Cu1   O5    S    
C43   H2    S    
C54   H46   S    
C4    C42   A    
C20   N6    S    
C11   C41   A    
C50   H32   S    
C45   H10   S    
C46   H16   S    
C43   H3    S    
C44   H6    S    
Cu2   O2    S    
C8    C10   A    
C22   C26   A    
C46   H15   S    
C27   C28   T    
C54   H47   S    
C31   C36   S    
C31   N3    S    
N8    H21   S    
C1    O3    A    
C20   N2    A    
C53   H42   S    
N12   C52   S    
C3    N11   S    
