data_mof_unit_51428.cif
_audit_creation_date              2012-12-11T14:23:00-0500
_audit_creation_method            fapswitch 2.2
_symmetry_space_group_name_H-M    P1
_symmetry_Int_Tables_number       1
_space_group_crystal_system       triclinic
_cell_length_a                    11.163565
_cell_length_b                    11.131608
_cell_length_c                    18.718134
_cell_angle_alpha                 90.477148
_cell_angle_beta                  89.600875
_cell_angle_gamma                 60.248462
_cell_volume                      2019.22788667

loop_
_atom_site_label
_atom_site_type_symbol
_atom_type_description
_atom_site_fract_x
_atom_site_fract_y
_atom_site_fract_z
_atom_type_partial_charge
C1    C     C_R   0.289815 0.622104 0.615753 0.539100
C2    C     C_3   0.723172 0.514870 0.801031 -0.281392
C3    C     C_3   0.698496 0.662039 0.815792 0.061912
C4    C     C_3   0.667622 0.635918 0.679554 0.057653
C5    C     C_3   0.790271 0.661013 0.688395 0.049642
C6    C     C_3   0.693629 0.503738 0.721595 -0.224637
C7    C     C_R   0.699373 0.124858 0.815347 0.035623
C8    C     C_R   0.800481 0.143744 0.777303 -0.046862
C9    C     C_R   0.798409 0.143066 0.701329 -0.027487
C10   C     C_R   0.599972 0.113030 0.701272 -0.129181
C11   C     C_R   0.602875 0.103786 0.774460 0.273725
C12   C     C_R   0.648695 0.614700 0.603699 0.550757
C13   C     C_R   0.906667 0.157355 0.810669 -0.156580
C14   C     C_R   0.009363 0.163636 0.769872 -0.115605
C15   C     C_R   0.010635 0.153075 0.695375 0.136364
C16   C     C_R   0.909750 0.135644 0.662222 -0.075603
C17   C     C_R   0.685561 0.147519 0.665682 -0.047865
C18   C     C_R   0.209273 0.657843 0.842741 -0.008942
C19   C     C_R   0.246078 0.530204 0.810048 0.015461
C20   C     C_R   0.263433 0.515263 0.734282 0.012459
C21   C     C_R   0.236656 0.746272 0.730557 -0.194113
C22   C     C_R   0.217719 0.759656 0.803428 -0.178032
C23   C     C_R   0.631514 0.223074 0.599607 0.527734
C24   C     C_R   0.256059 0.420487 0.851388 -0.069194
C25   C     C_R   0.254113 0.309919 0.819210 -0.085735
C26   C     C_R   0.259681 0.298692 0.745572 -0.148149
C27   C     C_R   0.270305 0.395232 0.703515 -0.107773
C28   C     C_R   0.261349 0.626070 0.693883 -0.021697
C29   C     C_R   0.653754 0.671245 0.169396 -0.020653
C30   C     C_R   0.741272 0.547493 0.204214 0.033852
C31   C     C_R   0.766964 0.556235 0.276407 0.024847
C32   C     C_R   0.553986 0.772842 0.285144 -0.143853
C33   C     C_R   0.559825 0.786010 0.211119 -0.159044
C34   C     C_R   0.219751 0.647943 0.402492 0.560827
C35   C     C_R   0.821694 0.421697 0.167095 -0.084653
C36   C     C_R   0.948037 0.325714 0.194129 -0.146292
C37   C     C_R   0.986785 0.349482 0.260902 -0.080136
C38   C     C_R   0.896469 0.461223 0.302673 -0.051520
C39   C     C_R   0.661583 0.658997 0.319302 -0.011994
C40   C     C_R   0.646976 0.172809 0.174163 -0.012686
C41   C     C_R   0.536980 0.180786 0.213996 0.009060
C42   C     C_R   0.557994 0.144321 0.286227 0.032669
C43   C     C_R   0.750548 0.186599 0.283933 -0.143069
C44   C     C_R   0.755077 0.174883 0.210285 -0.154418
C45   C     C_R   0.643631 0.623535 0.392819 0.540706
C46   C     C_R   0.411305 0.214022 0.182734 -0.087092
C47   C     C_R   0.321288 0.183668 0.217633 -0.157844
C48   C     C_R   0.352786 0.124447 0.285421 -0.041235
C49   C     C_R   0.472008 0.100563 0.319440 0.288425
C50   C     C_R   0.653278 0.168895 0.323230 -0.014354
C51   C     C_R   0.135371 0.680496 0.188731 -0.042192
C52   C     C_R   0.134756 0.785689 0.232179 0.007169
C53   C     C_R   0.092704 0.794354 0.303709 -0.045752
C54   C     C_R   0.153888 0.553826 0.296271 0.206191
C55   C     C_R   0.142565 0.564992 0.222060 -0.100653
C56   C     C_R   0.617940 0.228186 0.395300 0.552254
C57   C     C_R   0.174988 0.881106 0.208871 0.144409
C58   C     C_R   0.141287 0.995817 0.252355 -0.105319
C59   C     C_R   0.076959 0.016567 0.319240 0.230923
C60   C     C_R   0.042654 0.918829 0.343639 0.183940
C61   C     C_R   0.138144 0.668929 0.337466 -0.012918
C62   C     C_R   0.706222 0.092894 0.893179 0.538575
C63   C     C_R   0.719912 0.682811 0.891405 0.524558
C64   C     C_R   0.123620 0.703925 0.908302 0.524733
C65   C     C_R   0.674280 0.109832 0.102880 0.534063
C66   C     C_R   0.695739 0.690634 0.097530 0.526957
C67   C     C_3   0.547721 0.760947 0.793296 -0.238640
C68   C     C_R   0.086792 0.713109 0.114814 0.543390
C69   C     C_3   0.538747 0.762980 0.711876 -0.271258
C70   C     C_3   0.809657 0.676928 0.769482 0.053127
Cr1   Cr    Cr6+3 0.392940 0.397950 0.502230 1.017933
Cr2   Cr    Cr6+3 0.398400 0.708500 0.501260 1.009986
Cr3   Cr    Cr6+3 0.708640 0.393530 0.496460 0.992286
Cr4   Cr    Cr6+3 0.937880 0.938320 0.007620 1.001717
Cr5   Cr    Cr6+3 0.625560 0.937220 0.994510 1.019037
Cr6   Cr    Cr6+3 0.938080 0.625010 0.001190 0.989688
H1    H     H_    0.504148 0.864815 0.816036 0.188097
H2    H     H_    0.782742 0.410299 0.698268 0.180721
H3    H     H_    0.912387 0.591060 0.785903 0.149231
H4    H     H_    0.522626 0.101637 0.671994 0.113544
H5    H     H_    0.909071 0.170032 0.867653 0.145694
H6    H     H_    0.085788 0.179962 0.796406 0.111028
H7    H     H_    0.919205 0.118005 0.605028 0.133540
H8    H     H_    0.224116 0.835752 0.702457 0.147037
H9    H     H_    0.479876 0.723331 0.815608 0.115232
H10   H     H_    0.261933 0.420994 0.909045 0.124488
H11   H     H_    0.192489 0.858726 0.827103 0.151459
H12   H     H_    0.253802 0.229879 0.851524 0.127385
H13   H     H_    0.265295 0.208973 0.721089 0.144853
H14   H     H_    0.277644 0.372051 0.647705 0.179200
H15   H     H_    0.467178 0.850613 0.315480 0.179868
H16   H     H_    0.793609 0.403918 0.114351 0.122469
H17   H     H_    0.489925 0.883290 0.186510 0.147773
H18   H     H_    0.015566 0.235979 0.161932 0.093090
H19   H     H_    0.084752 0.281120 0.282523 0.199631
H20   H     H_    0.445994 0.760074 0.696236 0.139236
H21   H     H_    0.929897 0.474821 0.354598 0.141429
H22   H     H_    0.820073 0.213482 0.309631 0.193062
H23   H     H_    0.383589 0.260761 0.130541 0.128882
H24   H     H_    0.843742 0.164658 0.181646 0.148481
H25   H     H_    0.230059 0.204112 0.189432 0.086656
H26   H     H_    0.286094 0.096901 0.313620 0.174757
H27   H     H_    0.142177 0.482971 0.190755 0.153452
H28   H     H_    0.529353 0.860479 0.691074 0.105646
H29   H     H_    0.165690 0.069569 0.232728 0.083644
H30   H     H_    0.761049 0.759767 0.660549 0.144435
H31   H     H_    0.831628 0.436855 0.812982 0.138845
H32   H     H_    0.655570 0.491979 0.835588 0.117850
H33   H     H_    0.601967 0.489493 0.717359 0.120080
O1    O     O_R   0.507340 0.255690 0.581430 -0.540485
O2    O     O_R   0.524510 0.695820 0.424050 -0.479297
O3    O     O_R   0.736370 0.504260 0.414810 -0.529478
O4    O     O_R   0.691220 0.277270 0.422180 -0.509248
O5    O     O_3   0.499990 0.499990 0.499980 -0.273952
O6    O     O_R   0.089570 0.825450 0.930590 -0.527498
O7    O     O_R   0.818700 0.054260 0.929860 -0.534273
O8    O     O_R   0.606310 0.077010 0.915520 -0.443449
O9    O     O_R   0.646730 0.806540 0.917560 -0.494586
O10   O     O_R   0.837290 0.593240 0.915240 -0.540748
O11   O     O_R   0.065320 0.635310 0.931580 -0.514507
O12   O     O_R   0.280360 0.527380 0.578910 -0.541681
O13   O     O_R   0.068470 0.828620 0.091850 -0.473918
O14   O     O_R   0.799150 0.057200 0.079350 -0.507390
O15   O     O_R   0.585220 0.080180 0.076770 -0.528995
O16   O     O_R   0.627170 0.809480 0.067050 -0.509368
O17   O     O_R   0.816200 0.596410 0.076500 -0.517412
O18   O     O_R   0.045770 0.638240 0.081070 -0.515549
O19   O     O_3   0.833840 0.833520 0.001110 -0.262060
O20   O     O_R   0.260600 0.739610 0.584580 -0.546667
O21   O     O_R   0.532370 0.695050 0.573830 -0.531142
O22   O     O_R   0.744850 0.503430 0.576380 -0.502652
O23   O     O_R   0.699080 0.276500 0.571950 -0.523532
O24   O     O_R   0.498860 0.256520 0.419860 -0.450607
O25   O     O_R   0.272490 0.528150 0.429140 -0.491604
O26   O     O_R   0.252110 0.740440 0.423010 -0.502916
N1    N     N_2   0.915990 0.549544 0.655563 -0.532001
H34   H     H_    0.984175 0.468953 0.686701 0.262419
C71   C     C_3   0.972983 0.583114 0.594271 -0.283784
H35   H     H_    0.057096 0.486542 0.569760 0.154034
H36   H     H_    0.014186 0.651259 0.610708 0.151872
H37   H     H_    0.892413 0.636745 0.553450 0.148871
O27   O     O_3   0.513474 0.068261 0.806275 -0.681345
H38   H     H_    0.459683 0.051685 0.769762 0.287672
N2    N     N_2   0.100037 0.180083 0.652751 -0.561039
H39   H     H_    0.048950 0.250312 0.612930 0.264389
C72   C     C_3   0.220687 0.058669 0.625036 -0.321234
H40   H     H_    0.284638 0.090466 0.593414 0.146588
H41   H     H_    0.190209 0.997977 0.589785 0.176533
H42   H     H_    0.283743 0.995109 0.669813 0.133113
O28   O     O_3   0.502023 0.031506 0.383486 -0.701302
H43   H     H_    0.601481 0.992429 0.392604 0.305964
O29   O     O_3   0.185085 0.429155 0.325876 -0.698973
H44   H     H_    0.142617 0.447332 0.374193 0.328281
N3    N     N_2   0.253694 0.862993 0.144594 -0.481021
H45   H     H_    0.272368 0.942195 0.131659 0.228942
C73   C     C_3   0.362019 0.725467 0.123181 -0.271047
H46   H     H_    0.323470 0.672981 0.087666 0.151142
H47   H     H_    0.411405 0.659967 0.170360 0.147253
H48   H     H_    0.438731 0.734378 0.089524 0.131667
O30   O     O_3   0.055872 0.129370 0.360186 -0.756070
H49   H     H_    0.997605 0.140827 0.402523 0.340388
N4    N     N_2   0.973566 0.938851 0.411251 -0.521097
H50   H     H_    0.018728 0.954006 0.455724 0.261219
C74   C     C_3   0.885972 0.879172 0.423595 -0.315130
H51   H     H_    0.944567 0.778469 0.450836 0.130562
H52   H     H_    0.844140 0.864453 0.372627 0.141463
H53   H     H_    0.798794 0.949585 0.459177 0.139790
N5    N     N_2   0.810860 0.805019 0.783679 -0.508360
H54   H     H_    0.814812 0.824844 0.837107 0.287393
C75   C     C_3   0.916000 0.817890 0.744524 -0.313523
H55   H     H_    0.950892 0.878890 0.775950 0.166244
H56   H     H_    0.876054 0.868680 0.692737 0.149424
H57   H     H_    0.005831 0.715316 0.733856 0.165589

loop_
_geom_bond_atom_site_label_1
_geom_bond_atom_site_label_2
_ccdc_geom_bond_type
C5    N1    S    
C46   H23   S    
Cr3   O22   S    
C8    C13   A    
C47   H25   S    
C12   O22   A    
C55   H27   S    
Cr6   O17   S    
C41   C42   A    
C35   C36   A    
C67   H1    S    
C43   H22   S    
C69   H20   S    
Cr1   O25   S    
C56   O24   A    
C45   O3    A    
C7    C8    A    
C26   H13   S    
C7    C11   A    
C26   C27   A    
Cr6   O11   S    
C12   O21   A    
C49   O28   S    
C74   H51   S    
C9    C16   A    
C18   C19   A    
C1    O20   A    
C30   C31   A    
C32   C39   A    
C32   H15   S    
C75   H55   S    
C34   O25   A    
C10   C17   A    
C15   C16   A    
Cr1   O1    S    
C13   H5    S    
C2    H31   S    
Cr2   O5    S    
Cr3   O4    S    
C37   H19   S    
C27   H14   S    
Cr5   O19   S    
C25   H12   S    
C65   O15   A    
C62   O8    A    
C54   C55   A    
C53   C61   A    
C73   H47   S    
Cr4   O19   S    
C19   C20   A    
C29   C33   A    
C8    C9    A    
Cr5   O8    S    
C1    C28   S    
C60   N4    S    
C56   O4    A    
C4    C12   S    
N3    C73   S    
C39   C45   S    
C35   H16   S    
N5    C75   S    
Cr4   O14   S    
Cr2   O2    S    
Cr4   O7    S    
C59   C60   A    
C64   O6    A    
C21   C22   A    
C2    C6    S    
Cr5   O9    S    
C38   H21   S    
C4    C69   S    
C53   C60   A    
C54   C61   A    
C72   H41   S    
C5    H30   S    
C73   H48   S    
C67   H9    S    
Cr6   O10   S    
Cr5   O15   S    
Cr2   O20   S    
C3    C70   S    
C24   C25   A    
C4    C6    S    
C10   C11   A    
C68   O13   A    
C63   O9    A    
C10   H4    S    
C4    C5    S    
Cr2   O26   S    
C54   O29   S    
C20   C28   A    
C25   C26   A    
C71   H37   S    
C16   H7    S    
C50   C56   S    
Cr3   O5    S    
C66   O17   A    
Cr1   O5    S    
C33   H17   S    
C67   C69   S    
C73   H46   S    
C37   C38   A    
C43   C44   A    
C7    C62   S    
C62   O7    A    
C29   C30   A    
C70   N5    S    
C72   H42   S    
C63   O10   A    
C59   O30   S    
C47   C48   A    
C14   C15   A    
C21   H8    S    
C41   C46   A    
C48   H26   S    
C17   C23   S    
C22   H11   S    
C68   O18   A    
N3    H45   S    
C71   H36   S    
C42   C50   A    
C30   C35   A    
N1    C71   S    
C40   C41   A    
Cr4   O13   S    
C21   C28   A    
C40   C65   S    
Cr6   O19   S    
C6    H33   S    
C14   H6    S    
C52   C53   A    
Cr3   O3    S    
C72   H40   S    
C69   H28   S    
C9    C17   A    
C23   O1    A    
C46   C47   A    
N5    H54   S    
C70   H3    S    
C18   C22   A    
Cr1   O12   S    
C74   H53   S    
C3    C67   S    
N2    H39   S    
C5    C70   S    
N2    C72   S    
Cr1   O24   S    
C45   O2    A    
C43   C50   A    
Cr2   O21   S    
C20   C27   A    
C3    C63   S    
N4    H50   S    
C57   N3    S    
C64   O11   A    
C66   O16   A    
C58   H29   S    
C32   C33   A    
C31   C38   A    
C74   H52   S    
C19   C24   A    
C58   C59   A    
C51   C52   A    
N4    C74   S    
O30   H49   S    
C44   H24   S    
C18   C64   S    
C57   C58   A    
C75   H56   S    
C34   O26   A    
C48   C49   A    
Cr4   O6    S    
C2    H32   S    
C31   C39   A    
C23   O23   A    
C2    C3    S    
C51   C55   A    
C51   C68   S    
C65   O14   A    
C11   O27   S    
C1    O12   A    
Cr3   O23   S    
C6    H2    S    
C52   C57   A    
C42   C49   A    
C29   C66   S    
C36   H18   S    
C40   C44   A    
O29   H44   S    
C36   C37   A    
C15   N2    S    
C34   C61   S    
Cr6   O18   S    
O27   H38   S    
N1    H34   S    
Cr5   O16   S    
C13   C14   A    
C24   H10   S    
C71   H35   S    
O28   H43   S    
C75   H57   S    
