data_mof_unit_42064.cif
_audit_creation_date              2012-12-10T17:27:06-0500
_audit_creation_method            fapswitch 2.2
_symmetry_space_group_name_H-M    P1
_symmetry_Int_Tables_number       1
_space_group_crystal_system       triclinic
_cell_length_a                    18.321807
_cell_length_b                    18.35237
_cell_length_c                    11.973237
_cell_angle_alpha                 89.992862
_cell_angle_beta                  88.524104
_cell_angle_gamma                 90.010013
_cell_volume                      4024.64823361

loop_
_atom_site_label
_atom_site_type_symbol
_atom_type_description
_atom_site_fract_x
_atom_site_fract_y
_atom_site_fract_z
_atom_type_partial_charge
C1    C     C_R   0.404334 0.104304 0.518802 1.001746
C2    C     C_R   0.535235 0.000940 0.023073 -0.129760
C3    C     C_R   0.964765 0.500952 0.976931 -0.129741
C4    C     C_R   0.035237 0.501039 0.023079 -0.127868
C5    C     C_R   0.586564 0.006274 0.833853 0.086118
C6    C     C_R   0.413459 0.006565 0.166154 0.086695
C7    C     C_R   0.086530 0.506533 0.833876 0.090928
C8    C     C_R   0.913442 0.506314 0.166146 0.086141
C9    C     C_R   0.596964 0.005060 0.949717 0.386002
C10   C     C_R   0.403052 0.005404 0.050291 0.386070
C11   C     C_R   0.096945 0.505295 0.949706 0.379000
C12   C     C_R   0.602884 0.902555 0.479297 0.946423
C13   C     C_R   0.903040 0.505112 0.050284 0.386075
C14   C     C_R   0.458788 0.998559 0.858906 -0.006026
C15   C     C_R   0.541203 0.998341 0.141093 -0.005738
C16   C     C_R   0.958794 0.498363 0.858907 -0.006497
C17   C     C_R   0.041215 0.498528 0.141096 -0.005781
C18   C     C_R   0.642476 0.167544 0.473638 -0.171871
C19   C     C_R   0.334826 0.854200 0.533551 -0.185604
C20   C     C_R   0.357278 0.167284 0.526488 -0.171789
C21   C     C_R   0.665075 0.854094 0.466451 -0.184842
C22   C     C_R   0.142449 0.667570 0.473594 -0.175079
C23   C     C_R   0.595627 0.104355 0.481210 1.000622
C24   C     C_R   0.834883 0.354138 0.533579 -0.186009
C25   C     C_R   0.857509 0.667529 0.526339 -0.172618
C26   C     C_R   0.165098 0.354105 0.466630 -0.204251
C27   C     C_R   0.263883 0.773028 0.651504 -0.056580
C28   C     C_R   0.714564 0.247812 0.356749 -0.061095
C29   C     C_R   0.735764 0.772716 0.348544 -0.064979
C30   C     C_R   0.284304 0.246581 0.643542 -0.061234
C31   C     C_R   0.764121 0.272789 0.651495 -0.064573
C32   C     C_R   0.214629 0.747755 0.356680 -0.060642
C33   C     C_R   0.236485 0.273480 0.348464 -0.067304
C34   C     C_R   0.397094 0.902579 0.520709 0.946395
C35   C     C_R   0.785456 0.747785 0.643244 -0.061068
C36   C     C_R   0.322106 0.820207 0.637158 -0.228560
C37   C     C_R   0.668218 0.189059 0.367516 -0.205398
C38   C     C_R   0.677607 0.819950 0.362929 -0.227583
C39   C     C_R   0.330873 0.188069 0.632567 -0.208699
C40   C     C_R   0.822302 0.320016 0.637123 -0.226650
C41   C     C_R   0.168273 0.689007 0.367475 -0.215089
C42   C     C_R   0.178269 0.320653 0.362741 -0.217827
C43   C     C_R   0.831813 0.689056 0.632468 -0.204655
C44   C     C_R   0.288074 0.840269 0.444248 0.397003
C45   C     C_R   0.904374 0.604356 0.518780 1.001795
C46   C     C_R   0.663959 0.205770 0.570194 0.388233
C47   C     C_R   0.711923 0.840220 0.555654 0.397105
C48   C     C_R   0.336192 0.205940 0.430107 0.386053
C49   C     C_R   0.788054 0.340267 0.444359 0.397019
C50   C     C_R   0.163826 0.705900 0.570109 0.405999
C51   C     C_R   0.211351 0.339571 0.556349 0.336664
C52   C     C_R   0.835964 0.705728 0.429778 0.388149
C53   C     C_R   0.242154 0.780350 0.452387 -0.024771
C54   C     C_R   0.723313 0.252673 0.559129 -0.021389
C55   C     C_R   0.757798 0.780275 0.547542 -0.022201
C56   C     C_R   0.102889 0.402557 0.479327 0.920676
C57   C     C_R   0.276784 0.252782 0.441072 -0.022180
C58   C     C_R   0.742175 0.280318 0.452464 -0.021912
C59   C     C_R   0.223178 0.752812 0.559078 -0.025358
C60   C     C_R   0.257297 0.279723 0.547920 -0.004231
C61   C     C_R   0.776612 0.752618 0.440879 -0.021147
C62   C     C_R   0.095622 0.604361 0.481203 0.977361
C63   C     C_R   0.897106 0.402566 0.520713 0.949075
C64   C     C_R   0.464765 0.001083 0.976929 -0.129584
H1    H     H_    0.367596 0.013817 0.222402 0.241362
H2    H     H_    0.356061 0.831194 0.707974 0.206592
H3    H     H_    0.347211 0.160077 0.707582 0.214551
H4    H     H_    0.643557 0.830863 0.292195 0.206257
H5    H     H_    0.151614 0.661370 0.292336 0.214641
H6    H     H_    0.856334 0.330938 0.707875 0.206471
H7    H     H_    0.848587 0.661517 0.707631 0.213194
H8    H     H_    0.144689 0.332071 0.291659 0.206687
H9    H     H_    0.754330 0.248776 0.733089 0.219853
H10   H     H_    0.232248 0.764534 0.273579 0.220475
H11   H     H_    0.246692 0.249971 0.266641 0.220128
H12   H     H_    0.632449 0.013364 0.777606 0.241612
H13   H     H_    0.767957 0.764641 0.726353 0.220202
H14   H     H_    0.253990 0.749115 0.733143 0.221369
H15   H     H_    0.732097 0.264670 0.273647 0.220285
H16   H     H_    0.745510 0.748691 0.266959 0.219746
H17   H     H_    0.266151 0.262754 0.726667 0.220289
H18   H     H_    0.498267 0.187095 0.747734 0.387554
H19   H     H_    0.254661 0.021939 0.344707 0.399082
H20   H     H_    0.502567 0.188177 0.253894 0.387597
H21   H     H_    0.745126 0.021999 0.655342 0.399042
H22   H     H_    0.997960 0.687404 0.747297 0.386462
H23   H     H_    0.867564 0.513425 0.222390 0.241759
H24   H     H_    0.754891 0.522051 0.344664 0.398915
H25   H     H_    0.001484 0.686850 0.251947 0.387398
H26   H     H_    0.245774 0.494816 0.553781 0.349770
H27   H     H_    0.795809 0.022610 0.925674 0.408317
H28   H     H_    0.204320 0.024571 0.074154 0.407958
H29   H     H_    0.295687 0.523859 0.925270 0.405923
H30   H     H_    0.704241 0.523431 0.074179 0.407866
H31   H     H_    0.132420 0.513768 0.777711 0.263446
H32   H     H_    0.593738 0.995937 0.179665 0.206143
H33   H     H_    0.406243 0.996377 0.820331 0.206041
H34   H     H_    0.093767 0.496345 0.179655 0.204267
H35   H     H_    0.906257 0.495990 0.820335 0.206276
H36   H     H_    0.651487 0.161494 0.292357 0.213159
N1    N     N_R   0.480750 1.000000 0.209750 -0.161142
N2    N     N_R   0.519250 0.000000 0.790250 -0.161291
N3    N     N_R   0.980750 0.500000 0.209750 -0.160901
N4    N     N_R   0.019250 0.500000 0.790250 -0.163315
O1    O     O_R   0.418020 0.076820 0.422210 -0.557218
O2    O     O_R   0.569630 0.923170 0.391410 -0.643859
O3    O     O_R   0.569630 0.076830 0.391410 -0.630701
O4    O     O_R   0.430370 0.923170 0.608590 -0.643699
O5    O     O_R   0.930370 0.576830 0.608590 -0.630614
O6    O     O_R   0.069630 0.423170 0.391410 -0.641465
O7    O     O_R   0.069630 0.576830 0.391410 -0.632045
O8    O     O_R   0.930370 0.423170 0.608590 -0.642627
O9    O     O_2   0.638418 0.154476 0.777381 -0.317694
O10   O     O_2   0.615585 0.284033 0.747787 -0.231299
O11   O     O_3   0.521464 0.193351 0.672693 -0.529012
O12   O     O_R   0.581980 0.923180 0.577790 -0.561364
O13   O     O_2   0.320682 0.887237 0.238505 -0.295941
O14   O     O_2   0.193736 0.901038 0.302938 -0.251200
O15   O     O_3   0.288172 0.989612 0.385327 -0.576206
O16   O     O_2   0.362530 0.155234 0.222784 -0.316282
O17   O     O_2   0.385232 0.284730 0.253387 -0.235800
O18   O     O_3   0.479022 0.193859 0.328797 -0.529791
O19   O     O_2   0.679659 0.887171 0.761456 -0.295935
O20   O     O_2   0.806476 0.901135 0.696459 -0.252032
O21   O     O_3   0.711817 0.989596 0.614468 -0.576163
O22   O     O_2   0.138098 0.654874 0.777415 -0.302787
O23   O     O_R   0.581980 0.076820 0.577790 -0.557229
O24   O     O_2   0.115189 0.784364 0.747315 -0.235118
O25   O     O_3   0.021245 0.693479 0.672282 -0.530293
O26   O     O_2   0.820314 0.387236 0.238544 -0.295412
O27   O     O_2   0.693508 0.401186 0.303569 -0.252769
O28   O     O_3   0.788201 0.489647 0.385524 -0.576710
O29   O     O_2   0.861319 0.654424 0.222583 -0.318267
O30   O     O_2   0.884256 0.783973 0.252073 -0.230765
O31   O     O_3   0.978387 0.693275 0.327019 -0.526855
O32   O     O_2   0.176231 0.385228 0.761540 -0.281081
O33   O     O_2   0.304063 0.399063 0.702816 -0.234785
O34   O     O_R   0.418020 0.923180 0.422210 -0.561421
O35   O     O_3   0.211904 0.488688 0.618919 -0.543075
O36   O     O_2   0.691975 0.076115 0.076381 -0.301692
O37   O     O_2   0.705736 0.943587 0.060491 -0.272027
O38   O     O_3   0.747192 0.023668 0.891418 -0.498211
O39   O     O_2   0.308295 0.076908 0.923824 -0.303063
O40   O     O_2   0.294076 0.944397 0.939333 -0.271325
O41   O     O_3   0.252882 0.024355 0.108626 -0.498511
O42   O     O_2   0.192058 0.576651 0.075748 -0.308519
O43   O     O_2   0.205799 0.444075 0.060663 -0.278216
O44   O     O_3   0.247082 0.523682 0.890931 -0.453228
O45   O     O_R   0.918020 0.576820 0.422210 -0.556570
O46   O     O_2   0.808119 0.576272 0.923637 -0.302443
O47   O     O_2   0.794201 0.443748 0.939479 -0.271560
O48   O     O_3   0.752827 0.523803 0.108570 -0.498195
O49   O     O_R   0.081980 0.423180 0.577790 -0.558540
O50   O     O_R   0.081980 0.576820 0.577790 -0.553275
O51   O     O_R   0.918020 0.423180 0.422210 -0.560221
O52   O     O_R   0.430370 0.076830 0.608590 -0.631081
S1    S     S_3+6 0.609998 0.209484 0.696595 0.056845
S2    S     S_3+6 0.312894 0.012773 0.001443 0.066852
S3    S     S_3+6 0.187161 0.512433 0.998367 0.069868
S4    S     S_3+6 0.812865 0.512235 0.001418 0.067058
S5    S     S_3+6 0.272012 0.905014 0.337538 0.045840
S6    S     S_3+6 0.390608 0.210038 0.304177 0.055261
S7    S     S_3+6 0.728126 0.905015 0.662210 0.045380
S8    S     S_3+6 0.109727 0.709735 0.696360 0.063114
S9    S     S_3+6 0.771863 0.405071 0.337798 0.045118
S10   S     S_3+6 0.889840 0.709424 0.303289 0.057320
S11   S     S_3+6 0.226613 0.403426 0.664677 0.052418
S12   S     S_3+6 0.687148 0.012109 0.998576 0.067133
Zn1   Zn    Zn3+2 0.491750 0.000000 0.375560 1.047455
Zn2   Zn    Zn3+2 0.508250 1.000000 0.624440 1.047259
Zn3   Zn    Zn3+2 0.991750 0.500000 0.375560 1.044054
Zn4   Zn    Zn3+2 0.008250 0.500000 0.624440 1.050010

loop_
_geom_bond_atom_site_label_1
_geom_bond_atom_site_label_2
_ccdc_geom_bond_type
N2    Zn2   S    
O48   S4    S    
O14   S5    D    
O36   S12   D    
C8    C13   A    
H25   O31   S    
O4    Zn2   S    
C51   S11   S    
C27   H14   S    
O43   S3    D    
O15   S5    S    
H26   O35   S    
C53   C59   A    
C11   S3    S    
C48   C57   A    
O23   Zn2   S    
C7    C11   A    
O1    Zn1   S    
O11   S1    S    
C50   C59   A    
C41   H5    S    
C18   C37   A    
H18   O11   S    
C52   C61   A    
C32   H10   S    
C45   O5    A    
C31   H9    S    
C22   C41   A    
C48   S6    S    
H30   O48   S    
C55   C61   A    
O24   S8    D    
C31   C40   A    
H29   O44   S    
C6    N1    A    
H19   O15   S    
C63   O8    A    
C28   H15   S    
C52   S10   S    
H21   O21   S    
C44   C53   A    
C16   N4    A    
C6    H1    S    
C21   C38   A    
C1    C20   S    
C30   C60   A    
C29   C38   A    
C43   H7    S    
C32   C41   A    
O30   S10   D    
N1    Zn1   S    
C35   C43   A    
C17   H34   S    
C10   S2    S    
C13   S4    S    
O7    Zn3   S    
C3    C13   A    
O5    Zn4   S    
O16   S6    D    
N4    Zn4   S    
H27   O38   S    
C47   S7    S    
O6    Zn3   S    
C47   C55   A    
C14   C64   A    
O34   Zn1   S    
N3    Zn3   S    
C25   C43   A    
O21   S7    S    
O22   S8    D    
C18   C46   A    
C56   O6    A    
C2    C64   A    
C29   C61   A    
C62   O7    A    
C35   C55   A    
C18   C23   S    
O28   S9    S    
C45   O45   A    
C15   H32   S    
C20   C39   A    
C57   C60   A    
O42   S3    D    
O13   S5    D    
C46   S1    S    
C50   S8    S    
C12   C21   S    
C34   O34   A    
C49   C58   A    
C62   O50   A    
O25   S8    S    
O44   S3    S    
C1    O52   A    
O10   S1    D    
C5    C9    A    
C22   C62   S    
O19   S7    D    
C23   O3    A    
C46   C54   A    
C42   H8    S    
O50   Zn4   S    
C16   H35   S    
C15   N1    A    
C4    C11   A    
O35   S11   S    
C2    C15   A    
C20   C48   A    
O46   S4    D    
C4    C17   A    
C38   H4    S    
C49   S9    S    
C24   C63   S    
C7    N4    A    
O2    Zn1   S    
C33   H11   S    
C44   S5    S    
H24   O28   S    
O40   S2    D    
C3    C4    A    
C25   C45   S    
C32   C53   A    
O33   S11   D    
C19   C44   A    
C26   C42   A    
C14   H33   S    
C23   O23   A    
C54   C58   A    
O39   S2    D    
C33   C42   A    
C5    N2    A    
O37   S12   D    
C33   C57   A    
H28   O41   S    
O45   Zn3   S    
C39   H3    S    
C9    S12   S    
C10   C64   A    
C56   O49   A    
C19   C34   S    
C26   C56   S    
C6    C10   A    
H22   O25   S    
O32   S11   D    
C28   C58   A    
C27   C36   A    
C7    H31   S    
C40   H6    S    
O18   S6    S    
C22   C50   A    
C19   C36   A    
C8    H23   S    
C34   O4    A    
O47   S4    D    
O20   S7    D    
C5    H12   S    
C17   N3    A    
C25   C52   A    
C63   O51   A    
C27   C59   A    
O29   S10   D    
C12   O2    A    
O41   S2    S    
O26   S9    D    
O3    Zn1   S    
O8    Zn4   S    
C29   H16   S    
C28   C37   A    
C30   H17   S    
O17   S6    D    
C24   C49   A    
O49   Zn4   S    
O52   Zn2   S    
C24   C40   A    
O31   S10   S    
C35   H13   S    
C30   C39   A    
C36   H2    S    
C31   C54   A    
C8    N3    A    
C21   C47   A    
C14   N2    A    
O38   S12   S    
O51   Zn3   S    
O27   S9    D    
C51   C60   A    
O9    S1    D    
C26   C51   A    
C2    C9    A    
H20   O18   S    
C37   H36   S    
C3    C16   A    
O12   Zn2   S    
C1    O1    A    
C12   O12   A    
