data_mof_unit_65782.cif
_audit_creation_date              2012-12-10T18:06:56-0500
_audit_creation_method            fapswitch 2.2
_symmetry_space_group_name_H-M    P1
_symmetry_Int_Tables_number       1
_space_group_crystal_system       triclinic
_cell_length_a                    28.462996
_cell_length_b                    18.369937
_cell_length_c                    21.762079
_cell_angle_alpha                 90.265145
_cell_angle_beta                  139.79915
_cell_angle_gamma                 89.878992
_cell_volume                      7344.43443277

loop_
_atom_site_label
_atom_site_type_symbol
_atom_type_description
_atom_site_fract_x
_atom_site_fract_y
_atom_site_fract_z
_atom_type_partial_charge
C1    C     C_R   0.860097 0.499930 0.860044 0.838460
C2    C     C_R   0.139903 0.500070 0.139956 0.838460
C3    C     C_R   0.360097 0.999930 0.860044 0.838460
C4    C     C_R   0.639903 0.000070 0.139956 0.838460
C5    C     C_R   0.035833 0.548680 0.818500 -0.259198
C6    C     C_R   0.964163 0.451322 0.181496 -0.259201
C7    C     C_R   0.535834 0.048680 0.818501 -0.259200
C8    C     C_R   0.464162 0.951323 0.181495 -0.259198
C9    C     C_R   0.040008 0.547185 0.758963 0.233853
C10   C     C_R   0.959989 0.452818 0.241034 0.233854
C11   C     C_R   0.540008 0.047184 0.758963 0.233853
C12   C     C_R   0.459988 0.952819 0.241033 0.233854
C13   C     C_R   0.999551 0.495115 0.685347 -0.139727
C14   C     C_R   0.000448 0.504885 0.314653 -0.139729
C15   C     C_R   0.499551 0.995115 0.685347 -0.139726
C16   C     C_R   0.500448 0.004886 0.314653 -0.139731
C17   C     C_1   0.782559 0.499805 0.782455 -0.178961
C18   C     C_1   0.217441 0.500195 0.217545 -0.178961
C19   C     C_1   0.282559 0.999805 0.782455 -0.178961
C20   C     C_1   0.717441 0.000195 0.217545 -0.178961
C21   C     C_1   0.717261 0.499830 0.717165 -0.170808
C22   C     C_1   0.282739 0.500170 0.282835 -0.170807
C23   C     C_1   0.217261 0.999830 0.717165 -0.170808
C24   C     C_1   0.782739 0.000169 0.282835 -0.170807
C25   C     C_R   0.000072 0.639920 0.499989 0.841068
C26   C     C_R   0.999928 0.360080 0.500011 0.841067
C27   C     C_R   0.500072 0.139920 0.499989 0.841068
C28   C     C_R   0.499928 0.860080 0.500011 0.841066
C29   C     C_R   0.999998 0.498294 0.618875 0.828422
C30   C     C_R   0.000002 0.501706 0.381125 0.828419
C31   C     C_R   0.499998 0.998294 0.618875 0.828422
C32   C     C_R   0.500002 0.001706 0.381125 0.828418
C33   C     C_R   0.499929 0.639715 0.500045 0.837257
C34   C     C_R   0.500071 0.360285 0.499955 0.837257
C35   C     C_R   0.999929 0.139715 0.500045 0.837257
C36   C     C_R   0.000071 0.860285 0.499955 0.837257
C37   C     C_R   0.639714 0.499937 0.639696 0.837197
C38   C     C_R   0.360286 0.500063 0.360304 0.837198
C39   C     C_R   0.139714 0.999937 0.639696 0.837197
C40   C     C_R   0.860286 0.000063 0.360304 0.837198
C41   C     C_1   0.000206 0.717447 0.499936 -0.175751
C42   C     C_1   0.999794 0.282553 0.500064 -0.175751
C43   C     C_1   0.500206 0.217447 0.499936 -0.175751
C44   C     C_1   0.499794 0.782553 0.500064 -0.175751
C45   C     C_R   0.996299 0.499753 0.877446 0.804968
C46   C     C_R   0.003700 0.500247 0.122554 0.804967
C47   C     C_R   0.496299 0.999753 0.877446 0.804968
C48   C     C_R   0.503700 0.000247 0.122553 0.804968
C49   C     C_1   0.500183 0.282742 0.499864 -0.171314
C50   C     C_1   0.499816 0.717258 0.500136 -0.171314
C51   C     C_1   0.000183 0.782742 0.499864 -0.171314
C52   C     C_1   0.999816 0.217258 0.500136 -0.171314
C53   C     C_R   0.899464 0.400925 0.711304 -0.150767
C54   C     C_R   0.100540 0.599070 0.288700 -0.150768
C55   C     C_R   0.399463 0.900926 0.711302 -0.150768
C56   C     C_R   0.600542 0.099069 0.288701 -0.150768
C57   C     C_R   0.860854 0.348099 0.640012 -0.140242
C58   C     C_R   0.139154 0.651894 0.359995 -0.140240
C59   C     C_R   0.360852 0.848101 0.640010 -0.140241
C60   C     C_R   0.639156 0.151893 0.359996 -0.140239
C61   C     C_R   0.870854 0.340732 0.586989 -0.130987
C62   C     C_R   0.129154 0.659261 0.413018 -0.130988
C63   C     C_R   0.370852 0.840734 0.586987 -0.130988
C64   C     C_R   0.629156 0.159260 0.413020 -0.130989
C65   C     C_R   0.917507 0.387879 0.602596 -0.149572
C66   C     C_R   0.082498 0.612118 0.397409 -0.149571
C67   C     C_R   0.417506 0.887880 0.602595 -0.149572
C68   C     C_R   0.582500 0.112117 0.397410 -0.149571
C69   C     C_R   0.955387 0.443658 0.672307 0.041940
C70   C     C_R   0.044616 0.556340 0.327695 0.041941
C71   C     C_R   0.455386 0.943659 0.672307 0.041940
C72   C     C_R   0.544616 0.056339 0.327696 0.041941
C73   C     C_R   0.949390 0.447538 0.731116 0.096079
C74   C     C_R   0.050612 0.552460 0.268886 0.096078
C75   C     C_R   0.449389 0.947539 0.731115 0.096079
C76   C     C_R   0.550613 0.052459 0.268887 0.096077
C77   C     C_R   0.992355 0.498918 0.806611 -0.139138
C78   C     C_R   0.007644 0.501082 0.193389 -0.139135
C79   C     C_R   0.492355 0.998918 0.806611 -0.139137
C80   C     C_R   0.507644 0.001082 0.193389 -0.139135
Cu1   Cu    Cu3+1 1.000000 0.427490 0.000000 0.953642
Cu2   Cu    Cu3+1 1.000000 0.572510 0.000000 0.953643
Cu3   Cu    Cu3+1 0.500000 0.927490 0.000000 0.953643
Cu4   Cu    Cu3+1 0.500000 0.072510 0.000000 0.953643
Cu5   Cu    Cu3+1 0.072520 0.500000 0.572540 0.960231
Cu6   Cu    Cu3+1 0.927480 0.500000 0.427460 0.960233
Cu7   Cu    Cu3+1 0.572520 0.000000 0.572540 0.960231
Cu8   Cu    Cu3+1 0.427480 1.000000 0.427460 0.960233
Cu9   Cu    Cu3+1 0.500000 0.500000 0.438200 0.964327
Cu10  Cu    Cu3+1 0.500000 0.500000 0.561800 0.964327
Cu11  Cu    Cu3+1 0.000000 0.000000 0.438200 0.964327
Cu12  Cu    Cu3+1 0.000000 1.000000 0.561800 0.964326
H1    H     H_    0.923917 0.379497 0.560110 0.140380
H2    H     H_    0.076089 0.620500 0.439895 0.140382
H3    H     H_    0.423916 0.879498 0.560109 0.140380
H4    H     H_    0.576090 0.120499 0.439896 0.140383
O1    O     O_R   0.894200 0.438770 0.894190 -0.593755
O2    O     O_R   0.105800 0.561230 0.105810 -0.593755
O3    O     O_R   0.105800 0.438770 0.105810 -0.575790
O4    O     O_R   0.894200 0.561230 0.894190 -0.575790
O5    O     O_R   0.394200 0.938770 0.894190 -0.593755
O6    O     O_R   0.605800 0.061230 0.105810 -0.593755
O7    O     O_R   0.605800 0.938770 0.105810 -0.575790
O8    O     O_R   0.394200 0.061230 0.894190 -0.575790
O9    O     O_R   0.999990 0.438770 0.909810 -0.590538
O10   O     O_R   0.000010 0.561230 0.090190 -0.590537
O11   O     O_R   0.000010 0.438770 0.090190 -0.585083
O12   O     O_R   0.999990 0.561230 0.909810 -0.585084
O13   O     O_R   0.499990 0.938770 0.909810 -0.590538
O14   O     O_R   0.500010 0.061230 0.090190 -0.590537
O15   O     O_R   0.500010 0.938770 0.090190 -0.585083
O16   O     O_R   0.499990 0.061230 0.909810 -0.585084
O17   O     O_R   0.061240 0.605830 0.561270 -0.586462
O18   O     O_R   0.938760 0.394170 0.438730 -0.586461
O19   O     O_R   0.938760 0.605830 0.438730 -0.581904
O20   O     O_R   0.061240 0.394170 0.561270 -0.581905
O21   O     O_R   0.561240 0.105830 0.561270 -0.586461
O22   O     O_R   0.438760 0.894170 0.438730 -0.586461
O23   O     O_R   0.438760 0.105830 0.438730 -0.581905
O24   O     O_R   0.561240 0.894170 0.561270 -0.581905
O25   O     O_R   0.061260 0.500000 0.651450 -0.566475
O26   O     O_R   0.938740 0.500000 0.348550 -0.566474
O27   O     O_R   0.561260 1.000000 0.651450 -0.566475
O28   O     O_R   0.438740 1.000000 0.348550 -0.566471
O29   O     O_R   0.938780 0.500000 0.528960 -0.597146
O30   O     O_R   0.061220 0.500000 0.471040 -0.597147
O31   O     O_R   0.438780 1.000000 0.528960 -0.597146
O32   O     O_R   0.561220 1.000000 0.471040 -0.597148
O33   O     O_R   0.500010 0.605810 0.447830 -0.582054
O34   O     O_R   0.499990 0.394190 0.552170 -0.582054
O35   O     O_R   0.499990 0.605810 0.552170 -0.584244
O36   O     O_R   0.500010 0.394190 0.447830 -0.584244
O37   O     O_R   0.000010 0.105810 0.447830 -0.582054
O38   O     O_R   0.999990 0.894190 0.552170 -0.582054
O39   O     O_R   0.999990 0.105810 0.552170 -0.584244
O40   O     O_R   0.000010 0.894190 0.447830 -0.584244
O41   O     O_R   0.605800 0.500000 0.553630 -0.583412
O42   O     O_R   0.394200 0.500000 0.446370 -0.583412
O43   O     O_R   0.105800 1.000000 0.553630 -0.583412
O44   O     O_R   0.894200 1.000000 0.446370 -0.583412
O45   O     O_R   0.605820 0.500000 0.658030 -0.582948
O46   O     O_R   0.394180 0.500000 0.341970 -0.582949
O47   O     O_R   0.105820 0.000000 0.658030 -0.582948
O48   O     O_R   0.894180 0.000000 0.341970 -0.582949
H5    H     H_    0.068161 0.588318 0.875913 0.162869
H6    H     H_    0.931833 0.411686 0.124081 0.162867
H7    H     H_    0.568162 0.088317 0.875914 0.162869
H8    H     H_    0.431831 0.911687 0.124079 0.162866
H9    H     H_    0.888523 0.405426 0.749014 0.147088
H10   H     H_    0.111481 0.594568 0.250989 0.147086
H11   H     H_    0.388522 0.905428 0.749013 0.147087
H12   H     H_    0.611482 0.094567 0.250990 0.147085
H13   H     H_    0.823277 0.312483 0.626189 0.132018
H14   H     H_    0.176732 0.687508 0.373819 0.132018
H15   H     H_    0.323274 0.812486 0.626187 0.132018
H16   H     H_    0.676735 0.187506 0.373822 0.132018
H17   H     H_    0.841777 0.298776 0.532841 0.132205
H18   H     H_    0.158233 0.701216 0.467169 0.132204
H19   H     H_    0.341774 0.798779 0.532838 0.132205
H20   H     H_    0.658236 0.201214 0.467172 0.132204
N1    N     N_2   0.083104 0.600153 0.771224 -0.420977
H21   H     H_    0.073446 0.652465 0.776936 0.247716
C81   C     C_3   0.160078 0.583738 0.847013 -0.639679
H22   H     H_    0.182998 0.586126 0.917151 0.207750
H23   H     H_    0.188808 0.624294 0.846782 0.222570
H24   H     H_    0.169648 0.528739 0.836767 0.246895
N2    N     N_2   0.916889 0.399852 0.228769 -0.420975
H25   H     H_    0.926544 0.347540 0.223052 0.247717
C82   C     C_3   0.839917 0.416273 0.152981 -0.639683
H26   H     H_    0.816997 0.413891 0.082843 0.207750
H27   H     H_    0.830351 0.471270 0.163235 0.246899
H28   H     H_    0.811183 0.375716 0.153205 0.222569
N3    N     N_2   0.583105 0.100152 0.771224 -0.420980
H29   H     H_    0.573446 0.152463 0.776937 0.247720
C83   C     C_3   0.660077 0.083737 0.847013 -0.639693
H30   H     H_    0.682997 0.086122 0.917150 0.207753
H31   H     H_    0.688809 0.124295 0.846785 0.222572
H32   H     H_    0.669647 0.028740 0.836764 0.246900
N4    N     N_2   0.416886 0.899854 0.228767 -0.420973
H33   H     H_    0.426540 0.847542 0.223050 0.247715
C84   C     C_3   0.339914 0.916277 0.152978 -0.639677
H34   H     H_    0.316993 0.913889 0.082840 0.207748
H35   H     H_    0.330349 0.971277 0.163229 0.246895
H36   H     H_    0.311180 0.875724 0.153206 0.222570

loop_
_geom_bond_atom_site_label_1
_geom_bond_atom_site_label_2
_ccdc_geom_bond_type
C3    O8    A    
C58   C62   A    
C48   O14   A    
Cu7   Cu8   S    
C30   O30   A    
C56   C76   A    
C29   O29   A    
C2    C18   S    
Cu4   O6    S    
C82   H26   S    
C32   O28   A    
C81   H22   S    
C16   C72   A    
C63   H19   S    
C72   C76   A    
C35   O37   A    
Cu1   O11   S    
N1    H21   S    
C54   H10   S    
C71   C75   A    
Cu5   Cu6   S    
C7    C11   A    
Cu4   O16   S    
Cu9   O36   S    
Cu3   O7    S    
C64   C68   A    
C13   C29   S    
C81   H23   S    
Cu7   O21   S    
Cu8   O31   S    
C55   C59   A    
C25   O19   A    
C6    H6    S    
C23   C39   S    
C6    C78   A    
C44   C50   T    
C47   O16   A    
C22   C38   S    
C4    O7    A    
C46   O10   A    
Cu9   O33   S    
Cu12  O47   S    
C9    C13   A    
C53   C73   A    
C58   H14   S    
Cu10  O42   S    
C54   C74   A    
C11   C15   A    
Cu11  O40   S    
C30   O26   A    
C10   N2    S    
C4    O6    A    
C70   C74   A    
C62   H18   S    
Cu5   O25   S    
C31   O31   A    
C8    C12   A    
C56   H12   S    
C45   O12   A    
Cu8   O28   S    
C66   H2    S    
C55   C75   A    
C33   O35   A    
C65   H1    S    
C34   O36   A    
C67   H3    S    
C37   O41   A    
C9    N1    S    
Cu6   O29   S    
C53   H9    S    
Cu2   O2    S    
Cu5   O30   S    
C8    H8    S    
C14   C30   S    
C36   O40   A    
C1    O4    A    
Cu7   O32   S    
N1    C81   S    
C45   O9    A    
Cu1   Cu2   S    
C83   H32   S    
C7    H7    S    
C27   O21   A    
Cu1   O9    S    
C11   N3    S    
C5    H5    S    
C62   C66   A    
C12   C16   A    
C81   H24   S    
C83   H31   S    
C28   O24   A    
C84   H35   S    
C25   C41   S    
N2    H25   S    
C46   C78   S    
C59   H15   S    
C43   C49   T    
C35   O39   A    
Cu1   O3    S    
C33   C50   S    
C84   H34   S    
C48   C80   S    
C57   H13   S    
C15   C31   S    
C28   C44   S    
Cu4   O14   S    
C56   C60   A    
N2    C82   S    
C29   O25   A    
Cu6   O19   S    
Cu10  O34   S    
C19   C23   T    
C26   O18   A    
C63   C67   A    
C5    C9    A    
C61   H17   S    
Cu3   Cu4   S    
Cu11  O37   S    
C1    O1    A    
C68   C72   A    
C46   O11   A    
C64   H20   S    
Cu3   O13   S    
C38   O42   A    
C68   H4    S    
Cu8   O23   S    
C69   C73   A    
C36   C51   S    
C34   O34   A    
N3    C83   S    
C37   O45   A    
Cu11  O43   S    
C25   O17   A    
C39   O47   A    
C2    O3    A    
Cu2   O12   S    
C40   O48   A    
C10   C14   A    
Cu4   O8    S    
C82   H28   S    
Cu3   O15   S    
C59   C63   A    
Cu12  O39   S    
C75   C79   A    
Cu10  O35   S    
C5    C77   A    
Cu12  O44   S    
Cu11  Cu12  S    
C26   C42   S    
C7    C79   A    
Cu11  O48   S    
C54   C58   A    
C84   H36   S    
C33   O33   A    
C55   H11   S    
C27   C43   S    
C24   C40   S    
C34   C49   S    
C53   C57   A    
Cu3   O5    S    
C18   C22   T    
Cu2   O4    S    
Cu5   O20   S    
Cu12  O38   S    
C76   C80   A    
C36   O38   A    
C6    C10   A    
C45   C77   S    
C57   C61   A    
C27   O23   A    
C16   C32   S    
C15   C71   A    
C12   N4    S    
Cu9   O41   S    
C60   C64   A    
Cu6   O18   S    
C32   O32   A    
Cu5   O17   S    
C31   O27   A    
Cu7   O24   S    
C83   H30   S    
C47   O13   A    
C47   C79   S    
Cu7   O27   S    
C3    O5    A    
C66   C70   A    
C13   C69   A    
C65   C69   A    
C40   O44   A    
Cu1   O1    S    
C41   C51   T    
C38   O46   A    
C67   C71   A    
C60   H16   S    
Cu2   O10   S    
C3    C19   S    
Cu6   O26   S    
C14   C70   A    
C26   O20   A    
Cu10  O45   S    
N3    H29   S    
N4    H33   S    
C4    C20   S    
C61   C65   A    
C48   O15   A    
C21   C37   S    
C1    C17   S    
C2    O2    A    
C74   C78   A    
C35   C52   S    
C8    C80   A    
C73   C77   A    
C28   O22   A    
Cu9   Cu10  S    
Cu8   O22   S    
C20   C24   T    
C39   O43   A    
Cu9   O46   S    
C42   C52   T    
N4    C84   S    
C82   H27   S    
C17   C21   T    
