data_mof_unit_28310.cif
_audit_creation_date              2012-12-11T16:04:58-0500
_audit_creation_method            fapswitch 2.2
_symmetry_space_group_name_H-M    P1
_symmetry_Int_Tables_number       1
_space_group_crystal_system       triclinic
_cell_length_a                    10.640901
_cell_length_b                    10.651343
_cell_length_c                    16.918453
_cell_angle_alpha                 98.544772
_cell_angle_beta                  98.750037
_cell_angle_gamma                 61.779192
_cell_volume                      1663.45666124

loop_
_atom_site_label
_atom_site_type_symbol
_atom_type_description
_atom_site_fract_x
_atom_site_fract_y
_atom_site_fract_z
_atom_type_partial_charge
C1    C     C_R   0.354515 0.775498 0.398417 0.545355
C2    C     C_3   0.735215 0.341394 0.248890 -0.130676
C3    C     C_3   0.831926 0.344053 0.325696 0.036806
C4    C     C_3   0.957897 0.208037 0.295262 -0.171612
C5    C     C_3   0.004687 0.304020 0.258561 -0.194615
C6    C     C_3   0.876200 0.438346 0.289014 0.292611
C7    C     C_3   0.779835 0.437222 0.212071 -0.146838
C8    C     C_3   0.907966 0.301256 0.180923 -0.010822
C9    C     C_3   0.472116 0.800630 0.225089 -0.105817
C10   C     C_3   0.438073 0.692633 0.257746 -0.118278
C11   C     C_3   0.346174 0.812507 0.318058 0.031187
C12   C     C_R   0.371828 0.347890 0.358403 0.542982
C13   C     C_3   0.381594 0.918897 0.287329 -0.132848
C14   C     C_3   0.247521 0.956367 0.227361 -0.097421
C15   C     C_3   0.212606 0.849504 0.259010 -0.077331
C16   C     C_3   0.303134 0.730574 0.197807 -0.105984
C17   C     C_3   0.337309 0.837152 0.166344 0.051907
C18   C     C_3   0.455257 0.242724 0.769989 0.299763
C19   C     C_3   0.417928 0.381324 0.734578 -0.102568
C20   C     C_3   0.336384 0.334235 0.662699 0.013691
C21   C     C_3   0.376113 0.194744 0.698346 -0.124586
C22   C     C_3   0.236426 0.275439 0.740719 -0.147597
C23   C     C_R   0.776812 0.377534 0.402393 0.560599
C24   C     C_3   0.196704 0.415329 0.703423 -0.129301
C25   C     C_3   0.278039 0.460489 0.776840 -0.161752
C26   C     C_3   0.318704 0.321058 0.812577 0.069659
C27   C     C_1   0.817650 0.341940 0.709595 -0.059133
C28   C     C_1   0.843894 0.315060 0.778125 -0.051253
C29   C     C_1   0.357147 0.766422 0.714488 -0.046247
C30   C     C_1   0.325632 0.812587 0.781976 -0.046121
C31   C     C_R   0.955098 0.285615 0.102582 0.549106
C32   C     C_R   0.320086 0.300166 0.119791 0.545499
C33   C     C_R   0.299143 0.883570 0.085809 0.526921
C34   C     C_R   0.379031 0.716869 0.631834 0.549618
C35   C     C_R   0.884573 0.299545 0.860969 0.570024
C36   C     C_R   0.308021 0.293566 0.891607 0.564690
C37   C     C_R   0.281980 0.880778 0.859630 0.533951
C38   C     C_R   0.366578 0.345398 0.584739 0.539077
C39   C     C_R   0.774279 0.379573 0.629575 0.534985
C40   C     C_1   0.346791 0.338652 0.274516 -0.057563
C41   C     C_1   0.334731 0.328342 0.203270 -0.050842
C42   C     C_3   0.862583 0.206442 0.216859 0.278072
Cr1   Cr    Cr6+3 0.608340 0.611040 0.520430 1.044385
Cr2   Cr    Cr6+3 0.287650 0.601120 0.489350 1.034639
Cr3   Cr    Cr6+3 0.604040 0.287870 0.490280 1.034482
Cr4   Cr    Cr6+3 0.054020 0.052700 0.970850 1.103938
Cr5   Cr    Cr6+3 0.059230 0.375120 0.993390 1.033036
Cr6   Cr    Cr6+3 0.374950 0.061200 0.992340 1.086092
H1    H     H_    0.626591 0.349947 0.246330 0.139433
H2    H     H_    0.174448 0.061344 0.206127 0.117505
H3    H     H_    0.106937 0.870816 0.275662 0.177087
H4    H     H_    0.273867 0.652023 0.160030 0.133693
H5    H     H_    0.494184 0.423241 0.730176 0.103246
H6    H     H_    0.413817 0.087684 0.664494 0.123239
H7    H     H_    0.160859 0.232987 0.745671 0.120099
H8    H     H_    0.090290 0.484503 0.673267 0.146225
H9    H     H_    0.239116 0.567624 0.810653 0.133166
H10   H     H_    0.026781 0.118557 0.332887 0.122073
H11   H     H_    0.114726 0.291157 0.262042 0.098428
H12   H     H_    0.707942 0.527944 0.175892 0.127219
H13   H     H_    0.514089 0.586164 0.276878 0.116519
H14   H     H_    0.577777 0.780216 0.209029 0.119905
H15   H     H_    0.409866 0.997891 0.325363 0.137714
O1    O     O_R   0.751220 0.499230 0.435170 -0.465701
O2    O     O_R   0.297880 0.469080 0.560050 -0.506352
O3    O     O_R   0.489720 0.254590 0.564810 -0.526986
O4    O     O_R   0.725220 0.304230 0.585080 -0.507835
O5    O     O_3   0.500010 0.500010 0.500020 -0.286131
O6    O     O_R   0.171830 0.913880 0.057510 -0.468813
O7    O     O_R   0.940690 0.186050 0.054730 -0.426258
O8    O     O_R   0.920470 0.405720 0.075010 -0.519440
O9    O     O_R   0.196690 0.370460 0.084120 -0.528217
O10   O     O_R   0.412990 0.180750 0.091610 -0.453267
O11   O     O_R   0.366620 0.943130 0.065760 -0.513980
O12   O     O_R   0.477220 0.727600 0.436870 -0.488384
O13   O     O_R   0.160510 0.906330 0.879210 -0.520400
O14   O     O_R   0.930190 0.179050 0.889450 -0.484390
O15   O     O_R   0.909140 0.398170 0.896710 -0.501480
O16   O     O_R   0.186190 0.363460 0.918830 -0.514075
O17   O     O_R   0.401670 0.173200 0.913310 -0.450314
O18   O     O_R   0.356120 0.936130 0.900470 -0.491211
O19   O     O_3   0.162740 0.163010 0.985530 -0.305449
O20   O     O_R   0.258650 0.745120 0.411470 -0.520520
O21   O     O_R   0.297070 0.467240 0.395960 -0.496078
O22   O     O_R   0.488830 0.252610 0.387790 -0.490858
O23   O     O_R   0.724400 0.302390 0.420980 -0.494663
O24   O     O_R   0.752100 0.501210 0.612190 -0.515063
O25   O     O_R   0.478040 0.729440 0.600970 -0.497502
O26   O     O_R   0.259530 0.747110 0.588490 -0.502068
O27   O     O_3   0.589766 0.158058 0.810362 -0.533815
C43   C     C_3   0.688954 0.075933 0.753696 -0.091479
H16   H     H_    0.691385 0.142854 0.709886 0.128240
H17   H     H_    0.665363 0.989338 0.721772 0.121818
H18   H     H_    0.797497 0.024468 0.785920 0.162021
S1    S     S_3+6 0.827161 0.063461 0.169315 0.005198
O28   O     O_2   0.713318 0.118202 0.100780 -0.251933
O29   O     O_2   0.958992 0.940896 0.137832 -0.289378
O30   O     O_3   0.768023 0.007298 0.236629 -0.546879
H19   H     H_    0.730663 0.944180 0.204695 0.354274
O31   O     O_3   0.882121 0.560202 0.331663 -0.537414
C44   C     C_3   0.926545 0.624161 0.282094 -0.074536
H20   H     H_    0.849818 0.660570 0.227921 0.115303
H21   H     H_    0.036094 0.550660 0.264410 0.126591
H22   H     H_    0.930040 0.719894 0.316338 0.168005

loop_
_geom_bond_atom_site_label_1
_geom_bond_atom_site_label_2
_ccdc_geom_bond_type
C44   H20   S    
C18   C21   S    
C3    C23   S    
S1    O28   D    
C1    C11   S    
Cr5   O16   S    
C3    C6    S    
Cr4   O13   S    
S1    O30   S    
C7    C8    S    
C32   O9    A    
C14   H2    S    
C25   H9    S    
C12   O22   A    
Cr1   O25   S    
C8    C42   S    
C5    C6    S    
Cr5   O19   S    
C15   C16   S    
Cr6   O18   S    
C12   O21   A    
C18   C19   S    
C18   O27   S    
C9    C13   S    
Cr4   O6    S    
C2    C7    S    
Cr4   O19   S    
C11   C15   S    
C31   O7    A    
C19   C20   S    
C28   C35   S    
C27   C39   S    
Cr1   O5    S    
C23   O23   A    
C18   C26   S    
Cr3   O4    S    
C32   C41   S    
C15   H3    S    
C9    C10   S    
C33   O6    A    
C19   H5    S    
C31   O8    A    
C44   H21   S    
C21   C22   S    
C14   C17   S    
C37   O18   A    
Cr2   O2    S    
C17   C33   S    
Cr1   O1    S    
Cr1   O12   S    
C5    H11   S    
C42   S1    S    
C1    O12   A    
Cr6   O11   S    
C24   C25   S    
C36   O17   A    
C43   H16   S    
C16   C17   S    
C25   C26   S    
C29   C34   S    
C35   O14   A    
C9    H14   S    
C30   C37   S    
C6    O31   S    
C12   C40   S    
Cr3   O22   S    
C29   C30   T    
C2    H1    S    
C43   H17   S    
C20   C38   S    
C13   H15   S    
C38   O2    A    
Cr3   O5    S    
C34   O25   A    
Cr5   O8    S    
C6    C7    S    
C9    C17   S    
C23   O1    A    
C37   O13   A    
C44   H22   S    
Cr2   O20   S    
C22   C24   S    
Cr2   O5    S    
C10   H13   S    
C1    O20   A    
C3    C4    S    
C7    H12   S    
C32   O10   A    
C26   C36   S    
C38   O3    A    
C40   C41   T    
C8    C31   S    
C39   O4    A    
Cr6   O10   S    
C16   H4    S    
C4    C5    S    
Cr2   O21   S    
C36   O16   A    
C5    C8    S    
S1    O29   D    
C22   H7    S    
C24   H8    S    
Cr4   O14   S    
C35   O15   A    
Cr1   O24   S    
Cr6   O17   S    
C2    C3    S    
C34   O26   A    
C10   C16   S    
C43   H18   S    
C11   C13   S    
O27   C43   S    
C21   H6    S    
C4    C42   S    
C2    C42   S    
C39   O24   A    
O31   C44   S    
Cr6   O19   S    
Cr3   O23   S    
C19   C25   S    
Cr5   O9    S    
Cr4   O7    S    
C10   C11   S    
C33   O11   A    
C20   C21   S    
O30   H19   S    
C22   C26   S    
C4    H10   S    
Cr3   O3    S    
C14   C15   S    
Cr5   O15   S    
C13   C14   S    
C20   C24   S    
Cr2   O26   S    
C27   C28   T    
