data_mof_unit_28001.cif
_audit_creation_date              2012-12-10T21:13:51-0500
_audit_creation_method            fapswitch 2.2
_symmetry_space_group_name_H-M    P1
_symmetry_Int_Tables_number       1
_space_group_crystal_system       triclinic
_cell_length_a                    15.492044
_cell_length_b                    16.762127
_cell_length_c                    17.535868
_cell_angle_alpha                 89.232792
_cell_angle_beta                  90.31404
_cell_angle_gamma                 67.449441
_cell_volume                      4204.88274449

loop_
_atom_site_label
_atom_site_type_symbol
_atom_type_description
_atom_site_fract_x
_atom_site_fract_y
_atom_site_fract_z
_atom_type_partial_charge
C1    C     C_R   0.492899 0.501829 0.646481 0.886086
C2    C     C_R   0.424235 0.585090 0.764407 0.017523
C3    C     C_R   0.508362 0.499974 0.271122 -0.197961
C4    C     C_R   0.477744 0.505781 0.728768 -0.218621
C5    C     C_R   0.435106 0.565325 0.232206 0.466437
C6    C     C_R   0.517426 0.429497 0.773098 0.421606
C7    C     C_R   0.434534 0.566091 0.153022 -0.322713
C8    C     C_R   0.523062 0.435051 0.851323 -0.308342
C9    C     C_R   0.510748 0.510253 0.113795 0.028602
C10   C     C_R   0.485095 0.514652 0.886024 0.023684
C11   C     C_1   0.502801 0.513246 0.033440 -0.035445
C12   C     C_R   0.503883 0.499213 0.353598 0.962014
C13   C     C_1   0.494975 0.514750 0.966083 -0.040053
C14   C     C_R   0.584880 0.138327 0.507920 -0.294495
C15   C     C_R   0.438480 0.855724 0.457189 -0.295874
C16   C     C_R   0.676694 0.446240 0.501753 0.885398
C17   C     C_R   0.323327 0.554117 0.499885 0.934767
C18   C     C_R   0.582349 0.223198 0.507814 -0.046910
C19   C     C_R   0.436953 0.772351 0.457712 -0.033020
C20   C     C_R   0.418762 0.279939 0.489006 -0.011922
C21   C     C_R   0.565178 0.722377 0.543649 -0.008934
C22   C     C_R   0.417283 0.195574 0.487394 0.035197
C23   C     C_R   0.086672 0.425728 0.588385 -0.248796
C24   C     C_R   0.570520 0.805228 0.545140 0.028974
C25   C     C_R   0.502357 0.123389 0.498219 0.123819
C26   C     C_R   0.505483 0.873250 0.500583 0.113912
C27   C     C_1   0.505521 0.034292 0.498876 -0.067694
C28   C     C_1   0.505878 0.961109 0.499408 -0.064689
C29   C     C_R   0.777772 0.413442 0.515036 -0.171244
C30   C     C_R   0.221330 0.590495 0.503312 -0.154879
C31   C     C_R   0.920944 0.316644 0.576059 -0.298481
C32   C     C_R   0.069340 0.702058 0.475832 -0.315327
C33   C     C_R   0.827995 0.335346 0.554623 0.484315
C34   C     C_R   0.891043 0.609029 0.497913 -0.241005
C35   C     C_R   0.166790 0.675636 0.478827 0.482907
C36   C     C_R   0.820917 0.470696 0.498489 -0.342653
C37   C     C_R   0.178445 0.536620 0.530620 -0.363352
C38   C     C_R   0.907817 0.459034 0.530066 0.092409
C39   C     C_R   0.081425 0.562337 0.528400 0.106242
C40   C     C_R   0.959381 0.379442 0.567523 0.098640
C41   C     C_R   0.026903 0.645394 0.498225 0.112789
C42   C     C_R   0.944846 0.524143 0.524604 0.085824
C43   C     C_R   0.038533 0.504043 0.547906 0.092314
C44   C     C_3   0.327606 0.180081 0.474380 -0.444460
C45   C     C_R   0.047525 0.364451 0.597835 -0.212067
C46   C     C_3   0.239582 0.260879 0.456667 -0.368875
C47   C     C_3   0.154818 0.237397 0.443030 -0.840180
C48   C     C_3   0.644138 0.822905 0.592069 -0.435335
C49   C     C_3   0.708223 0.747285 0.642310 -0.367672
C50   C     C_3   0.780324 0.771711 0.685130 -0.860173
C51   C     C_3   0.190217 0.802558 0.491358 0.058752
C52   C     C_3   0.175672 0.879894 0.438275 -0.333898
C53   C     C_3   0.168003 0.959776 0.483044 -0.976797
C54   C     C_3   0.746750 0.293684 0.644863 0.146627
C55   C     C_3   0.817068 0.244433 0.707770 -0.413178
C56   C     C_R   0.931264 0.669246 0.486915 -0.209140
C57   C     C_3   0.769640 0.249677 0.784607 -0.893293
C58   C     C_3   0.675198 0.396944 0.104430 -0.412915
C59   C     C_3   0.724559 0.453318 0.070910 -0.338720
C60   C     C_3   0.808914 0.399599 0.023839 -0.890013
C61   C     C_3   0.392619 0.676479 0.886065 -0.424484
C62   C     C_3   0.468276 0.712311 0.902021 -0.331562
C63   C     C_3   0.429762 0.794639 0.948500 -0.893631
C64   C     C_3   0.667006 0.372615 0.276291 -0.410475
C65   C     C_3   0.746447 0.403048 0.293849 -0.359355
C66   C     C_3   0.829664 0.330851 0.331268 -0.863316
C67   C     C_R   0.590299 0.450265 0.151568 0.117735
C68   C     C_3   0.348135 0.657338 0.720018 -0.406964
C69   C     C_3   0.251226 0.658416 0.740384 -0.361718
C70   C     C_3   0.173509 0.730479 0.697570 -0.904320
C71   C     C_3   0.336089 0.710213 0.249319 0.118839
C72   C     C_3   0.418421 0.740478 0.249848 -0.401900
C73   C     C_3   0.384260 0.838504 0.241415 -0.968248
C74   C     C_3   0.484634 0.313149 0.742367 0.098267
C75   C     C_3   0.526708 0.220044 0.715043 -0.329317
C76   C     C_3   0.451942 0.182598 0.704330 -0.964432
C77   C     C_R   0.433726 0.590860 0.844405 0.112718
C78   C     C_R   0.587165 0.441527 0.232107 -0.015397
H1    H     H_    0.086790 0.304795 0.628535 0.145025
H2    H     H_    0.783339 0.526056 0.462573 0.172260
H3    H     H_    0.961207 0.255009 0.603325 0.147848
H4    H     H_    0.027427 0.765239 0.451985 0.148115
H5    H     H_    0.154259 0.410865 0.614795 0.135889
H6    H     H_    0.817055 0.631517 0.486252 0.143906
H7    H     H_    0.374606 0.610114 0.121353 0.150942
H8    H     H_    0.557961 0.376548 0.885043 0.164823
H9    H     H_    0.166862 0.193772 0.393638 0.253266
H10   H     H_    0.140915 0.204937 0.494448 0.258916
H11   H     H_    0.092322 0.297030 0.430610 0.259213
H12   H     H_    0.888149 0.733294 0.465552 0.144449
H13   H     H_    0.224722 0.305342 0.505480 0.224745
H14   H     H_    0.250657 0.294410 0.404756 0.228084
H15   H     H_    0.338858 0.135382 0.425755 0.216758
H16   H     H_    0.314792 0.147251 0.526095 0.211130
H17   H     H_    0.825404 0.788589 0.644193 0.261853
H18   H     H_    0.744969 0.827533 0.722573 0.256483
H19   H     H_    0.825281 0.716082 0.721070 0.250020
H20   H     H_    0.665629 0.728758 0.684528 0.219381
H21   H     H_    0.746359 0.690774 0.606541 0.226213
H22   H     H_    0.688244 0.842575 0.552168 0.209371
H23   H     H_    0.651264 0.084491 0.515512 0.152672
H24   H     H_    0.607741 0.878317 0.629795 0.211961
H25   H     H_    0.251711 0.791368 0.529223 0.166604
H26   H     H_    0.127366 0.819507 0.528213 0.121362
H27   H     H_    0.234856 0.864209 0.398224 0.211597
H28   H     H_    0.110632 0.894396 0.404087 0.217885
H29   H     H_    0.107555 0.978235 0.522169 0.267094
H30   H     H_    0.157662 0.014547 0.442877 0.265890
H31   H     H_    0.232999 0.947034 0.516759 0.267088
H32   H     H_    0.688760 0.270398 0.644918 0.198305
H33   H     H_    0.714800 0.364071 0.657659 0.129782
H34   H     H_    0.387482 0.906398 0.422928 0.157692
H35   H     H_    0.852165 0.175492 0.692044 0.230411
H36   H     H_    0.870895 0.272477 0.714287 0.211539
H37   H     H_    0.733646 0.318148 0.801323 0.277631
H38   H     H_    0.822988 0.215593 0.828942 0.246772
H39   H     H_    0.718332 0.218326 0.781791 0.276569
H40   H     H_    0.860619 0.348384 0.060041 0.260700
H41   H     H_    0.786562 0.369275 0.975681 0.263474
H42   H     H_    0.842946 0.441900 0.000259 0.250485
H43   H     H_    0.676311 0.505519 0.033591 0.228012
H44   H     H_    0.748331 0.484353 0.117638 0.212647
H45   H     H_    0.646765 0.233177 0.514679 0.173914
H46   H     H_    0.728008 0.343778 0.137276 0.205653
H47   H     H_    0.652157 0.365333 0.057593 0.198544
H48   H     H_    0.371198 0.845144 0.917205 0.259925
H49   H     H_    0.404632 0.781136 0.004555 0.261779
H50   H     H_    0.485819 0.819326 0.958628 0.250831
H51   H     H_    0.527808 0.663858 0.934123 0.226165
H52   H     H_    0.495002 0.726851 0.847020 0.218858
H53   H     H_    0.334895 0.726362 0.854118 0.203410
H54   H     H_    0.360943 0.666995 0.940435 0.199533
H55   H     H_    0.807547 0.305694 0.383333 0.273963
H56   H     H_    0.385388 0.759363 0.424068 0.165404
H57   H     H_    0.860704 0.277100 0.290857 0.255831
H58   H     H_    0.883758 0.356028 0.347514 0.255335
H59   H     H_    0.770448 0.424409 0.240834 0.230901
H60   H     H_    0.720668 0.458838 0.332868 0.213830
H61   H     H_    0.643434 0.354586 0.330820 0.222392
H62   H     H_    0.692568 0.310636 0.245573 0.193437
H63   H     H_    0.180995 0.719395 0.635417 0.252069
H64   H     H_    0.104549 0.730865 0.714973 0.256679
H65   H     H_    0.176078 0.794234 0.710455 0.259568
H66   H     H_    0.247837 0.595514 0.724939 0.220763
H67   H     H_    0.354980 0.335618 0.480820 0.135895
H68   H     H_    0.238359 0.666986 0.802489 0.223097
H69   H     H_    0.353154 0.720571 0.730558 0.198225
H70   H     H_    0.354122 0.649233 0.657661 0.224869
H71   H     H_    0.282832 0.750435 0.289882 0.189801
H72   H     H_    0.300601 0.722361 0.192692 0.115405
H73   H     H_    0.459091 0.719452 0.303767 0.244682
H74   H     H_    0.466097 0.711100 0.201900 0.214800
H75   H     H_    0.345295 0.860435 0.186705 0.265614
H76   H     H_    0.445087 0.858081 0.241786 0.272740
H77   H     H_    0.338025 0.870388 0.289413 0.253567
H78   H     H_    0.612970 0.668974 0.576959 0.134618
H79   H     H_    0.424823 0.351278 0.704203 0.154403
H80   H     H_    0.458263 0.312274 0.801325 0.123791
H81   H     H_    0.562246 0.217895 0.660088 0.234366
H82   H     H_    0.579601 0.179594 0.757319 0.205530
H83   H     H_    0.416444 0.182487 0.759165 0.258630
H84   H     H_    0.484958 0.115117 0.684297 0.268224
H85   H     H_    0.399302 0.221125 0.661047 0.263772
H86   H     H_    0.222818 0.471950 0.548368 0.162829
N1    N     N_R   0.499980 0.292780 0.499970 -0.097520
N2    N     N_R   0.500020 0.707220 0.500030 -0.104007
O1    O     O_R   0.500000 0.433430 0.610870 -0.586697
O2    O     O_3   0.787882 0.276571 0.571785 -0.671845
O3    O     O_3   0.361793 0.622951 0.273867 -0.632006
O4    O     O_3   0.553758 0.348985 0.740424 -0.657323
O5    O     O_R   0.500000 0.566570 0.389130 -0.597273
O6    O     O_R   0.500010 0.566520 0.610900 -0.638282
O7    O     O_R   0.499990 0.433480 0.389100 -0.624190
O8    O     O_R   0.632240 0.395450 0.499980 -0.597871
O9    O     O_R   0.367760 0.604550 0.500020 -0.585243
O10   O     O_R   0.632250 0.528530 0.500000 -0.632438
O11   O     O_R   0.367750 0.471470 0.500000 -0.643973
O12   O     O_3   0.208534 0.727843 0.447051 -0.632496
Zn1   Zn    Zn3+2 0.500000 0.411140 0.499980 0.941858
Zn2   Zn    Zn3+2 0.500000 0.588860 0.500020 0.938646

loop_
_geom_bond_atom_site_label_1
_geom_bond_atom_site_label_2
_ccdc_geom_bond_type
C75   H82   S    
C59   H43   S    
O1    Zn1   S    
C34   C56   A    
C23   C45   A    
C70   H63   S    
C62   H52   S    
C76   H84   S    
C34   C42   A    
C50   H18   S    
C39   C41   A    
C7    H7    S    
C69   H66   S    
C15   C19   A    
C20   N1    A    
C29   C36   A    
C70   H65   S    
C23   H5    S    
C30   C35   A    
C57   H37   S    
C24   C26   A    
C38   C42   A    
C2    C68   S    
C6    O4    S    
C50   H17   S    
C71   H72   S    
C46   H14   S    
C1    O1    A    
C53   H31   S    
C29   C33   A    
C23   C43   A    
C31   C40   A    
C54   H32   S    
C60   H41   S    
C14   C18   A    
C3    C12   S    
C61   H54   S    
C49   H20   S    
C54   C55   S    
C18   N1    A    
C22   C44   S    
C61   C77   S    
C68   C69   S    
C72   H74   S    
C22   C25   A    
C73   H76   S    
C32   C41   A    
C31   C33   A    
C60   H40   S    
C44   H15   S    
C19   N2    A    
C12   O5    A    
C51   O12   S    
C63   H50   S    
C68   H70   S    
C18   H45   S    
C65   H59   S    
O6    Zn2   S    
C59   H44   S    
C56   H12   S    
C52   H28   S    
C59   C60   S    
C69   H68   S    
C47   H11   S    
C62   H51   S    
C76   H83   S    
C61   C62   S    
C67   C78   A    
C34   H6    S    
C16   O8    A    
C10   C77   A    
C44   C46   S    
C57   H38   S    
C40   C45   A    
C48   H22   S    
C70   H64   S    
C74   C75   S    
C74   H80   S    
C51   C52   S    
C24   C48   S    
C32   C35   A    
C58   H46   S    
C4    C6    A    
C36   H2    S    
C5    C7    A    
C15   C26   A    
C39   C43   A    
C46   H13   S    
C55   H35   S    
O11   Zn1   S    
C16   C29   S    
C21   N2    A    
C30   C37   A    
C19   H56   S    
C47   H9    S    
C2    C4    A    
C75   C76   S    
C9    C67   A    
C41   C56   A    
C62   C63   S    
C49   H21   S    
C66   H55   S    
C53   H29   S    
C72   H73   S    
C48   H24   S    
C73   H77   S    
C71   O3    S    
C17   C30   S    
C45   H1    S    
C9    C11   S    
C68   H69   S    
C37   H86   S    
C66   H58   S    
C65   H60   S    
C48   C49   S    
C20   C22   A    
C52   H27   S    
C49   C50   S    
C55   C57   S    
N1    Zn1   S    
O5    Zn2   S    
C58   C59   S    
C33   O2    S    
N2    Zn2   S    
C42   C43   A    
C3    C5    A    
C52   C53   S    
C57   H39   S    
C64   H62   S    
C75   H81   S    
C7    C9    A    
C46   C47   S    
C50   H19   S    
C5    O3    S    
C74   H79   S    
C64   C78   S    
C15   H34   S    
C54   O2    S    
C72   C73   S    
C14   H23   S    
C10   C13   S    
C6    C8    A    
O9    Zn2   S    
C55   H36   S    
C25   C27   S    
C32   H4    S    
C1    O6    A    
C26   C28   S    
C31   H3    S    
C1    C4    S    
C64   C65   S    
C36   C38   A    
C51   H26   S    
C71   C72   S    
C37   C39   A    
C2    C77   A    
C47   H10   S    
C38   C40   A    
C11   C13   T    
C53   H30   S    
C16   O10   A    
C71   H71   S    
C35   O12   S    
C21   H78   S    
C54   H33   S    
C60   H42   S    
C8    H8    S    
C14   C25   A    
C69   C70   S    
C74   O4    S    
C63   H48   S    
C44   H16   S    
C61   H53   S    
C66   H57   S    
C58   C67   S    
O10   Zn2   S    
C58   H47   S    
C8    C10   A    
C65   C66   S    
C21   C24   A    
C73   H75   S    
C27   C28   T    
O7    Zn1   S    
C20   H67   S    
C76   H85   S    
C17   O11   A    
C3    C78   A    
C51   H25   S    
O8    Zn1   S    
C63   H49   S    
C17   O9    A    
C12   O7    A    
C64   H61   S    
