data_mof_unit_63271.cif
_audit_creation_date              2012-12-10T18:09:15-0500
_audit_creation_method            fapswitch 2.2
_symmetry_space_group_name_H-M    P1
_symmetry_Int_Tables_number       1
_space_group_crystal_system       triclinic
_cell_length_a                    21.695008
_cell_length_b                    21.695006
_cell_length_c                    18.228438
_cell_angle_alpha                 90.00016
_cell_angle_beta                  90.000058
_cell_angle_gamma                 89.999975
_cell_volume                      8579.63959097

loop_
_atom_site_label
_atom_site_type_symbol
_atom_type_description
_atom_site_fract_x
_atom_site_fract_y
_atom_site_fract_z
_atom_type_partial_charge
C1    C     C_R   0.000000 0.380177 0.500000 0.926992
C2    C     C_R   0.500000 1.000000 0.359042 0.975299
C3    C     C_R   0.000000 0.500000 0.640958 0.975299
C4    C     C_R   0.500000 0.000000 0.640958 0.975299
C5    C     C_R   0.500000 1.000000 0.859042 0.975297
C6    C     C_R   0.000000 0.500000 0.859042 0.975297
C7    C     C_R   0.500000 1.000000 0.140958 0.975297
C8    C     C_R   0.000000 0.500000 0.140958 0.975298
C9    C     C_1   0.000000 0.500000 0.282442 -0.174515
C10   C     C_1   0.500000 1.000000 0.282442 -0.174516
C11   C     C_1   0.000000 0.500000 0.717558 -0.174515
C12   C     C_R   0.380177 0.000000 0.500000 0.926998
C13   C     C_1   0.500000 0.000000 0.717558 -0.174515
C14   C     C_1   0.500000 0.000000 0.782442 -0.174517
C15   C     C_1   0.000000 0.500000 0.782442 -0.174518
C16   C     C_1   0.500000 1.000000 0.217558 -0.174518
C17   C     C_1   0.000000 0.500000 0.217558 -0.174518
C18   C     C_R   0.006362 0.282576 0.567165 -0.039296
C19   C     C_R   0.282576 0.993640 0.567165 -0.039298
C20   C     C_R   0.993639 0.717424 0.567165 -0.039299
C21   C     C_R   0.717424 0.006362 0.567165 -0.039296
C22   C     C_R   0.006361 0.717424 0.432835 -0.039297
C23   C     C_R   1.000000 0.619823 0.500000 0.926998
C24   C     C_R   0.282576 0.006360 0.432835 -0.039299
C25   C     C_R   0.993638 0.282576 0.432835 -0.039296
C26   C     C_R   0.717424 0.993638 0.432835 -0.039297
C27   C     C_R   0.506367 0.782576 0.067165 -0.039301
C28   C     C_R   0.782576 0.493641 0.067165 -0.039295
C29   C     C_R   0.493640 0.217424 0.067165 -0.039297
C30   C     C_R   0.217424 0.506370 0.067164 -0.039305
C31   C     C_R   0.506360 0.217424 0.932835 -0.039296
C32   C     C_R   0.782576 0.506359 0.932835 -0.039297
C33   C     C_R   0.493633 0.782575 0.932836 -0.039302
C34   C     C_R   0.619823 1.000000 0.500000 0.926992
C35   C     C_R   0.217424 0.493630 0.932836 -0.039303
C36   C     C_R   0.005192 0.218746 0.566323 -0.190746
C37   C     C_R   0.218746 0.994810 0.566323 -0.190746
C38   C     C_R   0.994809 0.781254 0.566322 -0.190746
C39   C     C_R   0.781254 0.005192 0.566322 -0.190746
C40   C     C_R   0.005190 0.781254 0.433677 -0.190746
C41   C     C_R   0.218746 0.005190 0.433677 -0.190746
C42   C     C_R   0.994808 0.218745 0.433678 -0.190746
C43   C     C_R   0.781254 0.994808 0.433677 -0.190746
C44   C     C_R   0.505197 0.718746 0.066322 -0.190744
C45   C     C_R   0.500000 0.880177 0.000000 0.926998
C46   C     C_R   0.718746 0.494811 0.066323 -0.190746
C47   C     C_R   0.494810 0.281254 0.066322 -0.190746
C48   C     C_R   0.281255 0.505200 0.066321 -0.190743
C49   C     C_R   0.505189 0.281254 0.933677 -0.190746
C50   C     C_R   0.718746 0.505189 0.933677 -0.190746
C51   C     C_R   0.494803 0.718745 0.933678 -0.190744
C52   C     C_R   0.281254 0.494800 0.933679 -0.190743
C53   C     C_R   1.000000 0.187084 0.500000 -0.082033
C54   C     C_R   0.187084 0.000000 0.500000 -0.082034
C55   C     C_R   1.000000 0.812916 0.500000 -0.082034
C56   C     C_R   0.880177 0.500000 1.000000 0.926995
C57   C     C_R   0.812916 0.000000 0.500000 -0.082033
C58   C     C_R   0.500000 0.687084 0.000000 -0.082034
C59   C     C_R   0.687084 0.500000 0.000000 -0.082033
C60   C     C_R   0.500000 0.312916 1.000000 -0.082034
C61   C     C_R   0.312916 0.500000 1.000000 -0.082035
C62   C     C_R   0.879279 0.000000 0.500000 0.898641
C63   C     C_R   1.000000 0.120721 0.500000 0.898641
C64   C     C_R   0.120721 0.000000 0.500000 0.898641
C65   C     C_R   1.000000 0.879279 0.500000 0.898642
C66   C     C_R   0.379279 0.500000 1.000000 0.898639
C67   C     C_R   0.500000 0.119822 1.000000 0.926994
C68   C     C_R   0.500000 0.620721 0.000000 0.898640
C69   C     C_R   0.620721 0.500000 0.000000 0.898641
C70   C     C_R   0.500000 0.379279 1.000000 0.898641
C71   C     C_R   0.000000 0.314360 0.500000 -0.151781
C72   C     C_R   0.314360 0.000000 0.500000 -0.151781
C73   C     C_R   1.000000 0.685640 0.500000 -0.151781
C74   C     C_R   0.685640 1.000000 0.500000 -0.151782
C75   C     C_R   0.500000 0.814360 0.000000 -0.151783
C76   C     C_R   0.814360 0.500000 1.000000 -0.151781
C77   C     C_R   0.500000 0.185640 1.000000 -0.151781
C78   C     C_R   0.119823 0.500000 0.000000 0.926999
C79   C     C_R   0.185640 0.500000 0.000000 -0.151788
C80   C     C_2   0.014992 0.314041 0.638834 0.893005
C81   C     C_2   0.314041 0.985011 0.638834 0.893007
C82   C     C_2   0.985010 0.685960 0.638834 0.893006
C83   C     C_2   0.685959 0.014992 0.638834 0.893006
C84   C     C_2   0.014990 0.685959 0.361165 0.893006
C85   C     C_2   0.314041 0.014989 0.361166 0.893007
C86   C     C_2   0.985008 0.314040 0.361166 0.893006
C87   C     C_2   0.685959 0.985007 0.361166 0.893005
C88   C     C_2   0.515002 0.814040 0.138833 0.893003
C89   C     C_R   0.000000 0.500000 0.359042 0.975299
C90   C     C_2   0.814041 0.485013 0.138834 0.893005
C91   C     C_2   0.485012 0.185959 0.138834 0.893005
C92   C     C_2   0.185960 0.515007 0.138833 0.893010
C93   C     C_2   0.514988 0.185959 0.861166 0.893007
C94   C     C_2   0.814041 0.514987 0.861165 0.893006
C95   C     C_2   0.484999 0.814040 0.861167 0.893004
C96   C     C_2   0.185960 0.484993 0.861167 0.893008
H1    H     H_    0.009942 0.193715 0.617502 0.192143
H2    H     H_    0.693715 0.490062 0.117502 0.192142
H3    H     H_    0.490061 0.306285 0.117502 0.192143
H4    H     H_    0.306285 0.509957 0.117499 0.192147
H5    H     H_    0.509939 0.306284 0.882498 0.192142
H6    H     H_    0.693715 0.509938 0.882498 0.192143
H7    H     H_    0.490048 0.693715 0.882500 0.192145
H8    H     H_    0.306285 0.490043 0.882501 0.192146
H9    H     H_    0.058359 0.380099 0.696906 0.341885
H10   H     H_    0.380099 0.941645 0.696907 0.341886
H11   H     H_    0.941644 0.619902 0.696907 0.341888
H12   H     H_    0.193715 0.990060 0.617502 0.192143
H13   H     H_    0.619902 0.058359 0.696906 0.341888
H14   H     H_    0.058356 0.619901 0.303093 0.341885
H15   H     H_    0.380098 0.058355 0.303093 0.341888
H16   H     H_    0.941642 0.380098 0.303094 0.341888
H17   H     H_    0.619901 0.941641 0.303094 0.341886
H18   H     H_    0.558369 0.880101 0.196901 0.341887
H19   H     H_    0.880097 0.441647 0.196908 0.341888
H20   H     H_    0.441646 0.119902 0.196908 0.341888
H21   H     H_    0.119898 0.558373 0.196898 0.341888
H22   H     H_    0.558355 0.119902 0.803092 0.341888
H23   H     H_    0.990059 0.806285 0.617501 0.192144
H24   H     H_    0.880098 0.558353 0.803092 0.341888
H25   H     H_    0.441632 0.880100 0.803099 0.341888
H26   H     H_    0.119898 0.441626 0.803102 0.341888
H27   H     H_    0.806285 0.009943 0.617501 0.192142
H28   H     H_    0.009940 0.806284 0.382498 0.192144
H29   H     H_    0.193715 0.009940 0.382498 0.192143
H30   H     H_    0.990057 0.193715 0.382499 0.192142
H31   H     H_    0.806285 0.990057 0.382498 0.192143
H32   H     H_    0.509951 0.693715 0.117500 0.192145
O1    O     O_R   0.948270 0.408400 0.500040 -0.589092
O2    O     O_R   0.908400 0.551730 0.000040 -0.589094
O3    O     O_R   0.551730 0.091600 0.000040 -0.589093
O4    O     O_R   0.091600 0.448270 0.000040 -0.589086
O5    O     O_R   0.448270 0.091600 0.999960 -0.589093
O6    O     O_R   0.908400 0.448270 0.999960 -0.589093
O7    O     O_R   0.551730 0.908400 0.999960 -0.589089
O8    O     O_R   0.091600 0.551730 0.999960 -0.589086
O9    O     O_R   0.948270 0.500020 0.392700 -0.595539
O10   O     O_R   0.500020 0.051730 0.392700 -0.595538
O11   O     O_R   0.051730 0.499980 0.392700 -0.595536
O12   O     O_R   0.408400 0.051730 0.500040 -0.589093
O13   O     O_R   0.499980 0.948270 0.392700 -0.595536
O14   O     O_R   0.948270 0.499980 0.607300 -0.595538
O15   O     O_R   0.500020 0.948270 0.607300 -0.595536
O16   O     O_R   0.051730 0.500020 0.607300 -0.595536
O17   O     O_R   0.499980 0.051730 0.607300 -0.595538
O18   O     O_R   0.448270 0.000020 0.892700 -0.595537
O19   O     O_R   0.000020 0.551730 0.892700 -0.595539
O20   O     O_R   0.551730 0.999980 0.892700 -0.595538
O21   O     O_R   0.999980 0.448270 0.892700 -0.595535
O22   O     O_R   0.448270 0.999980 0.107300 -0.595539
O23   O     O_R   0.051730 0.591600 0.500040 -0.589093
O24   O     O_R   0.000020 0.448270 0.107300 -0.595539
O25   O     O_R   0.551730 0.000020 0.107300 -0.595536
O26   O     O_R   0.999980 0.551730 0.107300 -0.595535
O27   O     O_R   0.908270 0.000020 0.560600 -0.622822
O28   O     O_R   0.000020 0.091730 0.560600 -0.622822
O29   O     O_R   0.091730 0.999980 0.560600 -0.622822
O30   O     O_R   0.999980 0.908270 0.560600 -0.622822
O31   O     O_R   0.908270 0.999980 0.439400 -0.622822
O32   O     O_R   0.000020 0.908270 0.439400 -0.622822
O33   O     O_R   0.091730 0.000020 0.439400 -0.622822
O34   O     O_R   0.591600 0.948270 0.500040 -0.589092
O35   O     O_R   0.999980 0.091730 0.439400 -0.622822
O36   O     O_R   0.408270 0.500020 0.060600 -0.622821
O37   O     O_R   0.500020 0.591730 0.060600 -0.622822
O38   O     O_R   0.591730 0.499980 0.060600 -0.622823
O39   O     O_R   0.499980 0.408270 0.060600 -0.622822
O40   O     O_R   0.408270 0.499980 0.939400 -0.622822
O41   O     O_R   0.500020 0.408270 0.939400 -0.622823
O42   O     O_R   0.591730 0.500020 0.939400 -0.622822
O43   O     O_R   0.499980 0.591730 0.939400 -0.622822
O44   O     O_2   0.989581 0.293820 0.693699 -0.596007
O45   O     O_R   0.948270 0.591600 0.499960 -0.589093
O46   O     O_R   0.054327 0.364754 0.644602 -0.789477
O47   O     O_2   0.293819 0.010422 0.693699 -0.596008
O48   O     O_R   0.364754 0.945676 0.644603 -0.789481
O49   O     O_2   0.010421 0.706181 0.693699 -0.596009
O50   O     O_R   0.945676 0.635246 0.644603 -0.789480
O51   O     O_2   0.706180 0.989581 0.693699 -0.596009
O52   O     O_R   0.635247 0.054327 0.644602 -0.789478
O53   O     O_2   0.989579 0.706180 0.306301 -0.596008
O54   O     O_R   0.054324 0.635246 0.355397 -0.789480
O55   O     O_2   0.293819 0.989578 0.306301 -0.596009
O56   O     O_R   0.408400 0.948270 0.499960 -0.589093
O57   O     O_R   0.364754 0.054324 0.355397 -0.789481
O58   O     O_2   0.010420 0.293820 0.306301 -0.596010
O59   O     O_R   0.945673 0.364753 0.355398 -0.789479
O60   O     O_2   0.706180 0.010418 0.306301 -0.596007
O61   O     O_R   0.635246 0.945673 0.355398 -0.789477
O62   O     O_2   0.489597 0.793817 0.193702 -0.596008
O63   O     O_R   0.554333 0.864756 0.144597 -0.789475
O64   O     O_2   0.793821 0.510427 0.193698 -0.596006
O65   O     O_R   0.864753 0.445677 0.144604 -0.789480
O66   O     O_2   0.510425 0.206180 0.193698 -0.596006
O67   O     O_R   0.051730 0.408400 0.499960 -0.589092
O68   O     O_R   0.445676 0.135247 0.144603 -0.789480
O69   O     O_2   0.206186 0.489609 0.193702 -0.596012
O70   O     O_R   0.135242 0.554336 0.144594 -0.789476
O71   O     O_2   0.489575 0.206179 0.806302 -0.596007
O72   O     O_R   0.554324 0.135247 0.855396 -0.789480
O73   O     O_2   0.793820 0.489573 0.806302 -0.596006
O74   O     O_R   0.864753 0.554323 0.855396 -0.789481
O75   O     O_2   0.510403 0.793816 0.806299 -0.596008
O76   O     O_R   0.445667 0.864756 0.855403 -0.789475
O77   O     O_2   0.206185 0.510393 0.806298 -0.596011
O78   O     O_R   0.591600 0.051730 0.499960 -0.589092
O79   O     O_R   0.135243 0.445663 0.855406 -0.789474
O80   O     O_R   0.448270 0.908400 0.000040 -0.589089
Zn1   Zn    Zn3+2 0.930920 0.500000 0.500000 1.091408
Zn2   Zn    Zn3+2 0.000000 0.000000 0.419070 1.015754
Zn3   Zn    Zn3+2 0.500000 0.500000 0.080930 1.015756
Zn4   Zn    Zn3+2 0.500000 0.500000 0.919070 1.015756
Zn5   Zn    Zn3+2 0.500000 0.069080 0.500000 1.091409
Zn6   Zn    Zn3+2 0.069080 0.500000 0.500000 1.091412
Zn7   Zn    Zn3+2 0.500000 0.930920 0.500000 1.091411
Zn8   Zn    Zn3+2 0.430920 0.000000 0.000000 1.091409
Zn9   Zn    Zn3+2 0.000000 0.569080 0.000000 1.091409
Zn10  Zn    Zn3+2 0.569080 0.000000 0.000000 1.091410
Zn11  Zn    Zn3+2 0.000000 0.430920 0.000000 1.091410
Zn12  Zn    Zn3+2 0.000000 0.000000 0.580930 1.015755

loop_
_geom_bond_atom_site_label_1
_geom_bond_atom_site_label_2
_ccdc_geom_bond_type
C88   O63   S    
C32   C94   S    
O10   Zn5   S    
C46   H2    S    
C56   C76   S    
C20   C82   S    
C46   C59   A    
C29   C77   A    
H24   O74   S    
O40   Zn4   S    
C67   C77   S    
H22   O72   S    
O13   Zn7   S    
C4    O15   A    
O20   Zn10  S    
C96   O77   D    
C47   H3    S    
C57   C62   S    
C18   C80   S    
C90   O64   D    
C35   C96   S    
C34   O78   A    
C63   O35   A    
C28   C46   A    
C1    C71   S    
O31   Zn2   S    
C54   C64   S    
C83   O52   S    
C29   C47   A    
O3    Zn10  S    
C50   C59   A    
C81   O47   D    
C30   C48   A    
C84   O53   D    
C67   O5    A    
C70   O41   A    
C23   C73   S    
C63   O28   A    
C1    O1    A    
C52   C61   A    
C42   C53   A    
C49   H5    S    
C68   O43   A    
C92   O70   S    
O36   Zn3   S    
C95   O75   D    
O6    Zn11  S    
C39   C57   A    
O24   Zn11  S    
C33   C95   S    
C39   H27   S    
C62   O27   A    
O21   Zn11  S    
C4    C13   S    
C78   O4    A    
C69   O38   A    
O67   Zn6   S    
C36   C53   A    
C19   C37   A    
C47   C60   A    
C6    O21   A    
C11   C15   T    
C27   C44   A    
C33   C75   A    
C52   H8    S    
C38   C55   A    
C21   C83   S    
C44   C58   A    
C26   C87   S    
C89   O11   A    
O23   Zn6   S    
C7    O25   A    
C64   O29   A    
C12   O12   A    
C36   H1    S    
C94   O74   S    
O22   Zn8   S    
C8    O26   A    
C24   C85   S    
C87   O61   S    
C68   O37   A    
H19   O65   S    
C86   O59   S    
O80   Zn8   S    
C5    O20   A    
C13   C14   T    
C96   O79   S    
C24   C41   A    
O5    Zn8   S    
C19   C72   A    
C3    O14   A    
C31   C49   A    
C65   O32   A    
C27   C75   A    
C61   C66   S    
C55   C65   S    
O35   Zn2   S    
C26   C43   A    
C31   C77   A    
O34   Zn7   S    
C85   O57   S    
C48   H4    S    
C6    O19   A    
C45   O7    A    
H15   O57   S    
C2    O10   A    
C81   O48   S    
C41   H29   S    
C93   O72   S    
C37   H12   S    
C30   C92   S    
C51   H7    S    
C9    C89   S    
C94   O73   D    
C91   O66   D    
C42   H30   S    
C78   C79   S    
C64   O33   A    
O56   Zn7   S    
O8    Zn9   S    
C95   O76   S    
C31   C93   S    
O41   Zn4   S    
C21   C74   A    
O29   Zn12  S    
O9    Zn1   S    
C1    O67   A    
C22   C84   S    
O2    Zn9   S    
C88   O62   D    
O19   Zn9   S    
O1    Zn1   S    
O38   Zn3   S    
C7    O22   A    
C20   C38   A    
C21   C39   A    
C60   C70   S    
C6    C15   S    
C40   C55   A    
C22   C40   A    
C82   O50   S    
O25   Zn10  S    
C66   O36   A    
O27   Zn12  S    
O28   Zn12  S    
C51   C58   A    
O26   Zn9   S    
C49   C60   A    
C32   C50   A    
C5    C14   S    
C67   O3    A    
O12   Zn5   S    
C59   C69   S    
C25   C71   A    
C37   C54   A    
O78   Zn5   S    
O30   Zn12  S    
C7    C16   S    
C34   C74   S    
C23   O45   A    
C50   H6    S    
C45   O80   A    
C89   O9    A    
H9    O46   S    
H11   O50   S    
O17   Zn5   S    
C80   O44   D    
C43   H31   S    
C92   O69   D    
C28   C76   A    
C29   C91   S    
O32   Zn2   S    
O43   Zn4   S    
C24   C72   A    
O15   Zn7   S    
C9    C17   T    
C18   C71   A    
C23   O23   A    
C44   H32   S    
C5    O18   A    
C93   O71   D    
C38   H23   S    
H26   O79   S    
O45   Zn1   S    
C3    O16   A    
H25   O76   S    
C65   O30   A    
C34   O34   A    
C25   C42   A    
C32   C76   A    
C56   O6    A    
C86   O58   D    
C87   O60   D    
H18   O63   S    
C66   O40   A    
C33   C51   A    
H17   O61   S    
O33   Zn2   S    
C8    C17   S    
O14   Zn1   S    
C83   O51   D    
C45   C75   S    
O4    Zn11  S    
C84   O54   S    
C80   O46   S    
C10   C16   T    
C70   O39   A    
O16   Zn6   S    
C91   O68   S    
C53   C63   S    
H13   O52   S    
C58   C68   S    
C48   C61   A    
C12   O56   A    
C90   O65   S    
C78   O8    A    
C8    O24   A    
H21   O70   S    
C4    O17   A    
C82   O49   D    
C35   C79   A    
C25   C86   S    
C26   C74   A    
C20   C73   A    
C69   O42   A    
C12   C72   S    
C27   C88   S    
O7    Zn10  S    
O37   Zn3   S    
C56   O2    A    
C41   C54   A    
C3    C11   S    
C43   C57   A    
O39   Zn3   S    
H20   O68   S    
O42   Zn4   S    
H14   O54   S    
C85   O55   D    
C35   C52   A    
C2    O13   A    
H10   O48   S    
C62   O31   A    
H16   O59   S    
C28   C90   S    
O11   Zn6   S    
C22   C73   A    
C19   C81   S    
C18   C36   A    
C30   C79   A    
O18   Zn8   S    
C40   H28   S    
C2    C10   S    
