data_mof_unit_29668.cif
_audit_creation_date              2012-12-10T17:31:27-0500
_audit_creation_method            fapswitch 2.2
_symmetry_space_group_name_H-M    P1
_symmetry_Int_Tables_number       1
_space_group_crystal_system       triclinic
_cell_length_a                    19.411145
_cell_length_b                    19.007733
_cell_length_c                    12.420208
_cell_angle_alpha                 89.926841
_cell_angle_beta                  129.791727
_cell_angle_gamma                 90.30767
_cell_volume                      3521.08189885

loop_
_atom_site_label
_atom_site_type_symbol
_atom_type_description
_atom_site_fract_x
_atom_site_fract_y
_atom_site_fract_z
_atom_type_partial_charge
C1    C     C_R   0.611171 0.898584 0.652390 0.792472
C2    C     C_R   0.610813 0.101848 0.652379 0.797041
C3    C     C_R   0.111172 0.398584 0.652391 0.792474
C4    C     C_R   0.110813 0.601848 0.652379 0.797041
C5    C     C_R   0.243468 0.776573 0.039955 0.105166
C6    C     C_R   0.244984 0.219497 0.027854 0.095886
C7    C     C_R   0.743466 0.276575 0.039952 0.105165
C8    C     C_R   0.744988 0.719500 0.027859 0.095885
C9    C     C_R   0.670543 0.266563 0.038805 0.170386
C10   C     C_R   0.675807 0.734551 0.033910 0.163987
C11   C     C_R   0.170546 0.766560 0.038812 0.170384
C12   C     C_R   0.175800 0.234544 0.033898 0.163988
C13   C     C_R   0.597652 0.226096 0.935172 -0.274921
C14   C     C_R   0.598777 0.768768 0.923543 -0.242685
C15   C     C_R   0.097655 0.726092 0.935181 -0.274924
C16   C     C_R   0.098770 0.268762 0.923530 -0.242690
C17   C     C_R   0.596673 0.193681 0.834715 -0.208702
C18   C     C_R   0.594593 0.796951 0.817089 -0.203193
C19   C     C_R   0.096676 0.693677 0.834721 -0.208697
C20   C     C_R   0.094590 0.296948 0.817082 -0.203193
C21   C     C_R   0.316546 0.817017 0.148670 -0.253625
C22   C     C_R   0.315981 0.176812 0.134185 -0.248815
C23   C     C_R   0.816545 0.317017 0.148668 -0.253625
C24   C     C_R   0.815982 0.676813 0.134187 -0.248814
C25   C     C_R   0.240467 0.842083 0.240303 -0.205634
C26   C     C_R   0.257624 0.176992 0.257501 -0.239549
C27   C     C_R   0.740465 0.342085 0.240298 -0.205634
C28   C     C_R   0.757635 0.677002 0.257516 -0.239543
C29   C     C_R   0.672238 0.160971 0.738793 -0.167432
C30   C     C_R   0.673382 0.839732 0.735324 -0.151604
C31   C     C_R   0.172238 0.660971 0.738794 -0.167431
C32   C     C_R   0.173383 0.339734 0.735326 -0.151615
C33   C     C_R   0.662299 0.938862 0.277214 -0.314107
C34   C     C_R   0.162298 0.438860 0.277213 -0.314104
C35   C     C_R   0.342904 0.005937 0.631833 0.283415
C36   C     C_R   0.842904 0.505939 0.631833 0.283421
C37   C     C_R   0.315014 0.010833 0.713272 0.145484
C38   C     C_R   0.815014 0.510835 0.713271 0.145484
C39   C     C_R   0.387000 0.099911 0.344113 0.789668
C40   C     C_R   0.385059 0.901659 0.342874 0.791338
C41   C     C_R   0.887001 0.599912 0.344114 0.789669
C42   C     C_R   0.885059 0.401659 0.342873 0.791338
C43   C     C_R   0.378390 0.017085 0.856375 -0.241602
C44   C     C_R   0.878390 0.517086 0.856374 -0.241597
C45   C     C_R   0.468065 0.004502 0.925880 -0.073052
C46   C     C_R   0.968064 0.504501 0.925879 -0.073051
C47   C     C_R   0.497349 0.993371 0.845824 0.188193
C48   C     C_R   0.997348 0.493370 0.845824 0.188192
C49   C     C_R   0.526689 0.993483 0.073722 0.000857
C50   C     C_R   0.026688 0.493482 0.073722 0.000855
C51   C     C_R   0.602995 0.952251 0.133407 0.140250
C52   C     C_R   0.102994 0.452249 0.133405 0.140249
C53   C     C_R   0.622265 0.927798 0.050385 -0.277930
C54   C     C_R   0.122263 0.427795 0.050384 -0.277922
C55   C     C_R   0.586805 0.963312 0.925423 0.183265
C56   C     C_R   0.086804 0.463311 0.925423 0.183263
C57   C     C_R   0.509047 0.016351 0.163273 0.012082
C58   C     C_R   0.009046 0.516351 0.163273 0.012083
C59   C     C_R   0.643710 0.964869 0.360348 0.082142
C60   C     C_R   0.143710 0.464869 0.360347 0.082144
C61   C     C_R   0.669824 0.298865 0.139147 -0.185497
C62   C     C_R   0.684004 0.715160 0.150148 -0.201600
C63   C     C_R   0.169827 0.798861 0.139154 -0.185500
C64   C     C_R   0.183993 0.215150 0.150131 -0.201597
C65   C     C_R   0.314125 0.851334 0.245571 -0.042873
C66   C     C_R   0.320328 0.153075 0.246182 -0.033022
C67   C     C_R   0.814124 0.351335 0.245569 -0.042873
C68   C     C_R   0.820333 0.653078 0.246188 -0.033021
C69   C     C_R   0.737997 0.177977 0.728602 -0.296169
C70   C     C_R   0.741604 0.829577 0.729139 -0.322261
C71   C     C_R   0.237996 0.677977 0.728602 -0.296169
C72   C     C_R   0.241609 0.329582 0.729149 -0.322251
C73   C     C_R   0.299876 0.731299 0.810482 0.500881
C74   C     C_R   0.301824 0.273404 0.798122 0.510906
C75   C     C_R   0.799876 0.231299 0.810481 0.500880
C76   C     C_R   0.801823 0.773401 0.798117 0.510910
C77   C     C_R   0.304177 0.762617 0.915747 -0.283636
C78   C     C_R   0.304563 0.236432 0.899007 -0.258127
C79   C     C_R   0.804177 0.262618 0.915745 -0.283638
C80   C     C_R   0.804563 0.736431 0.899005 -0.258124
C81   C     C_R   0.740770 0.245733 0.932911 0.007013
C82   C     C_R   0.740811 0.749612 0.918054 0.003678
C83   C     C_R   0.240771 0.745731 0.932914 0.007012
C84   C     C_R   0.240809 0.249612 0.918052 0.003679
C85   C     C_R   0.669334 0.199114 0.834950 0.089509
C86   C     C_R   0.668967 0.795890 0.822684 0.076671
C87   C     C_R   0.169335 0.699112 0.834953 0.089506
C88   C     C_R   0.168966 0.295889 0.822682 0.076672
Cu1   Cu    Cu3+1 0.526340 0.000000 0.421010 0.933789
Cu2   Cu    Cu3+1 0.026340 0.500000 0.421010 0.933789
Cu3   Cu    Cu3+1 0.473640 0.000000 0.578990 0.906371
Cu4   Cu    Cu3+1 0.973640 0.500000 0.578990 0.906373
H1    H     H_    0.235779 0.869739 0.311058 0.135816
H2    H     H_    0.264961 0.165250 0.348532 0.171301
H3    H     H_    0.735776 0.369741 0.311053 0.135816
H4    H     H_    0.764976 0.665262 0.348552 0.171298
H5    H     H_    0.682662 0.896690 0.101399 0.157374
H6    H     H_    0.182659 0.396686 0.101397 0.157374
H7    H     H_    0.722834 0.908639 0.325299 0.133065
H8    H     H_    0.222832 0.408637 0.325298 0.133065
H9    H     H_    0.450230 0.046126 0.124804 0.114404
H10   H     H_    0.950230 0.546126 0.124804 0.114403
H11   H     H_    0.353727 0.020648 0.913146 0.148285
H12   H     H_    0.853726 0.520648 0.913145 0.148284
H13   H     H_    0.540525 0.219433 0.931145 0.202986
H14   H     H_    0.542475 0.775319 0.921375 0.196981
H15   H     H_    0.040529 0.719428 0.931155 0.202983
H16   H     H_    0.042467 0.275311 0.921359 0.196987
H17   H     H_    0.613374 0.292314 0.136858 0.140813
H18   H     H_    0.633603 0.729864 0.158322 0.146774
H19   H     H_    0.113378 0.792309 0.136866 0.140811
H20   H     H_    0.133589 0.229849 0.158300 0.146774
H21   H     H_    0.376384 0.822559 0.160579 0.154563
H22   H     H_    0.368165 0.161365 0.131479 0.145961
H23   H     H_    0.876384 0.322559 0.160579 0.154563
H24   H     H_    0.868163 0.661361 0.131475 0.145960
H25   H     H_    0.740281 0.151535 0.653714 0.177529
H26   H     H_    0.746264 0.865722 0.667200 0.140842
H27   H     H_    0.240280 0.651536 0.653713 0.177529
H28   H     H_    0.246275 0.365731 0.667222 0.140853
H29   H     H_    0.354277 0.803203 0.975907 0.152146
H30   H     H_    0.355599 0.196825 0.958322 0.143596
H31   H     H_    0.854276 0.303205 0.975905 0.152147
H32   H     H_    0.855600 0.696826 0.958323 0.143596
H33   H     H_    0.535442 0.166993 0.754951 0.204334
H34   H     H_    0.532672 0.819861 0.730401 0.183758
H35   H     H_    0.035443 0.666991 0.754958 0.204338
H36   H     H_    0.032669 0.319860 0.730394 0.183757
H37   H     H_    0.689399 0.953329 0.470948 0.122723
H38   H     H_    0.189398 0.453328 0.470948 0.122725
N1    N     N_R   0.566260 0.000000 0.302220 -0.186308
N2    N     N_R   0.066260 0.500000 0.302220 -0.186309
N3    N     N_R   0.434410 0.000000 0.697680 -0.243550
N4    N     N_R   0.934410 0.500000 0.697680 -0.243549
O1    O     O_R   0.608610 0.924520 0.551740 -0.592753
O2    O     O_R   0.608610 0.075480 0.551740 -0.577280
O3    O     O_R   0.108610 0.424520 0.551740 -0.592753
O4    O     O_R   0.108610 0.575480 0.551740 -0.577280
O5    O     O_R   0.564110 0.924510 0.685150 -0.605463
O6    O     O_R   0.564110 0.075490 0.685150 -0.599819
O7    O     O_R   0.064110 0.424510 0.685150 -0.605463
O8    O     O_R   0.064110 0.575490 0.685150 -0.599822
O9    O     O_R   0.435880 0.075470 0.314850 -0.594636
O10   O     O_R   0.435880 0.924530 0.314850 -0.575483
O11   O     O_R   0.935880 0.575470 0.314850 -0.594637
O12   O     O_R   0.935880 0.424530 0.314850 -0.575483
O13   O     O_R   0.391380 0.075460 0.448260 -0.594111
O14   O     O_R   0.391380 0.924540 0.448260 -0.621027
O15   O     O_R   0.891380 0.575460 0.448260 -0.594109
O16   O     O_R   0.891380 0.424540 0.448260 -0.621027
C89   C     C_3   0.268043 0.001412 0.472921 -0.356423
C90   C     C_3   0.203525 0.063960 0.408861 -0.866908
H39   H     H_    0.142875 0.053646 0.397040 0.251682
H40   H     H_    0.237144 0.112073 0.473357 0.256266
H41   H     H_    0.177428 0.072690 0.300187 0.242399
H42   H     H_    0.291812 0.997226 0.414872 0.262856
H43   H     H_    0.228582 0.952556 0.446643 0.142618
C91   C     C_3   0.768043 0.501415 0.472920 -0.356426
C92   C     C_3   0.703530 0.563967 0.408863 -0.866884
H44   H     H_    0.642878 0.553656 0.397037 0.251678
H45   H     H_    0.737154 0.612078 0.473364 0.256271
H46   H     H_    0.677438 0.572699 0.300192 0.242401
H47   H     H_    0.791812 0.497226 0.414871 0.262854
H48   H     H_    0.728578 0.452562 0.446640 0.142613
C93   C     C_3   0.218845 0.002511 0.657308 -0.412444
C94   C     C_3   0.181255 0.072002 0.662028 -0.789887
H49   H     H_    0.217070 0.088411 0.772159 0.246218
H50   H     H_    0.188157 0.114568 0.608330 0.258605
H51   H     H_    0.109138 0.065176 0.609684 0.235678
H52   H     H_    0.172857 0.978754 0.551890 0.198642
H53   H     H_    0.217813 0.963752 0.723510 0.188687
C95   C     C_3   0.718844 0.502517 0.657304 -0.412452
C96   C     C_3   0.681258 0.572010 0.662028 -0.789877
H54   H     H_    0.717074 0.588418 0.772161 0.246218
H55   H     H_    0.688163 0.614576 0.608333 0.258612
H56   H     H_    0.609140 0.565187 0.609684 0.235677
H57   H     H_    0.672854 0.478763 0.551884 0.198644
H58   H     H_    0.717808 0.463757 0.723502 0.188688
C97   C     C_3   0.667087 0.993296 0.943418 -0.314162
C98   C     C_3   0.709696 0.055838 0.044749 -0.829872
H59   H     H_    0.657301 0.091503 0.023175 0.271340
H60   H     H_    0.749638 0.037154 0.154475 0.244843
H61   H     H_    0.755254 0.085067 0.035261 0.244749
H62   H     H_    0.719905 0.952398 0.988363 0.166135
H63   H     H_    0.658562 0.005468 0.851247 0.239208
C99   C     C_3   0.167086 0.493294 0.943419 -0.314167
C100  C     C_3   0.209698 0.555834 0.044754 -0.829876
H64   H     H_    0.157304 0.591499 0.023185 0.271340
H65   H     H_    0.249640 0.537148 0.154479 0.244844
H66   H     H_    0.255255 0.585063 0.035267 0.244750
H67   H     H_    0.219903 0.452395 0.988360 0.166139
H68   H     H_    0.158561 0.505469 0.851248 0.239210
O17   O     O_3   0.356049 0.754191 0.786019 -0.587013
C101  C     C_3   0.306163 0.799669 0.669517 0.020818
H69   H     H_    0.282848 0.846527 0.692066 0.141058
H70   H     H_    0.247330 0.772238 0.574089 0.146760
C102  C     C_3   0.365473 0.824800 0.638457 -0.766469
H71   H     H_    0.389903 0.779003 0.616162 0.247778
H72   H     H_    0.326871 0.859052 0.545864 0.208595
H73   H     H_    0.422108 0.855424 0.729289 0.242782
O18   O     O_3   0.361314 0.255178 0.775064 -0.589681
C103  C     C_3   0.329521 0.276952 0.640474 0.053316
H74   H     H_    0.337888 0.334760 0.638878 0.144940
H75   H     H_    0.258174 0.260943 0.556820 0.144494
C104  C     C_3   0.383741 0.244851 0.605046 -0.841199
H76   H     H_    0.385331 0.186744 0.615328 0.263955
H77   H     H_    0.353352 0.259040 0.496216 0.207435
H78   H     H_    0.451579 0.268489 0.673469 0.254933
O19   O     O_3   0.856048 0.254191 0.786016 -0.587017
C105  C     C_3   0.806162 0.299669 0.669515 0.020818
H79   H     H_    0.782846 0.346527 0.692063 0.141059
H80   H     H_    0.747329 0.272238 0.574087 0.146762
C106  C     C_3   0.865470 0.324801 0.638452 -0.766468
H81   H     H_    0.889899 0.279005 0.616153 0.247775
H82   H     H_    0.826868 0.359055 0.545862 0.208594
H83   H     H_    0.922107 0.355425 0.729286 0.242784
O20   O     O_3   0.861312 0.755172 0.775058 -0.589678
C107  C     C_3   0.829545 0.776976 0.640497 0.053308
H84   H     H_    0.837944 0.834784 0.638963 0.144945
H85   H     H_    0.758190 0.760993 0.556814 0.144496
C108  C     C_3   0.883755 0.744871 0.605053 -0.841199
H86   H     H_    0.885331 0.686763 0.615314 0.263958
H87   H     H_    0.853366 0.759067 0.496226 0.207434
H88   H     H_    0.951598 0.768499 0.673481 0.254923

loop_
_geom_bond_atom_site_label_1
_geom_bond_atom_site_label_2
_ccdc_geom_bond_type
C95   H57   S    
C26   H2    S    
C101  H70   S    
C25   H1    S    
C93   C94   S    
Cu1   O1    S    
C73   O17   S    
C72   C74   A    
O18   C103  S    
C14   C18   A    
C53   C55   A    
C27   H3    S    
C3    O7    A    
Cu1   O10   S    
C61   H17   S    
C35   N3    A    
Cu3   O13   S    
C44   H12   S    
C82   C86   A    
C32   C72   A    
C104  H76   S    
C98   H59   S    
C15   C19   A    
C59   N1    A    
C18   C86   A    
C103  H75   S    
C13   C17   A    
C2    C29   S    
C9    C61   A    
C89   H43   S    
C48   N4    A    
C28   C68   A    
C23   H23   S    
C5    C11   A    
Cu2   O11   S    
C19   C87   A    
C6    C12   A    
C12   C64   A    
C64   H20   S    
C101  C102  S    
C41   O15   A    
C77   C83   A    
C23   C67   A    
C6    C22   A    
C49   C57   A    
C41   O11   A    
C48   C56   A    
C25   C63   A    
C15   H15   S    
C99   H67   S    
C102  H72   S    
C9    C13   A    
C22   C66   A    
C100  H66   S    
C26   C64   A    
C34   C52   A    
C27   C61   A    
C30   C70   A    
C11   C15   A    
C59   H37   S    
C12   C16   A    
C58   N2    A    
C49   C51   A    
C103  C104  S    
Cu3   N3    S    
C34   H8    S    
C89   C90   S    
C92   H45   S    
C3    O3    A    
C30   C86   A    
Cu4   O8    S    
C29   C85   A    
C1    O5    A    
C98   H61   S    
C36   C91   S    
C34   C60   A    
Cu2   N2    S    
C45   C47   A    
C101  H69   S    
C33   C59   A    
Cu1   O2    S    
C47   N3    A    
C94   H50   S    
C60   N2    A    
C94   H49   S    
C10   C62   A    
C35   C89   S    
C42   O16   A    
C17   C85   A    
C21   C65   A    
Cu3   O14   S    
Cu2   O4    S    
C52   C54   A    
C41   C68   S    
C29   C69   A    
C96   H55   S    
Cu2   Cu4   S    
C46   C48   A    
C6    C84   A    
C103  H74   S    
C40   O14   A    
C26   C66   A    
C106  H81   S    
C84   C88   A    
C31   C87   A    
C13   H13   S    
C10   C14   A    
C60   H38   S    
C71   C73   A    
C77   H29   S    
C24   C68   A    
C37   C93   S    
C44   C46   A    
C53   H5    S    
O20   C107  S    
C96   H54   S    
C79   H31   S    
C2    O2    A    
C33   C51   A    
C97   C98   S    
C33   H7    S    
C50   C58   A    
C37   C43   A    
C102  H73   S    
C5    C83   A    
C38   C44   A    
C108  H86   S    
C50   C52   A    
C92   H44   S    
C62   H18   S    
C90   H41   S    
C45   C49   A    
C76   O20   S    
C16   C20   A    
C4    O8    A    
C72   H28   S    
O19   C105  S    
C92   H46   S    
C25   C65   A    
C89   H42   S    
C99   H68   S    
C38   C95   S    
Cu4   O7    S    
C43   C45   A    
C93   H53   S    
Cu3   O5    S    
C91   H47   S    
C21   H21   S    
C7    C81   A    
C90   H40   S    
C24   H24   S    
C105  H80   S    
C40   C65   S    
C40   O10   A    
Cu4   O16   S    
C91   C92   S    
C39   C66   S    
C8    C82   A    
Cu1   Cu3   S    
C42   O12   A    
Cu2   O3    S    
C95   C96   S    
C107  C108  S    
C47   C55   A    
C97   H62   S    
C80   H32   S    
C106  H83   S    
C95   H58   S    
C93   H52   S    
C7    C9    A    
C75   O19   S    
C98   H60   S    
C35   C37   A    
C55   C97   S    
C57   N1    A    
C8    C10   A    
Cu4   N4    S    
C76   C80   A    
C56   C99   S    
C36   N4    A    
C83   C87   A    
C96   H56   S    
C79   C81   A    
C54   C56   A    
C20   H36   S    
C97   H63   S    
C74   O18   S    
C91   H48   S    
C108  H88   S    
C105  C106  S    
C57   H9    S    
C46   C50   A    
C11   C63   A    
Cu1   N1    S    
C39   O9    A    
C71   H27   S    
C107  H85   S    
C28   H4    S    
C2    O6    A    
C36   C38   A    
C106  H82   S    
C100  H64   S    
Cu2   O12   S    
Cu1   O9    S    
C18   H34   S    
C70   C76   A    
C17   H33   S    
C107  H84   S    
C42   C67   S    
C70   H26   S    
C7    C23   A    
C58   H10   S    
C20   C88   A    
C69   H25   S    
C1    C30   S    
C8    C24   A    
C80   C82   A    
C69   C75   A    
C102  H71   S    
C105  H79   S    
C63   H19   S    
C3    C32   S    
C78   H30   S    
C43   H11   S    
C100  H65   S    
C4    C31   S    
C27   C67   A    
C16   H16   S    
C4    O4    A    
Cu3   O6    S    
C78   C84   A    
C22   H22   S    
C5    C21   A    
C90   H39   S    
C94   H51   S    
C108  H87   S    
O17   C101  S    
C74   C78   A    
C14   H14   S    
C39   O13   A    
Cu4   O15   S    
C73   C77   A    
C54   H6    S    
C104  H78   S    
C19   H35   S    
C51   C53   A    
C99   C100  S    
C1    O1    A    
C104  H77   S    
C75   C79   A    
C81   C85   A    
C28   C62   A    
C31   C71   A    
C32   C88   A    
