data_mof_unit_27706.cif
_audit_creation_date              2012-12-10T18:12:13-0500
_audit_creation_method            fapswitch 2.2
_symmetry_space_group_name_H-M    P1
_symmetry_Int_Tables_number       1
_space_group_crystal_system       triclinic
_cell_length_a                    18.356226
_cell_length_b                    18.356225
_cell_length_c                    43.106853
_cell_angle_alpha                 89.999931
_cell_angle_beta                  89.999962
_cell_angle_gamma                 89.781173
_cell_volume                      14524.7919199

loop_
_atom_site_label
_atom_site_type_symbol
_atom_type_description
_atom_site_fract_x
_atom_site_fract_y
_atom_site_fract_z
_atom_type_partial_charge
C1    C     C_R   0.002312 0.433959 0.884668 -0.193000
C2    C     C_R   0.999894 0.566077 0.115337 -0.189170
C3    C     C_R   0.566077 0.999894 0.884662 -0.189170
C4    C     C_R   0.433959 0.002312 0.115332 -0.193006
C5    C     C_R   0.997688 0.566041 0.884668 -0.192996
C6    C     C_R   0.000105 0.433923 0.115338 -0.189170
C7    C     C_R   0.433923 0.000105 0.884662 -0.189170
C8    C     C_R   0.566041 0.997687 0.115332 -0.192995
C9    C     C_R   0.502005 0.933960 0.384668 -0.192796
C10   C     C_R   0.500179 0.066086 0.615336 -0.189285
C11   C     C_R   0.066086 0.500180 0.384663 -0.189285
C12   C     C_R   0.933960 0.502004 0.615332 -0.192796
C13   C     C_R   0.497994 0.066040 0.384668 -0.192800
C14   C     C_R   0.499821 0.933914 0.615337 -0.189284
C15   C     C_R   0.933914 0.499820 0.384663 -0.189284
C16   C     C_R   0.066040 0.497995 0.615332 -0.192799
C17   C     C_R   1.000000 0.500000 0.933331 0.114756
C18   C     C_R   1.000000 0.500000 0.066653 0.114391
C19   C     C_R   0.500000 0.999999 0.933347 0.114390
C20   C     C_R   0.500000 0.999999 0.066669 0.114756
C21   C     C_R   0.499999 1.000000 0.433354 0.115288
C22   C     C_R   0.500000 0.000000 0.566675 0.114010
C23   C     C_R   0.000000 0.500000 0.433325 0.114010
C24   C     C_R   0.000000 0.500000 0.566646 0.115289
C25   C     C_R   0.002232 0.433982 0.916962 -0.183714
C26   C     C_R   0.999861 0.566050 0.083045 -0.181366
C27   C     C_R   0.566050 0.999861 0.916955 -0.181366
C28   C     C_R   0.433983 0.002231 0.083038 -0.183713
C29   C     C_R   0.997768 0.566017 0.916962 -0.183714
C30   C     C_R   0.000138 0.433950 0.083045 -0.181366
C31   C     C_R   0.433950 0.000138 0.916955 -0.181366
C32   C     C_R   0.566017 0.997767 0.083038 -0.183714
C33   C     C_R   0.501977 0.933980 0.416962 -0.183568
C34   C     C_R   0.500095 0.066053 0.583043 -0.181577
C35   C     C_R   0.066053 0.500096 0.416957 -0.181577
C36   C     C_R   0.933980 0.501977 0.583038 -0.183569
C37   C     C_R   0.498022 0.066020 0.416961 -0.183568
C38   C     C_R   0.499904 0.933947 0.583043 -0.181577
C39   C     C_R   0.933947 0.499904 0.416957 -0.181576
C40   C     C_R   0.066020 0.498023 0.583038 -0.183568
C41   C     C_R   0.000000 0.500000 0.868262 -0.004030
C42   C     C_R   1.000000 0.500000 0.131741 0.001694
C43   C     C_R   0.500000 1.000000 0.868259 0.001694
C44   C     C_R   0.500000 1.000000 0.131738 -0.004028
C45   C     C_R   0.500000 1.000000 0.368262 -0.004046
C46   C     C_R   0.500000 0.000000 0.631741 0.001892
C47   C     C_R   1.000000 0.500000 0.368259 0.001893
C48   C     C_R   1.000000 0.500000 0.631738 -0.004047
C49   C     C_R   0.044504 0.548642 0.983816 -0.182680
C50   C     C_R   0.955436 0.451405 0.016110 -0.182325
C51   C     C_R   0.451404 0.955435 0.983890 -0.182325
C52   C     C_R   0.548643 0.044503 0.016184 -0.182681
C53   C     C_R   0.955496 0.451357 0.983816 -0.182681
C54   C     C_R   0.044564 0.548595 0.016110 -0.182325
C55   C     C_R   0.548596 0.044563 0.983890 -0.182325
C56   C     C_R   0.451358 0.955495 0.016184 -0.182680
C57   C     C_R   0.453871 0.047465 0.483896 -0.182747
C58   C     C_R   0.546068 0.952484 0.516190 -0.182342
C59   C     C_R   0.952484 0.546067 0.483810 -0.182341
C60   C     C_R   0.047465 0.453872 0.516104 -0.182747
C61   C     C_R   0.546128 0.952535 0.483896 -0.182747
C62   C     C_R   0.453931 0.047515 0.516190 -0.182341
C63   C     C_R   0.047516 0.453932 0.483810 -0.182342
C64   C     C_R   0.952535 0.546128 0.516104 -0.182747
C65   C     C_R   0.500000 0.000000 0.532560 0.106162
C66   C     C_R   0.499999 1.000000 0.467501 0.106977
C67   C     C_R   1.000000 0.500000 0.532499 0.106977
C68   C     C_R   0.000000 0.500000 0.467440 0.106162
C69   C     C_R   1.000000 0.500000 0.032505 0.106992
C70   C     C_R   1.000000 0.500000 0.967446 0.106168
C71   C     C_R   0.500000 0.999999 0.032554 0.106167
C72   C     C_R   0.500000 0.999999 0.967494 0.106992
C73   C     C_R   0.500000 1.000000 0.834207 0.787559
C74   C     C_R   0.500000 1.000000 0.165793 0.760433
C75   C     C_R   1.000000 0.500000 0.834207 0.760436
C76   C     C_R   1.000000 0.500000 0.165793 0.787559
C77   C     C_R   1.000000 0.500000 0.334207 0.787534
C78   C     C_R   1.000000 0.500000 0.665792 0.760579
C79   C     C_R   0.500000 1.000000 0.334207 0.760577
C80   C     C_R   0.500000 1.000000 0.665793 0.787533
C81   C     C_R   0.640154 0.140156 0.750001 0.900857
C82   C     C_R   0.360014 0.860014 0.250000 0.887657
C83   C     C_R   0.860140 0.639861 0.750000 0.868481
C84   C     C_R   0.140160 0.359839 0.250000 0.926544
C85   C     C_R   0.359846 0.859844 0.750001 0.900856
C86   C     C_R   0.639986 0.139986 0.250000 0.887612
C87   C     C_R   0.139860 0.360138 0.750000 0.868478
C88   C     C_R   0.859839 0.640161 0.250000 0.926553
C89   C     C_R   0.639861 0.860140 0.250000 0.868482
C90   C     C_R   0.359839 0.140160 0.750000 0.926550
C91   C     C_R   0.859844 0.359846 0.249999 0.900854
C92   C     C_R   0.139986 0.639986 0.750000 0.887652
C93   C     C_R   0.360138 0.139860 0.250001 0.868472
C94   C     C_R   0.640161 0.859839 0.750000 0.926554
C95   C     C_R   0.140155 0.640154 0.249999 0.900855
C96   C     C_R   0.860014 0.360014 0.750000 0.887662
C97   C     C_R   0.291466 0.239181 0.723086 0.327207
C98   C     C_R   0.712777 0.767390 0.277707 0.350258
C99   C     C_R   0.734712 0.319338 0.737590 0.313438
C100  C     C_R   0.263599 0.683946 0.265306 0.326592
C101  C     C_R   0.708537 0.760821 0.723086 0.327203
C102  C     C_R   0.287229 0.232616 0.277706 0.350291
C103  C     C_R   0.265289 0.680661 0.737590 0.313433
C104  C     C_R   0.736400 0.316054 0.265305 0.326647
C105  C     C_R   0.319338 0.734712 0.262410 0.313432
C106  C     C_R   0.683945 0.263599 0.734694 0.326585
C107  C     C_R   0.760821 0.708537 0.276914 0.327206
C108  C     C_R   0.232613 0.287225 0.722294 0.350262
C109  C     C_R   0.680662 0.265288 0.262409 0.313409
C110  C     C_R   0.316055 0.736400 0.734694 0.326598
C111  C     C_R   0.239183 0.291468 0.276913 0.327232
C112  C     C_R   0.767390 0.712778 0.722293 0.350258
C113  C     C_R   0.791465 0.739181 0.223087 0.327127
C114  C     C_R   0.212776 0.267388 0.777706 0.350240
C115  C     C_R   0.234717 0.819332 0.237585 0.313319
C116  C     C_R   0.763591 0.183953 0.765313 0.326572
C117  C     C_R   0.208532 0.260816 0.223088 0.327119
C118  C     C_R   0.787221 0.732609 0.777706 0.350238
C119  C     C_R   0.765282 0.180669 0.237584 0.313337
C120  C     C_R   0.236409 0.816046 0.765314 0.326572
C121  C     C_R   0.819332 0.234717 0.762415 0.313317
C122  C     C_R   0.183953 0.763591 0.234687 0.326574
C123  C     C_R   0.260818 0.208533 0.776912 0.327124
C124  C     C_R   0.732610 0.787222 0.222294 0.350234
C125  C     C_R   0.180669 0.765283 0.762416 0.313322
C126  C     C_R   0.816046 0.236410 0.234686 0.326570
C127  C     C_R   0.739180 0.791464 0.776913 0.327125
C128  C     C_R   0.267387 0.212775 0.222294 0.350236
C129  C     C_R   0.195812 0.304188 0.750000 -0.375619
C130  C     C_R   0.803419 0.696583 0.250001 -0.390131
C131  C     C_R   0.696460 0.196466 0.750003 -0.384297
C132  C     C_R   0.303997 0.803993 0.249998 -0.365912
C133  C     C_R   0.804188 0.695812 0.749999 -0.375620
C134  C     C_R   0.196581 0.303417 0.250001 -0.390134
C135  C     C_R   0.303540 0.803534 0.750003 -0.384302
C136  C     C_R   0.696003 0.196007 0.249998 -0.365944
C137  C     C_R   0.196466 0.696460 0.249997 -0.384301
C138  C     C_R   0.803993 0.303997 0.750002 -0.365907
C139  C     C_R   0.695812 0.804188 0.250001 -0.375624
C140  C     C_R   0.303417 0.196581 0.749999 -0.390134
C141  C     C_R   0.803533 0.303540 0.249997 -0.384325
C142  C     C_R   0.196007 0.696003 0.750002 -0.365915
C143  C     C_R   0.304190 0.195813 0.250000 -0.375607
C144  C     C_R   0.696583 0.803419 0.749999 -0.390135
H1    H     H_    0.004400 0.382256 0.872589 0.166401
H2    H     H_    0.999648 0.617828 0.127417 0.153174
H3    H     H_    0.617828 0.999647 0.872582 0.153174
H4    H     H_    0.382256 0.004400 0.127411 0.166397
H5    H     H_    0.995600 0.617744 0.872589 0.166402
H6    H     H_    0.000352 0.382172 0.127417 0.153176
H7    H     H_    0.382172 0.000352 0.872582 0.153175
H8    H     H_    0.617744 0.995599 0.127411 0.166402
H9    H     H_    0.503465 0.882238 0.372589 0.166385
H10   H     H_    0.500541 0.117834 0.627416 0.152967
H11   H     H_    0.117834 0.500543 0.372584 0.152966
H12   H     H_    0.882238 0.503464 0.627411 0.166385
H13   H     H_    0.496534 0.117762 0.372588 0.166383
H14   H     H_    0.499458 0.882165 0.627416 0.152967
H15   H     H_    0.882165 0.499457 0.372584 0.152967
H16   H     H_    0.117762 0.496536 0.627411 0.166384
H17   H     H_    0.080007 0.585935 0.971620 0.131721
H18   H     H_    0.919799 0.414183 0.028271 0.131141
H19   H     H_    0.414183 0.919799 0.971730 0.131141
H20   H     H_    0.585936 0.080006 0.028380 0.131721
H21   H     H_    0.919993 0.414065 0.971620 0.131722
H22   H     H_    0.080200 0.585817 0.028270 0.131141
H23   H     H_    0.585818 0.080199 0.971729 0.131141
H24   H     H_    0.414065 0.919992 0.028380 0.131721
H25   H     H_    0.417037 0.083781 0.471735 0.130993
H26   H     H_    0.582768 0.916090 0.528386 0.131921
H27   H     H_    0.916089 0.582768 0.471614 0.131921
H28   H     H_    0.083783 0.417038 0.528265 0.130994
H29   H     H_    0.582962 0.916218 0.471735 0.130994
H30   H     H_    0.417231 0.083910 0.528386 0.131921
H31   H     H_    0.083911 0.417232 0.471614 0.131921
H32   H     H_    0.916218 0.582961 0.528265 0.130994
O1    O     O_3   0.500000 0.000000 0.750000 -0.490375
O2    O     O_3   0.500000 0.000000 0.250000 -0.505723
O3    O     O_3   0.000000 0.500000 0.750000 -0.505722
O4    O     O_3   0.000000 0.500000 0.250000 -0.490374
O5    O     O_R   0.439140 0.000000 0.819450 -0.657241
O6    O     O_R   0.560860 0.000000 0.180550 -0.644800
O7    O     O_R   0.000000 0.439140 0.819450 -0.644801
O8    O     O_R   1.000000 0.560860 0.180550 -0.657241
O9    O     O_R   0.560860 0.000000 0.819450 -0.657241
O10   O     O_R   0.439140 0.000000 0.180550 -0.644802
O11   O     O_R   0.000000 0.560860 0.819450 -0.644798
O12   O     O_R   0.000000 0.439140 0.180550 -0.657239
O13   O     O_R   0.939140 0.500000 0.319450 -0.657246
O14   O     O_R   0.060860 0.500000 0.680550 -0.644781
O15   O     O_R   0.500000 0.939140 0.319450 -0.644778
O16   O     O_R   0.500000 0.060860 0.680550 -0.657246
O17   O     O_R   0.060860 0.500000 0.319450 -0.657248
O18   O     O_R   0.939140 0.500000 0.680550 -0.644778
O19   O     O_R   0.500000 0.060860 0.319450 -0.644783
O20   O     O_R   0.500000 0.939140 0.680550 -0.657246
O21   O     O_R   0.646030 0.085480 0.768310 -0.633371
O22   O     O_R   0.353970 0.914520 0.231690 -0.607504
O23   O     O_R   0.914520 0.646030 0.768310 -0.624044
O24   O     O_R   0.085480 0.353970 0.231690 -0.636064
O25   O     O_R   0.353970 0.914520 0.768310 -0.633370
O26   O     O_R   0.646030 0.085480 0.231690 -0.607495
O27   O     O_R   0.085480 0.353970 0.768310 -0.624043
O28   O     O_R   0.914520 0.646030 0.231690 -0.636066
O29   O     O_R   0.646030 0.914520 0.231690 -0.624044
O30   O     O_R   0.353970 0.085480 0.768310 -0.636066
O31   O     O_R   0.914520 0.353970 0.231690 -0.633367
O32   O     O_R   0.085480 0.646030 0.768310 -0.607502
O33   O     O_R   0.353970 0.085480 0.231690 -0.624056
O34   O     O_R   0.646030 0.914520 0.768310 -0.636067
O35   O     O_R   0.085480 0.646030 0.231690 -0.633370
O36   O     O_R   0.914520 0.353970 0.768310 -0.607504
O37   O     O_R   0.146030 0.585480 0.268310 -0.633366
O38   O     O_R   0.853970 0.414520 0.731690 -0.607418
O39   O     O_R   0.414520 0.146030 0.268310 -0.624010
O40   O     O_R   0.585480 0.853970 0.731690 -0.636087
O41   O     O_R   0.853970 0.414520 0.268310 -0.633372
O42   O     O_R   0.146030 0.585480 0.731690 -0.607421
O43   O     O_R   0.585480 0.853970 0.268310 -0.624061
O44   O     O_R   0.414520 0.146030 0.731690 -0.636086
O45   O     O_R   0.146030 0.414520 0.731690 -0.624058
O46   O     O_R   0.853970 0.585480 0.268310 -0.636086
O47   O     O_R   0.414520 0.853970 0.731690 -0.633367
O48   O     O_R   0.585480 0.146030 0.268310 -0.607426
O49   O     O_R   0.853970 0.585480 0.731690 -0.624067
O50   O     O_R   0.146030 0.414520 0.268310 -0.636090
O51   O     O_R   0.585480 0.146030 0.731690 -0.633365
O52   O     O_R   0.414520 0.853970 0.268310 -0.607418
Zn1   Zn    Zn3+2 0.500000 0.086800 0.724180 0.953961
Zn2   Zn    Zn3+2 0.500000 0.913200 0.275820 0.962529
Zn3   Zn    Zn3+2 0.913200 0.500000 0.724180 0.962528
Zn4   Zn    Zn3+2 0.086800 0.500000 0.275820 0.953957
Zn5   Zn    Zn3+2 0.500000 0.913200 0.724180 0.953961
Zn6   Zn    Zn3+2 0.500000 0.086800 0.275820 0.962535
Zn7   Zn    Zn3+2 0.086800 0.500000 0.724180 0.962527
Zn8   Zn    Zn3+2 0.913200 0.500000 0.275820 0.953961
Zn9   Zn    Zn3+2 1.000000 0.586800 0.224180 0.953990
Zn10  Zn    Zn3+2 0.000000 0.413200 0.775820 0.962440
Zn11  Zn    Zn3+2 0.413200 0.000000 0.224180 0.962433
Zn12  Zn    Zn3+2 0.586800 0.000000 0.775820 0.953989
Zn13  Zn    Zn3+2 0.000000 0.413200 0.224180 0.953991
Zn14  Zn    Zn3+2 1.000000 0.586800 0.775820 0.962441
Zn15  Zn    Zn3+2 0.586800 0.000000 0.224180 0.962438
Zn16  Zn    Zn3+2 0.413200 0.000000 0.775820 0.953989
O53   O     O_3   0.330978 0.227780 0.696100 -0.620278
C145  C     C_3   0.392672 0.274127 0.695521 0.186875
H33   H     H_    0.436795 0.244178 0.683277 0.166293
H34   H     H_    0.414307 0.287327 0.719066 0.122292
C146  C     C_3   0.376778 0.344441 0.677577 -0.354741
H35   H     H_    0.351908 0.331029 0.654782 0.242403
H36   H     H_    0.338052 0.378689 0.690901 0.252628
C147  C     C_3   0.446138 0.388307 0.672300 -1.005439
H37   H     H_    0.472873 0.400943 0.694786 0.281200
H38   H     H_    0.432458 0.440339 0.660479 0.274310
H39   H     H_    0.484498 0.357168 0.657417 0.271566
O54   O     O_3   0.679049 0.785208 0.305476 -0.616651
C148  C     C_3   0.711517 0.848065 0.318472 0.129630
H40   H     H_    0.669739 0.875035 0.333228 0.163274
H41   H     H_    0.728099 0.889124 0.300785 0.090423
C149  C     C_3   0.776731 0.827228 0.338852 -0.328840
H42   H     H_    0.760180 0.784289 0.355588 0.242848
H43   H     H_    0.821306 0.805319 0.324077 0.232243
C150  C     C_3   0.805252 0.892894 0.356769 -0.994483
H44   H     H_    0.822531 0.936436 0.340498 0.261792
H45   H     H_    0.852919 0.876242 0.370990 0.274079
H46   H     H_    0.762369 0.914653 0.372457 0.268117
O55   O     O_3   0.717685 0.387822 0.726238 -0.602441
C151  C     C_3   0.680929 0.427430 0.749585 0.135278
H47   H     H_    0.716139 0.433400 0.770510 0.105580
H48   H     H_    0.629208 0.399840 0.756202 0.156808
C152  C     C_3   0.662619 0.503196 0.737117 -0.317819
H49   H     H_    0.713763 0.531339 0.730454 0.252933
H50   H     H_    0.627887 0.497808 0.716125 0.230026
C153  C     C_3   0.622470 0.549134 0.761199 -1.013023
H51   H     H_    0.569686 0.523466 0.767301 0.270069
H52   H     H_    0.611620 0.604220 0.751624 0.265695
H53   H     H_    0.656041 0.554958 0.782451 0.261226
O56   O     O_3   0.278251 0.619389 0.280813 -0.613796
C154  C     C_3   0.256688 0.625716 0.312316 0.168510
H54   H     H_    0.238986 0.570868 0.320056 0.158713
H55   H     H_    0.208894 0.662665 0.315859 0.105382
C155  C     C_3   0.320363 0.650070 0.332791 -0.344734
H56   H     H_    0.369608 0.617113 0.327289 0.247379
H57   H     H_    0.332558 0.708278 0.328234 0.249185
C156  C     C_3   0.302225 0.641701 0.367157 -1.006888
H58   H     H_    0.253880 0.675399 0.373213 0.269444
H59   H     H_    0.349171 0.660074 0.381350 0.277216
H60   H     H_    0.290849 0.583805 0.372789 0.261279
O57   O     O_3   0.669026 0.772224 0.696099 -0.620276
C157  C     C_3   0.607332 0.725876 0.695520 0.186868
H61   H     H_    0.563209 0.755825 0.683275 0.166290
H62   H     H_    0.585696 0.712676 0.719064 0.122300
C158  C     C_3   0.623229 0.655562 0.677575 -0.354739
H63   H     H_    0.648098 0.668974 0.654780 0.242404
H64   H     H_    0.661955 0.621315 0.690900 0.252632
C159  C     C_3   0.553869 0.611694 0.672299 -1.005439
H65   H     H_    0.527135 0.599057 0.694784 0.281204
H66   H     H_    0.567551 0.559664 0.660477 0.274310
H67   H     H_    0.515509 0.642833 0.657415 0.271565
O58   O     O_3   0.320962 0.214804 0.305475 -0.616658
C160  C     C_3   0.288498 0.151949 0.318474 0.129626
H68   H     H_    0.330279 0.124984 0.333230 0.163279
H69   H     H_    0.271915 0.110885 0.300789 0.090415
C161  C     C_3   0.223285 0.172788 0.338855 -0.328843
H70   H     H_    0.239837 0.215732 0.355588 0.242849
H71   H     H_    0.178708 0.194691 0.324080 0.232244
C162  C     C_3   0.194770 0.107125 0.356775 -0.994479
H72   H     H_    0.177490 0.063579 0.340507 0.261794
H73   H     H_    0.147104 0.123779 0.370997 0.274079
H74   H     H_    0.237657 0.085372 0.372464 0.268116
O59   O     O_3   0.282316 0.612178 0.726238 -0.602441
C163  C     C_3   0.319059 0.572566 0.749588 0.135307
H75   H     H_    0.283832 0.566582 0.770507 0.105589
H76   H     H_    0.370771 0.600162 0.756215 0.156768
C164  C     C_3   0.337392 0.496808 0.737117 -0.317806
H77   H     H_    0.286258 0.468660 0.730443 0.252926
H78   H     H_    0.372145 0.502211 0.716131 0.230015
C165  C     C_3   0.377523 0.450865 0.761203 -1.012983
H79   H     H_    0.430291 0.476546 0.767323 0.270051
H80   H     H_    0.388405 0.395789 0.751623 0.265692
H81   H     H_    0.343922 0.445014 0.782446 0.261218
O60   O     O_3   0.721745 0.380613 0.280810 -0.613747
C166  C     C_3   0.743307 0.374291 0.312314 0.168523
H82   H     H_    0.761011 0.429140 0.320052 0.158711
H83   H     H_    0.791099 0.337340 0.315858 0.105371
C167  C     C_3   0.679630 0.349944 0.332789 -0.344722
H84   H     H_    0.630386 0.382902 0.327286 0.247369
H85   H     H_    0.667433 0.291735 0.328234 0.249190
C168  C     C_3   0.697767 0.358320 0.367155 -1.006898
H86   H     H_    0.746109 0.324620 0.373212 0.269446
H87   H     H_    0.650819 0.339952 0.381348 0.277216
H88   H     H_    0.709147 0.416215 0.372785 0.261278
O61   O     O_3   0.387822 0.717685 0.273762 -0.602439
C169  C     C_3   0.427431 0.680933 0.250414 0.135297
H89   H     H_    0.433410 0.716151 0.229492 0.105580
H90   H     H_    0.399835 0.629217 0.243792 0.156789
C170  C     C_3   0.503191 0.662607 0.262884 -0.317806
H91   H     H_    0.531341 0.713746 0.269551 0.252915
H92   H     H_    0.497793 0.627868 0.283874 0.230025
C171  C     C_3   0.549128 0.622460 0.238801 -1.012957
H93   H     H_    0.523448 0.569685 0.232691 0.270078
H94   H     H_    0.604209 0.611589 0.248380 0.265694
H95   H     H_    0.554971 0.656044 0.217553 0.261206
O62   O     O_3   0.619388 0.278252 0.719188 -0.613798
C172  C     C_3   0.625715 0.256691 0.687685 0.168515
H96   H     H_    0.570867 0.238987 0.679945 0.158714
H97   H     H_    0.662665 0.208898 0.684141 0.105379
C173  C     C_3   0.650064 0.320368 0.667210 -0.344736
H98   H     H_    0.617108 0.369612 0.672714 0.247378
H99   H     H_    0.708273 0.332563 0.671766 0.249186
C174  C     C_3   0.641691 0.302233 0.632844 -1.006890
H100  H     H_    0.675389 0.253889 0.626787 0.269445
H101  H     H_    0.660061 0.349181 0.618651 0.277215
H102  H     H_    0.583795 0.290856 0.627213 0.261280
O63   O     O_3   0.772224 0.669026 0.303901 -0.620278
C175  C     C_3   0.725876 0.607332 0.304480 0.186866
H103  H     H_    0.755824 0.563210 0.316726 0.166288
H104  H     H_    0.712677 0.585695 0.280936 0.122303
C176  C     C_3   0.655561 0.623229 0.322424 -0.354730
H105  H     H_    0.668972 0.648101 0.345219 0.242404
H106  H     H_    0.621315 0.661954 0.309099 0.252627
C177  C     C_3   0.611694 0.553870 0.327701 -1.005452
H107  H     H_    0.599059 0.527133 0.305216 0.281204
H108  H     H_    0.559662 0.567552 0.339522 0.274310
H109  H     H_    0.642832 0.515511 0.342586 0.271566
O64   O     O_3   0.214797 0.320956 0.694524 -0.616652
C178  C     C_3   0.151941 0.288490 0.681527 0.129634
H110  H     H_    0.124974 0.330269 0.666770 0.163275
H111  H     H_    0.110880 0.271909 0.699213 0.090419
C179  C     C_3   0.172779 0.223275 0.661147 -0.328846
H112  H     H_    0.215720 0.239825 0.644413 0.242850
H113  H     H_    0.194685 0.178700 0.675923 0.232243
C180  C     C_3   0.107114 0.194756 0.643229 -0.994481
H114  H     H_    0.063570 0.177477 0.659500 0.261794
H115  H     H_    0.123767 0.147088 0.629008 0.274079
H116  H     H_    0.085358 0.237640 0.627541 0.268116
O65   O     O_3   0.612179 0.282318 0.273763 -0.602437
C181  C     C_3   0.572552 0.319023 0.250407 0.135413
H117  H     H_    0.566501 0.283733 0.229511 0.105635
H118  H     H_    0.600175 0.370693 0.243739 0.156613
C182  C     C_3   0.496834 0.337457 0.262895 -0.317767
H119  H     H_    0.468662 0.286369 0.269615 0.252900
H120  H     H_    0.502305 0.372286 0.283855 0.229993
C183  C     C_3   0.450869 0.377531 0.238800 -1.012971
H121  H     H_    0.476621 0.430215 0.232606 0.270034
H122  H     H_    0.395849 0.388571 0.248409 0.265717
H123  H     H_    0.444874 0.343815 0.217599 0.261228
O66   O     O_3   0.380613 0.721747 0.719189 -0.613786
C184  C     C_3   0.374288 0.743307 0.687685 0.168520
H124  H     H_    0.429137 0.761012 0.679946 0.158714
H125  H     H_    0.337337 0.791100 0.684141 0.105376
C185  C     C_3   0.349941 0.679630 0.667211 -0.344733
H126  H     H_    0.382899 0.630386 0.672714 0.247375
H127  H     H_    0.291732 0.667433 0.671766 0.249188
C186  C     C_3   0.358315 0.697765 0.632845 -1.006892
H128  H     H_    0.324615 0.746108 0.626787 0.269445
H129  H     H_    0.339946 0.650817 0.618652 0.277216
H130  H     H_    0.416211 0.709144 0.627214 0.261279
O67   O     O_3   0.227780 0.330978 0.303900 -0.620288
C187  C     C_3   0.274123 0.392676 0.304479 0.186883
H131  H     H_    0.244171 0.436796 0.316723 0.166298
H132  H     H_    0.287323 0.414311 0.280934 0.122275
C188  C     C_3   0.344437 0.376786 0.322425 -0.354750
H133  H     H_    0.331025 0.351912 0.345219 0.242405
H134  H     H_    0.378690 0.338065 0.309100 0.252619
C189  C     C_3   0.388296 0.446150 0.327703 -1.005444
H135  H     H_    0.400926 0.472893 0.305219 0.281181
H136  H     H_    0.440331 0.432472 0.339523 0.274314
H137  H     H_    0.357154 0.484501 0.342590 0.271566
O68   O     O_3   0.785208 0.679050 0.694524 -0.616650
C190  C     C_3   0.848065 0.711517 0.681528 0.129626
H138  H     H_    0.875031 0.669742 0.666769 0.163277
H139  H     H_    0.889127 0.728093 0.699215 0.090426
C191  C     C_3   0.827230 0.776738 0.661151 -0.328849
H140  H     H_    0.784286 0.760194 0.644417 0.242859
H141  H     H_    0.805328 0.821311 0.675929 0.232236
C192  C     C_3   0.892894 0.805258 0.643233 -0.994490
H142  H     H_    0.936442 0.822527 0.659503 0.261794
H143  H     H_    0.876244 0.852930 0.629015 0.274081
H144  H     H_    0.914645 0.762377 0.627542 0.268119
O69   O     O_3   0.830976 0.727780 0.196100 -0.620028
C193  C     C_3   0.892673 0.774124 0.195523 0.186951
H145  H     H_    0.936798 0.744172 0.183281 0.166392
H146  H     H_    0.914304 0.787327 0.219068 0.122180
C194  C     C_3   0.876785 0.844437 0.177577 -0.354363
H147  H     H_    0.851924 0.831022 0.154780 0.243040
H148  H     H_    0.838053 0.878685 0.190898 0.252501
C195  C     C_3   0.946148 0.888301 0.172304 -1.005122
H149  H     H_    0.972872 0.900943 0.194791 0.281089
H150  H     H_    0.932473 0.940329 0.160479 0.274356
H151  H     H_    0.984516 0.857158 0.157425 0.271665
O70   O     O_3   0.179054 0.285208 0.805476 -0.616500
C196  C     C_3   0.211516 0.348073 0.818467 0.129262
H152  H     H_    0.169754 0.375014 0.833241 0.163554
H153  H     H_    0.228040 0.389150 0.800778 0.090278
C197  C     C_3   0.276784 0.327262 0.838822 -0.327943
H154  H     H_    0.260290 0.284306 0.855560 0.243917
H155  H     H_    0.321340 0.305384 0.824028 0.231908
C198  C     C_3   0.305306 0.392935 0.856733 -0.992841
H156  H     H_    0.322527 0.436495 0.840459 0.261069
H157  H     H_    0.353012 0.376302 0.870935 0.274444
H158  H     H_    0.262444 0.414663 0.872439 0.268704
O71   O     O_3   0.217685 0.887817 0.226235 -0.602516
C199  C     C_3   0.180941 0.927422 0.249587 0.135415
H159  H     H_    0.216164 0.933392 0.270508 0.105726
H160  H     H_    0.129226 0.899828 0.256210 0.156816
C200  C     C_3   0.162618 0.003188 0.237123 -0.317949
H161  H     H_    0.213757 0.031335 0.230452 0.252944
H162  H     H_    0.127869 0.997800 0.216135 0.230014
C201  C     C_3   0.122487 0.049122 0.261212 -1.012830
H163  H     H_    0.069709 0.023449 0.267322 0.270071
H164  H     H_    0.111625 0.104209 0.251638 0.265663
H165  H     H_    0.156078 0.054947 0.282459 0.261229
O72   O     O_3   0.778242 0.119399 0.780822 -0.613837
C202  C     C_3   0.756666 0.125729 0.812324 0.168445
H166  H     H_    0.738973 0.070878 0.820065 0.158788
H167  H     H_    0.708862 0.162668 0.815862 0.105122
C203  C     C_3   0.820327 0.150101 0.832802 -0.342746
H168  H     H_    0.869580 0.117152 0.827306 0.247348
H169  H     H_    0.832513 0.208311 0.828242 0.248831
C204  C     C_3   0.802175 0.141740 0.867168 -1.011856
H170  H     H_    0.753815 0.175424 0.873217 0.268515
H171  H     H_    0.849107 0.160135 0.881364 0.276880
H172  H     H_    0.790816 0.083842 0.872803 0.261843
O73   O     O_3   0.169016 0.272213 0.196102 -0.620011
C205  C     C_3   0.107318 0.225870 0.195528 0.186967
H173  H     H_    0.063191 0.255823 0.183288 0.166398
H174  H     H_    0.085693 0.212669 0.219074 0.122171
C206  C     C_3   0.123201 0.155556 0.177581 -0.354364
H175  H     H_    0.148058 0.168970 0.154783 0.243048
H176  H     H_    0.161935 0.121308 0.190901 0.252501
C207  C     C_3   0.053835 0.111694 0.172311 -1.005116
H177  H     H_    0.027116 0.099054 0.194800 0.281091
H178  H     H_    0.067507 0.059664 0.160486 0.274354
H179  H     H_    0.015466 0.142837 0.157434 0.271666
O74   O     O_3   0.820940 0.714785 0.805477 -0.616499
C208  C     C_3   0.788473 0.651920 0.818465 0.129244
H180  H     H_    0.830235 0.624971 0.833237 0.163553
H181  H     H_    0.771940 0.610850 0.800775 0.090293
C209  C     C_3   0.723212 0.672735 0.838824 -0.327922
H182  H     H_    0.739714 0.715685 0.855562 0.243912
H183  H     H_    0.678656 0.694620 0.824032 0.231914
C210  C     C_3   0.694687 0.607061 0.856734 -0.992845
H184  H     H_    0.677458 0.563505 0.840460 0.261066
H185  H     H_    0.646985 0.623696 0.870938 0.274443
H186  H     H_    0.737550 0.585326 0.872438 0.268703
O75   O     O_3   0.782313 0.112185 0.226232 -0.602515
C211  C     C_3   0.819063 0.072579 0.249582 0.135414
H187  H     H_    0.783845 0.066607 0.270505 0.105727
H188  H     H_    0.870780 0.100173 0.256203 0.156824
C212  C     C_3   0.837382 0.996813 0.237117 -0.317951
H189  H     H_    0.786242 0.968665 0.230450 0.252940
H190  H     H_    0.872123 0.002202 0.216126 0.230018
C213  C     C_3   0.877525 0.950881 0.261203 -1.012841
H191  H     H_    0.930305 0.976554 0.267309 0.270076
H192  H     H_    0.888384 0.895794 0.251628 0.265668
H193  H     H_    0.843944 0.945055 0.282452 0.261234
O76   O     O_3   0.221759 0.880600 0.780823 -0.613840
C214  C     C_3   0.243336 0.874268 0.812324 0.168444
H194  H     H_    0.261028 0.929119 0.820066 0.158787
H195  H     H_    0.291141 0.837330 0.815862 0.105123
C215  C     C_3   0.179677 0.849892 0.832803 -0.342747
H196  H     H_    0.130421 0.882840 0.827308 0.247351
H197  H     H_    0.167493 0.791683 0.828243 0.248827
C216  C     C_3   0.197828 0.858254 0.867169 -1.011859
H198  H     H_    0.246190 0.824573 0.873218 0.268516
H199  H     H_    0.150897 0.839856 0.881365 0.276881
H200  H     H_    0.209184 0.916152 0.872804 0.261845
O77   O     O_3   0.887816 0.217686 0.773766 -0.602517
C217  C     C_3   0.927422 0.180940 0.750415 0.135418
H201  H     H_    0.933395 0.216162 0.729494 0.105727
H202  H     H_    0.899827 0.129225 0.743792 0.156819
C218  C     C_3   0.003186 0.162615 0.762881 -0.317952
H203  H     H_    0.031335 0.213753 0.769550 0.252941
H204  H     H_    0.997796 0.127869 0.783869 0.230017
C219  C     C_3   0.049120 0.122479 0.738793 -1.012843
H205  H     H_    0.023443 0.069703 0.732682 0.270075
H206  H     H_    0.104204 0.111612 0.748368 0.265668
H207  H     H_    0.054952 0.156068 0.717546 0.261234
O78   O     O_3   0.119399 0.778242 0.219178 -0.613836
C220  C     C_3   0.125729 0.756667 0.187677 0.168444
H208  H     H_    0.070878 0.738975 0.179935 0.158787
H209  H     H_    0.162668 0.708863 0.184139 0.105123
C221  C     C_3   0.150102 0.820329 0.167198 -0.342746
H210  H     H_    0.117152 0.869582 0.172694 0.247349
H211  H     H_    0.208311 0.832515 0.171759 0.248830
C222  C     C_3   0.141741 0.802177 0.132833 -1.011857
H212  H     H_    0.175425 0.753818 0.126783 0.268515
H213  H     H_    0.160137 0.849110 0.118637 0.276881
H214  H     H_    0.083844 0.790819 0.127197 0.261844
O79   O     O_3   0.272217 0.169020 0.803899 -0.620026
C223  C     C_3   0.225873 0.107323 0.804475 0.186958
H215  H     H_    0.255826 0.063197 0.816716 0.166396
H216  H     H_    0.212671 0.085695 0.780929 0.122176
C224  C     C_3   0.155561 0.123209 0.822422 -0.354365
H217  H     H_    0.168975 0.148068 0.845219 0.243040
H218  H     H_    0.121312 0.161942 0.809101 0.252502
C225  C     C_3   0.111697 0.053844 0.827693 -1.005119
H219  H     H_    0.099056 0.027122 0.805206 0.281088
H220  H     H_    0.059669 0.067518 0.839519 0.274355
H221  H     H_    0.142840 0.015476 0.842572 0.271666
O80   O     O_3   0.714786 0.820942 0.194524 -0.616498
C226  C     C_3   0.651921 0.788476 0.181534 0.129249
H222  H     H_    0.624965 0.830242 0.166767 0.163548
H223  H     H_    0.610855 0.771931 0.199225 0.090285
C227  C     C_3   0.672737 0.723226 0.161170 -0.327919
H224  H     H_    0.715677 0.739742 0.144430 0.243893
H225  H     H_    0.694637 0.678668 0.175957 0.231934
C228  C     C_3   0.607060 0.694696 0.143264 -0.992850
H226  H     H_    0.563518 0.677447 0.159541 0.261068
H227  H     H_    0.623697 0.647007 0.129053 0.274443
H228  H     H_    0.585305 0.737563 0.127567 0.268702
O81   O     O_3   0.112184 0.782313 0.773768 -0.602517
C229  C     C_3   0.072578 0.819062 0.750418 0.135409
H229  H     H_    0.066607 0.783844 0.729495 0.105726
H230  H     H_    0.100171 0.870779 0.743797 0.156828
C230  C     C_3   0.996813 0.837380 0.762883 -0.317951
H231  H     H_    0.968666 0.786239 0.769550 0.252945
H232  H     H_    0.002201 0.872121 0.783873 0.230019
C231  C     C_3   0.950878 0.877520 0.738797 -1.012868
H233  H     H_    0.976547 0.930302 0.732692 0.270082
H234  H     H_    0.895791 0.888375 0.748370 0.265670
H235  H     H_    0.945055 0.843941 0.717547 0.261240
O82   O     O_3   0.880599 0.221760 0.219176 -0.613839
C232  C     C_3   0.874267 0.243338 0.187675 0.168438
H236  H     H_    0.929118 0.261026 0.179932 0.158785
H237  H     H_    0.837331 0.291145 0.184138 0.105125
C233  C     C_3   0.849885 0.179680 0.167196 -0.342746
H238  H     H_    0.882829 0.130422 0.172692 0.247356
H239  H     H_    0.791675 0.167501 0.171757 0.248820
C234  C     C_3   0.858248 0.197830 0.132831 -1.011854
H240  H     H_    0.824573 0.246196 0.126781 0.268514
H241  H     H_    0.839845 0.150901 0.118635 0.276880
H242  H     H_    0.916148 0.209179 0.127195 0.261846
O83   O     O_3   0.727779 0.830975 0.803900 -0.620028
C235  C     C_3   0.774123 0.892672 0.804477 0.186949
H243  H     H_    0.744171 0.936797 0.816719 0.166392
H244  H     H_    0.787327 0.914303 0.780932 0.122182
C236  C     C_3   0.844435 0.876783 0.822424 -0.354362
H245  H     H_    0.831020 0.851922 0.845220 0.243039
H246  H     H_    0.878684 0.838051 0.809103 0.252503
C237  C     C_3   0.888300 0.946147 0.827696 -1.005119
H247  H     H_    0.900943 0.972870 0.805209 0.281088
H248  H     H_    0.940328 0.932471 0.839522 0.274356
H249  H     H_    0.857157 0.984515 0.842575 0.271665
O84   O     O_3   0.285201 0.179050 0.194524 -0.616498
C238  C     C_3   0.348072 0.211500 0.181532 0.129309
H250  H     H_    0.374979 0.169747 0.166743 0.163563
H251  H     H_    0.389169 0.227972 0.199220 0.090231
C239  C     C_3   0.327282 0.276808 0.161198 -0.328037
H252  H     H_    0.284314 0.260361 0.144459 0.243952
H253  H     H_    0.305430 0.321350 0.176006 0.231875
C240  C     C_3   0.392963 0.305330 0.143291 -0.992860
H254  H     H_    0.436536 0.322503 0.159567 0.261088
H255  H     H_    0.376348 0.353066 0.129105 0.274454
H256  H     H_    0.414666 0.262484 0.127571 0.268708
H257  H     H_    0.004821 0.382451 0.929160 0.132953
H258  H     H_    0.998836 0.617671 0.070882 0.131362
H259  H     H_    0.617671 0.998836 0.929118 0.131363
H260  H     H_    0.382452 0.004820 0.070840 0.132953
H261  H     H_    0.995179 0.617548 0.929160 0.132953
H262  H     H_    0.001163 0.382329 0.070882 0.131363
H263  H     H_    0.382329 0.001163 0.929118 0.131363
H264  H     H_    0.617548 0.995178 0.070840 0.132953
H265  H     H_    0.502615 0.882356 0.429125 0.132355
H266  H     H_    0.501008 0.117629 0.570845 0.131784
H267  H     H_    0.117629 0.501010 0.429155 0.131784
H268  H     H_    0.882356 0.502614 0.570874 0.132356
H269  H     H_    0.497384 0.117643 0.429125 0.132355
H270  H     H_    0.498992 0.882371 0.570845 0.131784
H271  H     H_    0.882371 0.498990 0.429155 0.131784
H272  H     H_    0.117644 0.497386 0.570874 0.132355

loop_
_geom_bond_atom_site_label_1
_geom_bond_atom_site_label_2
_ccdc_geom_bond_type
C1    C25   A    
C190  H139  S    
C227  C228  S    
C106  O62   S    
O81   C229  S    
O79   C223  S    
C209  H182  S    
C10   H10   S    
C170  H91   S    
C110  C135  A    
C214  H194  S    
C120  O76   S    
C230  H231  S    
C197  H154  S    
C105  O61   S    
O46   Zn8   S    
C155  H56   S    
C14   H14   S    
C188  H134  S    
C82   O22   A    
O31   Zn13  S    
C97   O53   S    
O80   C226  S    
C230  C231  S    
O9    Zn12  S    
C21   C33   A    
O20   Zn5   S    
C152  H49   S    
C22   C38   A    
C96   O38   A    
C233  H238  S    
C153  H51   S    
C194  H147  S    
C224  C225  S    
O13   Zn8   S    
C77   O17   A    
O27   Zn10  S    
O47   Zn5   S    
C191  C192  S    
C240  H255  S    
C161  C162  S    
C89   O29   A    
C214  H195  S    
C28   H260  S    
O35   Zn9   S    
C99   C138  A    
C167  H84   S    
C86   O26   A    
C97   C140  A    
C5    C29   A    
C76   O12   A    
O5    Zn16  S    
C12   C48   A    
C234  H241  S    
C58   C61   A    
C232  H237  S    
C79   O15   A    
O53   C145  S    
C191  H141  S    
O40   Zn5   S    
C212  H190  S    
O12   Zn13  S    
C229  H230  S    
C59   H27   S    
O38   Zn3   S    
C37   H269  S    
O2    Zn11  S    
C108  O64   S    
O16   Zn1   S    
C80   O20   A    
C215  H197  S    
C50   C53   A    
C146  H36   S    
C116  C121  A    
C166  H82   S    
C189  H136  S    
C171  H93   S    
C185  H127  S    
C203  H168  S    
C180  H116  S    
C120  C125  A    
C20   C28   A    
C206  H175  S    
C82   O52   A    
C175  C176  S    
C229  C230  S    
C124  O80   S    
C91   O41   A    
C200  H161  S    
C200  H162  S    
C89   O43   A    
C73   O5    A    
C39   H271  S    
O63   C175  S    
C221  C222  S    
C26   H258  S    
C196  C197  S    
C167  C168  S    
C25   H257  S    
O76   C214  S    
C2    C26   A    
C172  C173  S    
C27   H259  S    
C15   C39   A    
C16   C40   A    
C149  H43   S    
O70   C196  S    
C6    C30   A    
C151  H48   S    
C113  O69   S    
C182  H119  S    
C194  C195  S    
C88   O46   A    
O43   Zn2   S    
O3    Zn3   S    
C209  C210  S    
C170  C171  S    
O58   C160  S    
O2    Zn15  S    
C160  C161  S    
C150  H45   S    
C165  H81   S    
C122  C137  A    
C171  H94   S    
C219  H205  S    
C183  H122  S    
C90   C140  S    
C126  C141  A    
C119  C136  A    
C233  C234  S    
C120  C135  A    
C17   C25   A    
C235  H243  S    
C11   C35   A    
C94   C144  S    
C228  H227  S    
C17   C29   A    
C13   C45   A    
C169  C170  S    
C113  C124  A    
C103  O59   S    
C173  H98   S    
C186  H130  S    
C178  C179  S    
C173  C174  S    
C117  C128  A    
C100  C137  A    
O10   Zn11  S    
C119  C126  A    
C210  H186  S    
C223  H215  S    
O4    Zn8   S    
C156  H59   S    
C205  H173  S    
C6    C42   A    
C148  H41   S    
C176  H105  S    
C202  H167  S    
C104  C141  A    
O14   Zn7   S    
O17   Zn4   S    
C218  H204  S    
C181  H117  S    
O23   Zn14  S    
C147  H37   S    
C4    H4    S    
C43   C73   S    
C222  H214  S    
C201  H164  S    
C3    H3    S    
O69   C193  S    
O28   Zn9   S    
C21   C66   S    
C16   H16   S    
C116  O72   S    
C124  C139  A    
C1    H1    S    
C174  H100  S    
C171  H95   S    
C57   C66   A    
C30   H262  S    
O6    Zn15  S    
C29   H261  S    
C179  H112  S    
C174  H102  S    
C5    H5    S    
C204  H170  S    
C101  C112  A    
C146  H35   S    
C24   C36   A    
O44   Zn1   S    
C103  C110  A    
C87   O45   A    
C8    H8    S    
O42   Zn7   S    
C227  H224  S    
O3    Zn10  S    
C198  H157  S    
C60   H28   S    
C96   C138  S    
O50   Zn4   S    
C81   C131  S    
C201  H165  S    
C177  H107  S    
O67   C187  S    
C79   O19   A    
C163  H75   S    
C148  H40   S    
C104  O60   S    
C211  H187  S    
C217  H202  S    
C24   C67   S    
C231  H235  S    
C210  H184  S    
C60   C67   A    
O66   C184  S    
C184  C185  S    
O19   Zn6   S    
O72   C202  S    
C7    C43   A    
C64   H32   S    
C49   H17   S    
C197  C198  S    
C11   H11   S    
C18   C69   S    
C161  H71   S    
C9    H9    S    
C90   O30   A    
C168  H87   S    
C23   C35   A    
C12   H12   S    
O11   Zn14  S    
C13   H13   S    
C192  H143  S    
C115  C132  A    
C22   C34   A    
O1    Zn1   S    
C213  H192  S    
C216  H199  S    
C113  C130  A    
C235  C236  S    
C207  H177  S    
C187  H132  S    
C176  H106  S    
O2    Zn6   S    
C169  H89   S    
C211  C212  S    
C199  H159  S    
C166  H83   S    
C22   C65   S    
C158  H63   S    
C58   C65   A    
C226  H222  S    
C223  C224  S    
C175  H104  S    
O57   C157  S    
O65   C181  S    
C226  C227  S    
C20   C71   S    
C88   O28   A    
C220  H209  S    
O68   C190  S    
C237  H247  S    
C147  H39   S    
C114  C123  A    
O51   Zn1   S    
C221  H211  S    
C94   O34   A    
C193  H145  S    
C118  C127  A    
C195  H149  S    
C184  H125  S    
C20   C32   A    
C204  H172  S    
C99   C106  A    
C145  H33   S    
C164  C165  S    
O18   Zn3   S    
O33   Zn11  S    
C187  H131  S    
C121  C138  A    
C209  H183  S    
C40   H272  S    
C73   O9    A    
O55   C151  S    
C195  H151  S    
C111  C134  A    
C74   O6    A    
C155  H57   S    
C163  C164  S    
C119  O75   S    
C98   C139  A    
C148  C149  S    
C95   O35   A    
C87   C129  S    
C3    C27   A    
C228  H226  S    
C128  O84   S    
C46   C80   S    
C2    C42   A    
C231  H234  S    
C168  H88   S    
C233  H239  S    
C176  C177  S    
C153  H52   S    
C224  H218  S    
C238  C239  S    
O83   C235  S    
C164  H77   S    
O62   C172  S    
C193  C194  S    
O75   C211  S    
O56   C154  S    
C237  H248  S    
O29   Zn15  S    
C177  H109  S    
O36   Zn10  S    
C91   C141  S    
C145  C146  S    
C152  C153  S    
C183  H123  S    
C126  O82   S    
C96   O36   A    
C153  H53   S    
C80   O16   A    
C11   C47   A    
C18   C26   A    
C207  H179  S    
C55   H23   S    
C38   H270  S    
C19   C31   A    
C192  H144  S    
O52   Zn2   S    
C102  C111  A    
C150  H44   S    
C14   C46   A    
C84   C134  S    
C225  H219  S    
O25   Zn16  S    
C199  C200  S    
O61   C169  S    
O32   Zn14  S    
C158  C159  S    
C180  H115  S    
O7    Zn10  S    
C81   O21   A    
O77   C217  S    
C101  C144  A    
C232  C233  S    
C50   H18   S    
C117  C134  A    
C157  H61   S    
C78   O18   A    
C95   C137  S    
O48   Zn6   S    
O64   C178  S    
C63   C68   A    
C206  C207  S    
O4    Zn4   S    
C188  H133  S    
C196  H153  S    
C154  H54   S    
C51   H19   S    
C15   C47   A    
C172  H97   S    
C52   C55   A    
C85   O25   A    
C159  H66   S    
O60   C166  S    
C84   O50   A    
C234  H240  S    
O45   Zn7   S    
C190  C191  S    
C9    C33   A    
C194  H148  S    
C122  O78   S    
O39   Zn6   S    
C54   H22   S    
C149  C150  S    
C53   C70   A    
C87   O27   A    
O74   C208  S    
C170  H92   S    
C197  H155  S    
C192  H142  S    
C105  C132  A    
C206  H176  S    
C106  C131  A    
C157  C158  S    
C162  H72   S    
C8    C44   A    
C188  C189  S    
C219  H206  S    
C75   O11   A    
C149  H42   S    
C4    C44   A    
C232  H236  S    
C98   C107  A    
C236  H245  S    
C235  H244  S    
C198  H156  S    
C15   H15   S    
C156  H58   S    
C41   C75   S    
C36   H268  S    
C91   O31   A    
C213  H193  S    
C214  C215  S    
C3    C43   A    
C173  H99   S    
C100  C105  A    
C45   C79   S    
C92   O42   A    
C85   O47   A    
C160  H69   S    
C52   H20   S    
C7    H7    S    
C53   H21   S    
C210  H185  S    
C223  H216  S    
C205  H174  S    
C49   C70   A    
C191  H140  S    
C114  C129  A    
C234  H242  S    
C229  H229  S    
C82   C132  S    
C90   O44   A    
O8    Zn9   S    
C147  H38   S    
C202  H166  S    
C222  H213  S    
C215  H196  S    
C208  H181  S    
C217  H201  S    
C100  O56   S    
C42   C76   S    
C160  H68   S    
C185  H126  S    
C179  H113  S    
C186  H128  S    
C174  H101  S    
O2    Zn2   S    
C115  O71   S    
C156  H60   S    
C205  C206  S    
C111  O67   S    
C236  C237  S    
C181  C182  S    
C114  O70   S    
C200  C201  S    
C77   O13   A    
C52   C71   A    
C154  H55   S    
C102  O58   S    
C239  C240  S    
C219  H207  S    
C104  C109  A    
C54   C69   A    
C177  H108  S    
C228  H228  S    
C63   H31   S    
O26   Zn15  S    
C163  H76   S    
C239  H253  S    
C127  C144  A    
C128  C143  A    
C179  C180  S    
C6    H6    S    
C21   C37   A    
C151  H47   S    
C190  H138  S    
C182  H120  S    
C189  H135  S    
C125  O81   S    
O24   Zn13  S    
C222  H212  S    
C74   O10   A    
C215  C216  S    
C107  O63   S    
C150  H46   S    
O59   C163  S    
C93   O39   A    
C168  H86   S    
C178  H110  S    
C78   O14   A    
C88   C130  S    
C112  C133  A    
C238  H250  S    
C75   O7    A    
C183  H121  S    
C16   C48   A    
C98   O54   S    
C240  H254  S    
C236  H246  S    
C57   C62   A    
C32   H264  S    
C155  C156  S    
C84   O24   A    
C162  H74   S    
C99   O55   S    
C216  H198  S    
O49   Zn3   S    
C203  H169  S    
C60   C63   A    
C58   H26   S    
C50   C69   A    
C207  H178  S    
C51   C56   A    
C208  C209  S    
C118  O74   S    
C101  O57   S    
O21   Zn12  S    
C169  H90   S    
C14   C38   A    
C49   C54   A    
C62   H30   S    
C199  H160  S    
C218  H203  S    
C154  C155  S    
C48   C78   S    
C24   C40   A    
C97   C108  A    
C61   C66   A    
C123  O79   S    
O78   C220  S    
C89   C139  S    
C189  H137  S    
C187  C188  S    
C10   C46   A    
C202  C203  S    
C165  H80   S    
C212  H189  S    
C226  H223  S    
O4    Zn13  S    
C18   C30   A    
C83   C133  S    
C12   C36   A    
C19   C27   A    
C220  H208  S    
C227  H225  S    
C55   C72   A    
C93   C143  S    
C118  C133  A    
C56   C71   A    
C117  O73   S    
C201  H163  S    
C17   C70   S    
C115  C122  A    
C109  C136  A    
C193  H146  S    
C19   C72   S    
C86   O48   A    
C237  H249  S    
C185  C186  S    
O41   Zn8   S    
C211  H188  S    
C4    C28   A    
C195  H150  S    
C230  H232  S    
C57   H25   S    
C204  H171  S    
C145  H34   S    
C164  H78   S    
C7    C31   A    
O84   C238  S    
C8    C32   A    
C64   C67   A    
C61   H29   S    
C208  H180  S    
O3    Zn7   S    
C198  H158  S    
C239  H252  S    
O1    Zn5   S    
C159  H67   S    
C217  C218  S    
C123  C140  A    
C203  C204  S    
C162  H73   S    
O34   Zn12  S    
C23   C68   S    
C44   C74   S    
C231  H233  S    
C165  H79   S    
C92   O32   A    
C59   C68   A    
C182  C183  S    
C151  C152  S    
C125  C142  A    
C224  H217  S    
O54   C148  S    
C56   H24   S    
O73   C205  S    
O30   Zn16  S    
C10   C34   A    
C121  O77   S    
C238  H251  S    
C108  C129  A    
O37   Zn4   S    
C85   C135  S    
O1    Zn12  S    
C86   C136  S    
C161  H70   S    
C9    C45   A    
C93   O33   A    
C95   O37   A    
C31   H263  S    
C102  C143  A    
C47   C77   S    
C83   O23   A    
C103  C142  A    
C240  H256  S    
C92   C142  S    
O82   C232  S    
C83   O49   A    
C1    C41   A    
C152  H50   S    
C5    C41   A    
C213  H191  S    
C159  H65   S    
C216  H200  S    
C107  C130  A    
C81   O51   A    
C62   C65   A    
C13   C37   A    
C127  O83   S    
C34   H266  S    
C94   O40   A    
C33   H265  S    
C167  H85   S    
C110  O66   S    
C35   H267  S    
C2    H2    S    
C218  C219  S    
C225  H220  S    
C166  C167  S    
O71   C199  S    
C158  H64   S    
C112  O68   S    
C180  H114  S    
C186  H129  S    
C184  H124  S    
C116  C131  A    
O4    Zn9   S    
O15   Zn2   S    
C23   C39   A    
C175  H103  S    
C212  C213  S    
C157  H62   S    
C178  H111  S    
C220  C221  S    
C146  C147  S    
O3    Zn14  S    
O22   Zn11  S    
C59   C64   A    
O1    Zn16  S    
C221  H210  S    
C225  H221  S    
C196  H152  S    
C51   C72   A    
C109  O65   S    
C172  H96   S    
C76   O8    A    
C181  H118  S    
