data_mof_unit_42054.cif
_audit_creation_date              2012-10-26T21:25:52-0400
_audit_creation_method            fapswitch 2.2
_symmetry_space_group_name_H-M    P1
_symmetry_Int_Tables_number       1
_space_group_crystal_system       triclinic
_cell_length_a                    10.819709
_cell_length_b                    10.868456
_cell_length_c                    12.708042
_cell_angle_alpha                 93.076669
_cell_angle_beta                  93.043921
_cell_angle_gamma                 90.175137
_cell_volume                      1490.0980442

loop_
_atom_site_label
_atom_site_type_symbol
_atom_type_description
_atom_site_fract_x
_atom_site_fract_y
_atom_site_fract_z
_atom_type_partial_charge
C1    C     C_R   0.261935 0.496437 0.500579 0.538776
C2    C     C_R   0.812405 0.745304 0.371988 -0.082164
C3    C     C_R   0.129356 0.364323 0.661229 0.032866
C4    C     C_R   0.870643 0.635678 0.338771 0.032865
C5    C     C_R   0.125830 0.396130 0.770400 0.016282
C6    C     C_R   0.874174 0.603876 0.229600 0.016278
C7    C     C_R   0.179368 0.317744 0.843846 -0.120077
C8    C     C_R   0.820633 0.682264 0.156156 -0.120079
C9    C     C_R   0.235827 0.208452 0.809679 -0.114976
C10   C     C_R   0.764168 0.791550 0.190325 -0.114977
C11   C     C_R   0.937593 0.445927 0.578700 -0.134086
C12   C     C_R   0.738065 0.503563 0.499420 0.538774
C13   C     C_R   0.062407 0.554072 0.421298 -0.134084
C14   C     C_R   0.871689 0.505107 0.498791 0.003844
C15   C     C_R   0.128310 0.494892 0.501208 0.003845
C16   C     C_R   0.503906 0.261861 0.500832 0.537653
C17   C     C_R   0.496093 0.738139 0.499168 0.537652
C18   C     C_R   0.934266 0.560720 0.419216 -0.023584
C19   C     C_R   0.065734 0.439280 0.580782 -0.023585
C20   C     C_2   0.463119 0.468217 0.030478 -0.157520
C21   C     C_2   0.536883 0.531782 0.969521 -0.157519
C22   C     C_1   0.525875 0.524044 0.853035 0.169234
C23   C     C_R   0.493929 0.871745 0.497741 -0.009014
C24   C     C_1   0.474126 0.475955 0.146964 0.169232
C25   C     C_R   0.768389 0.249362 0.784228 -0.113332
C26   C     C_R   0.231600 0.750643 0.215782 -0.113333
C27   C     C_R   0.715006 0.195173 0.690070 -0.062905
C28   C     C_R   0.284985 0.804832 0.309937 -0.062911
C29   C     C_R   0.603589 0.128559 0.690663 0.041235
C30   C     C_R   0.396403 0.871442 0.309340 0.041235
C31   C     C_R   0.548371 0.114779 0.787081 -0.083347
C32   C     C_R   0.451618 0.885218 0.212920 -0.083345
C33   C     C_R   0.600532 0.171494 0.880725 0.015262
C34   C     C_R   0.506069 0.128255 0.502259 -0.009012
C35   C     C_R   0.399455 0.828503 0.119279 0.015261
C36   C     C_R   0.710636 0.238896 0.879039 -0.102097
C37   C     C_R   0.289351 0.761105 0.120970 -0.102096
C38   C     C_R   0.540889 0.938426 0.588540 -0.155549
C39   C     C_R   0.459108 0.061574 0.411460 -0.155548
C40   C     C_1   0.068541 0.508515 0.808548 0.184823
C41   C     C_1   0.931469 0.491496 0.191449 0.184818
C42   C     C_1   0.541748 0.159727 0.978728 0.187879
C43   C     C_1   0.458239 0.840267 0.021276 0.187882
C44   C     C_R   0.451437 0.933984 0.407795 -0.037841
C45   C     C_R   0.548559 0.066017 0.592206 -0.037839
C46   C     C_R   0.240095 0.177106 0.701914 -0.105016
C47   C     C_R   0.759895 0.822890 0.298091 -0.105015
C48   C     C_R   0.187587 0.254692 0.628015 -0.082170
Cu1   Cu    Cu3+1 0.492140 0.492110 0.395880 1.009230
Cu2   Cu    Cu3+1 0.507860 0.507890 0.604120 1.009229
H1    H     H_    0.752452 0.282291 0.951114 0.132285
H2    H     H_    0.144794 0.701213 0.215480 0.114758
H3    H     H_    0.760892 0.203732 0.617101 0.099811
H4    H     H_    0.239101 0.796276 0.382908 0.099812
H5    H     H_    0.465256 0.059492 0.789167 0.114498
H6    H     H_    0.534734 0.940503 0.210832 0.114498
H7    H     H_    0.575454 0.890684 0.656819 0.155619
H8    H     H_    0.424543 0.109315 0.343182 0.155620
H9    H     H_    0.275718 0.147777 0.866952 0.131592
H10   H     H_    0.724274 0.852225 0.133054 0.131591
H11   H     H_    0.282813 0.091908 0.675362 0.116315
H12   H     H_    0.247534 0.717711 0.048897 0.132288
H13   H     H_    0.717170 0.908084 0.324645 0.116315
H14   H     H_    0.190162 0.228145 0.544755 0.105660
H15   H     H_    0.809826 0.771847 0.455248 0.105659
H16   H     H_    0.176518 0.340708 0.927708 0.124713
H17   H     H_    0.823487 0.659304 0.072293 0.124713
H18   H     H_    0.888512 0.401326 0.637967 0.120154
H19   H     H_    0.111488 0.598672 0.362031 0.120155
H20   H     H_    0.607916 0.592197 0.007349 0.132916
H21   H     H_    0.392087 0.407802 0.992651 0.132915
H22   H     H_    0.855196 0.298795 0.784535 0.114758
N1    N     N_1   0.480320 0.480250 0.239400 -0.176631
N2    N     N_1   0.519680 0.519750 0.760600 -0.176632
N3    N     N_1   0.022560 0.598550 0.839179 -0.305327
N4    N     N_1   0.977455 0.401465 0.160815 -0.305327
N5    N     N_1   0.494498 0.150527 0.057542 -0.320026
N6    N     N_1   0.505488 0.849464 0.942461 -0.320024
O1    O     O_R   0.313000 0.493330 0.412070 -0.503678
O2    O     O_R   0.687000 0.506670 0.587930 -0.503680
O3    O     O_R   0.326280 0.506660 0.587930 -0.486749
O4    O     O_R   0.673720 0.493340 0.412070 -0.486749
O5    O     O_R   0.493370 0.312980 0.412070 -0.501330
O6    O     O_R   0.506630 0.687020 0.587930 -0.501330
O7    O     O_R   0.506650 0.326310 0.587930 -0.490151
O8    O     O_R   0.493350 0.673690 0.412070 -0.490150

loop_
_geom_bond_atom_site_label_1
_geom_bond_atom_site_label_2
_ccdc_geom_bond_type
C27   C29   A    
C14   C18   A    
C10   H10   S    
C2    H15   S    
C37   H12   S    
Cu2   O6    S    
C43   N6    T    
C15   C19   A    
C11   C19   A    
C17   C23   S    
C13   C18   A    
C33   C42   S    
C35   C37   A    
Cu2   N2    S    
C47   H13   S    
C11   C14   A    
C24   N1    T    
C48   H14   S    
C1    O3    A    
C3    C48   A    
C33   C36   A    
C38   C45   A    
Cu2   O7    S    
C16   C34   S    
C20   C24   S    
C6    C41   S    
C31   C33   A    
C20   H21   S    
C3    C19   S    
C1    C15   S    
C35   C43   S    
C4    C18   S    
C9    C46   A    
C21   C22   S    
C30   C44   S    
C46   C48   A    
C46   H11   S    
C17   O8    A    
C32   C35   A    
C4    C6    A    
C5    C7    A    
C28   H4    S    
C6    C8    A    
C39   H8    S    
C16   O5    A    
C23   C44   A    
C34   C39   A    
C29   C45   S    
C9    H9    S    
Cu1   O4    S    
C2    C4    A    
C26   H2    S    
C38   H7    S    
C12   O4    A    
C34   C45   A    
C36   H1    S    
C8    H17   S    
C12   C14   S    
C13   C15   A    
C16   O7    A    
C1    O1    A    
Cu1   N1    S    
C22   N2    T    
C11   H18   S    
C7    C9    A    
Cu1   O8    S    
C3    C5    A    
Cu2   O2    S    
C27   H3    S    
C26   C37   A    
C39   C44   A    
C2    C47   A    
C25   C27   A    
C23   C38   A    
C26   C28   A    
C40   N3    T    
C21   H20   S    
C17   O6    A    
Cu1   O5    S    
C28   C30   A    
C29   C31   A    
C7    H16   S    
C30   C32   A    
C13   H19   S    
C12   O2    A    
C25   C36   A    
Cu1   O1    S    
C20   C21   D    
C42   N5    T    
C8    C10   A    
Cu1   Cu2   S    
C5    C40   S    
C10   C47   A    
C25   H22   S    
C31   H5    S    
C32   H6    S    
Cu2   O3    S    
C41   N4    T    
