data_mof_unit_14422.cif
_audit_creation_date              2012-12-10T16:58:25-0500
_audit_creation_method            fapswitch 2.2
_symmetry_space_group_name_H-M    P1
_symmetry_Int_Tables_number       1
_space_group_crystal_system       triclinic
_cell_length_a                    15.876685
_cell_length_b                    10.922241
_cell_length_c                    9.724411
_cell_angle_alpha                 89.360234
_cell_angle_beta                  89.800082
_cell_angle_gamma                 90.645592
_cell_volume                      1686.07700861

loop_
_atom_site_label
_atom_site_type_symbol
_atom_type_description
_atom_site_fract_x
_atom_site_fract_y
_atom_site_fract_z
_atom_type_partial_charge
C1    C     C_R   0.500934 0.265392 0.500498 0.874025
C2    C     C_3   0.083470 0.498524 0.499993 -0.076888
C3    C     C_3   0.971850 0.584308 0.588231 -0.316247
C4    C     C_3   0.916707 0.498748 0.499451 0.004696
C5    C     C_3   0.028692 0.608454 0.460960 0.425808
C6    C     C_3   0.972598 0.524760 0.372783 0.110067
C7    C     C_1   0.175065 0.498788 0.500535 0.126859
C8    C     C_1   0.825136 0.499113 0.499385 0.029824
C9    C     C_2   0.501154 0.934225 0.386387 -0.134944
C10   C     C_2   0.493671 0.866407 0.501302 -0.284631
C11   C     C_2   0.497020 0.068147 0.387394 -0.144333
C12   C     C_R   0.340008 0.499898 0.500179 0.841076
C13   C     C_2   0.505122 0.133282 0.502854 -0.270953
C14   C     C_2   0.452096 0.428955 0.928231 0.488352
C15   C     C_2   0.439839 0.455258 0.078041 -0.099313
C16   C     C_R   0.498756 0.734530 0.499578 0.843170
C17   C     C_R   0.660039 0.500015 0.499809 0.806176
C18   C     C_3   0.970381 0.386644 0.539282 -0.203418
C19   C     C_3   0.027360 0.414301 0.412590 0.050259
C20   C     C_1   0.250481 0.499285 0.500595 -0.064420
C21   C     C_1   0.749663 0.499552 0.499413 -0.154047
C22   C     C_3   0.026797 0.472801 0.625349 0.354403
Cu1   Cu    Cu3+1 0.500020 0.500020 0.638630 1.043235
Cu2   Cu    Cu3+1 0.499980 0.499980 0.361370 0.983128
H1    H     H_    0.517191 0.091166 0.601891 0.183704
H2    H     H_    0.522145 0.577880 0.890038 0.163261
H3    H     H_    0.382619 0.423280 0.128487 0.221598
H4    H     H_    0.555536 0.518385 0.104801 0.193792
H5    H     H_    0.945903 0.295331 0.572352 0.187410
H6    H     H_    0.948699 0.654126 0.660887 0.192749
H7    H     H_    0.509341 0.890863 0.287305 0.180753
H8    H     H_    0.481818 0.906326 0.600749 0.167886
H9    H     H_    0.488526 0.113928 0.288724 0.198498
N1    N     N_2   0.499090 0.498660 0.846910 -0.340637
N2    N     N_2   0.499070 0.498630 0.153040 -0.314197
O1    O     O_R   0.500010 0.321960 0.617040 -0.501110
O2    O     O_R   0.499990 0.321920 0.382900 -0.579350
O3    O     O_R   0.379090 0.500010 0.617050 -0.522687
O4    O     O_R   0.379060 0.499970 0.382910 -0.581003
O5    O     O_R   0.500010 0.678080 0.617100 -0.586354
O6    O     O_R   0.499990 0.678040 0.382960 -0.569200
O7    O     O_R   0.620940 0.500030 0.617090 -0.573848
O8    O     O_R   0.620910 0.499990 0.382950 -0.577308
C23   C     C_3   0.059169 0.318472 0.313386 -0.695240
H10   H     H_    0.004863 0.271456 0.264507 0.245390
H11   H     H_    0.098652 0.363325 0.232550 0.263978
H12   H     H_    0.097360 0.250182 0.370100 0.240683
S1    S     S_3+6 0.406368 0.287045 0.877861 0.048982
O9    O     O_2   0.351163 0.300079 0.753823 -0.242882
O10   O     O_2   0.475606 0.198111 0.849067 -0.314712
O11   O     O_3   0.347087 0.228904 0.007254 -0.542627
H13   H     H_    0.328661 0.147016 0.975570 0.392261
C24   C     C_3   0.941129 0.554214 0.228672 -0.701704
H14   H     H_    0.995605 0.568676 0.158315 0.274952
H15   H     H_    0.901846 0.477006 0.190950 0.226957
H16   H     H_    0.902816 0.638513 0.230704 0.246316
S2    S     S_3+6 0.067939 0.755548 0.409943 0.026305
O12   O     O_2   0.120576 0.807625 0.523822 -0.253194
O13   O     O_2   0.120887 0.743489 0.282525 -0.265956
O14   O     O_3   0.986459 0.848352 0.377573 -0.526427
H17   H     H_    0.012573 0.927840 0.350436 0.381968
S3    S     S_3+6 0.063345 0.438268 0.794275 0.048288
O15   O     O_2   0.117847 0.326823 0.789741 -0.202794
O16   O     O_2   0.113998 0.544462 0.847770 -0.248295
O17   O     O_3   0.980781 0.410247 0.899077 -0.513889
H18   H     H_    0.947071 0.485966 0.895285 0.335798

loop_
_geom_bond_atom_site_label_1
_geom_bond_atom_site_label_2
_ccdc_geom_bond_type
C2    C22   S    
C3    H6    S    
C14   S1    S    
Cu1   Cu2   S    
C17   O8    A    
C14   N1    D    
S3    O15   D    
Cu2   O6    S    
C18   C22   S    
C5    S2    S    
C22   S3    S    
Cu1   O3    S    
C11   C13   D    
C9    C10   D    
C15   H3    S    
C2    C7    S    
C23   H12   S    
C1    O2    A    
C4    C8    S    
Cu1   N1    S    
C4    C18   S    
C12   C20   S    
C12   O4    A    
S1    O10   D    
Cu2   O2    S    
C3    C5    S    
O11   H13   S    
C18   H5    S    
C10   C16   S    
C24   H14   S    
C19   C23   S    
C6    C19   S    
C9    C11   S    
C13   H1    S    
S2    O12   D    
Cu1   O7    S    
C16   O5    A    
C15   N2    D    
S1    O9    D    
C23   H11   S    
O17   H18   S    
C24   H15   S    
C12   O3    A    
C5    C6    S    
S2    O13   D    
Cu2   N2    S    
C1    C13   S    
C9    H7    S    
C6    C24   S    
Cu1   O5    S    
C2    C5    S    
C10   H8    S    
C11   H9    S    
Cu2   O4    S    
C23   H10   S    
H4    N2    S    
C4    C6    S    
Cu1   O1    S    
C24   H16   S    
Cu2   O8    S    
C17   O7    A    
C18   C19   S    
C3    C22   S    
S3    O16   D    
S3    O17   S    
H2    N1    S    
C2    C19   S    
C14   C15   S    
C16   O6    A    
C7    C20   T    
S1    O11   S    
C17   C21   S    
C3    C4    S    
C1    O1    A    
O14   H17   S    
S2    O14   S    
C8    C21   T    
