data_mof_unit_46008.cif
_audit_creation_date              2012-12-11T16:35:23-0500
_audit_creation_method            fapswitch 2.2
_symmetry_space_group_name_H-M    P1
_symmetry_Int_Tables_number       1
_space_group_crystal_system       triclinic
_cell_length_a                    6.941663
_cell_length_b                    17.675976
_cell_length_c                    19.487833
_cell_angle_alpha                 108.88339
_cell_angle_beta                  90.138532
_cell_angle_gamma                 90.059993
_cell_volume                      2262.46465944

loop_
_atom_site_label
_atom_site_type_symbol
_atom_type_description
_atom_site_fract_x
_atom_site_fract_y
_atom_site_fract_z
_atom_type_partial_charge
O1    O     O_R   0.505700 0.440210 0.561730 -0.530249
O2    O     O_R   0.169350 0.406300 0.412660 -0.550988
O3    O     O_R   0.005650 0.559790 0.438270 -0.524327
C1    C     C_R   0.338710 0.383122 0.384995 0.733188
O4    O     O_R   0.175560 0.430650 0.559600 -0.543245
O5    O     O_R   0.011900 0.584320 0.586250 -0.534206
C2    C     C_R   0.345060 0.412834 0.578798 0.697327
O6    O     O_R   0.499450 0.415680 0.413750 -0.535372
O7    O     O_3   0.341370 0.550390 0.508570 -0.346881
V1    V     V_3+5 0.063940 0.490650 0.498410 1.472239
O8    O     O_R   0.682570 0.593700 0.587340 -0.533120
C3    C     C_R   0.851170 0.616705 0.615207 0.733689
O9    O     O_R   0.676370 0.569350 0.440400 -0.513524
C4    C     C_R   0.843937 0.582239 0.416856 0.688947
V2    V     V_3+5 0.564750 0.509350 0.501590 1.526005
O10   O     O_3   0.837190 0.449610 0.491430 -0.378574
C5    C     C_R   0.031674 0.722292 0.319999 -0.087268
H1    H     H_    0.162707 0.755929 0.320972 0.125071
C6    C     C_R   0.014174 0.678075 0.367690 -0.139671
H2    H     H_    0.129878 0.681275 0.405871 0.170432
C7    C     C_R   0.851519 0.629734 0.365934 -0.200171
C8    C     C_R   0.701694 0.628482 0.315393 0.402889
C9    C     C_R   0.713939 0.679641 0.273369 -0.183199
H3    H     H_    0.594306 0.683016 0.238828 0.178941
C10   C     C_R   0.882177 0.722989 0.271610 0.027985
C11   C     C_R   0.841013 0.737515 0.146004 0.202029
C12   C     C_R   0.841074 0.787043 0.101595 0.152563
C13   C     C_R   0.917956 0.864966 0.127889 -0.116493
C14   C     C_R   0.986623 0.894150 0.199196 -0.200962
H4    H     H_    0.045241 0.954122 0.220173 0.118406
C15   C     C_R   0.973603 0.847748 0.245012 -0.165881
H5    H     H_    0.020039 0.873670 0.300837 0.120571
C16   C     C_R   0.899771 0.769385 0.219789 0.006533
C17   C     C_R   0.773319 0.905087 0.753578 -0.150553
C18   C     C_R   0.698472 0.917600 0.691770 -0.125912
C19   C     C_R   0.679889 0.854020 0.627706 -0.117932
C20   C     C_R   0.734622 0.777334 0.625098 -0.145295
C21   C     C_R   0.807510 0.762335 0.687403 0.062853
C22   C     C_R   0.828767 0.827731 0.752912 0.074993
C23   C     C_R   0.859150 0.683912 0.685243 -0.158615
C24   C     C_R   0.931095 0.671322 0.749142 0.039300
C25   C     C_R   0.977924 0.738137 0.811015 -0.008992
C26   C     C_R   0.912309 0.815645 0.815126 -0.141605
C27   C     C_R   0.951792 0.593794 0.755138 0.089086
C28   C     C_R   0.055021 0.582312 0.812132 -0.191719
C29   C     C_R   0.122646 0.647049 0.868441 0.432618
C30   C     C_R   0.080584 0.724610 0.869007 -0.207687
H6    H     H_    0.790357 0.957117 0.801262 0.105356
H7    H     H_    0.656919 0.977187 0.693400 0.116491
H8    H     H_    0.623525 0.864197 0.579595 0.111303
H9    H     H_    0.718873 0.730279 0.573639 0.101253
H10   H     H_    0.070232 0.522568 0.815420 0.183428
H11   H     H_    0.124182 0.773361 0.916086 0.172517
H12   H     H_    0.016696 0.443418 0.183612 0.170903
C31   C     C_R   0.533322 0.236619 0.381300 -0.134971
C32   C     C_R   0.637333 0.169237 0.381176 -0.122450
C33   C     C_R   0.669548 0.107924 0.316566 -0.126280
C34   C     C_R   0.597623 0.113412 0.251568 -0.149399
C35   C     C_R   0.493645 0.181597 0.249631 0.070231
C36   C     C_R   0.461070 0.244800 0.316020 0.066710
C37   C     C_R   0.418533 0.186596 0.183426 -0.179961
C38   C     C_R   0.311272 0.255363 0.184037 0.069870
C39   C     C_R   0.276971 0.318184 0.250522 0.069641
C40   C     C_R   0.353736 0.313526 0.316626 -0.195147
C41   C     C_R   0.239881 0.263755 0.118728 -0.133929
C42   C     C_R   0.134050 0.330758 0.118948 -0.094827
C43   C     C_R   0.098372 0.391296 0.183739 -0.014552
C44   C     C_R   0.169498 0.385607 0.248757 -0.052798
H13   H     H_    0.508024 0.281440 0.433383 0.091128
H14   H     H_    0.691621 0.164264 0.431668 0.108363
H15   H     H_    0.749204 0.055385 0.316840 0.114406
H16   H     H_    0.623970 0.063255 0.203224 0.115265
H17   H     H_    0.267016 0.219302 0.066595 0.112742
H18   H     H_    0.080428 0.335922 0.068441 0.153670
H19   H     H_    0.139920 0.435092 0.297231 0.148832
C45   C     C_R   0.541900 0.274329 0.677012 -0.102357
H20   H     H_    0.676612 0.244941 0.680560 0.113627
C46   C     C_R   0.527992 0.319385 0.629701 -0.131247
H21   H     H_    0.653043 0.323952 0.598139 0.127148
C47   C     C_R   0.355888 0.359164 0.624148 -0.044400
C48   C     C_R   0.194683 0.347597 0.663058 -0.164136
H22   H     H_    0.058084 0.373866 0.657525 0.158441
C49   C     C_R   0.208628 0.302978 0.710548 -0.119117
H23   H     H_    0.082853 0.296868 0.740959 0.153003
C50   C     C_R   0.383846 0.267743 0.719725 0.103712
C51   C     C_R   0.261616 0.162104 0.768464 -0.169008
H24   H     H_    0.148260 0.148916 0.727978 0.118083
C52   C     C_R   0.269786 0.118180 0.816655 -0.146242
H25   H     H_    0.162571 0.072247 0.812261 0.119795
C53   C     C_R   0.417161 0.131995 0.868774 -0.087178
C54   C     C_R   0.553538 0.192052 0.872823 -0.181465
H26   H     H_    0.665097 0.205050 0.913986 0.146879
C55   C     C_R   0.542871 0.238093 0.826153 0.185828
C56   C     C_R   0.398314 0.222057 0.771903 0.035269
O11   O     O_R   0.273230 0.084330 0.086440 -0.541809
O12   O     O_R   0.596660 0.069390 0.940470 -0.546642
O13   O     O_R   0.760270 0.915710 0.913690 -0.528824
C57   C     C_R   0.427515 0.084045 0.918736 0.685889
O14   O     O_R   0.603330 0.093680 0.087390 -0.539855
O15   O     O_R   0.766990 0.940160 0.061660 -0.535707
C58   C     C_R   0.433908 0.117029 0.115016 0.685780
O16   O     O_R   0.266510 0.059870 0.938470 -0.542534
O17   O     O_3   0.431050 0.949630 0.991510 -0.353200
V3    V     V_3+5 0.708490 0.009340 0.001580 1.449410
O18   O     O_R   0.096270 0.930570 0.059390 -0.528456
C59   C     C_R   0.927920 0.916342 0.081366 0.727396
O19   O     O_R   0.089600 0.906290 0.912460 -0.546541
C60   C     C_R   0.921201 0.883096 0.884908 0.702145
V4    V     V_3+5 0.207670 0.990600 0.998190 1.465785
O20   O     O_3   0.935250 0.050360 0.008480 -0.376409
I1    I     I_    0.768169 0.497091 0.704034 -0.395749
S1    S     S_3+6 0.513140 0.556206 0.293411 -0.010109
O21   O     O_2   0.383303 0.566167 0.357185 -0.356331
O22   O     O_2   0.393087 0.564854 0.232078 -0.302626
O23   O     O_3   0.608115 0.463666 0.266477 -0.498905
H27   H     H_    0.676873 0.458369 0.309159 0.312243
I2    I     I_    0.735879 0.336387 0.847227 -0.354917
I3    I     I_    0.776112 0.612659 0.097720 -0.042925
I4    I     I_    0.723016 0.746184 0.994862 -0.154462
S2    S     S_3+6 0.236717 0.628772 0.942317 0.079935
O24   O     O_2   0.257486 0.704762 0.005140 -0.305037
O25   O     O_2   0.119455 0.569964 0.965697 -0.279863
O26   O     O_3   0.455085 0.588969 0.916118 -0.442109
H28   H     H_    0.429265 0.537085 0.878094 0.356774

loop_
_geom_bond_atom_site_label_1
_geom_bond_atom_site_label_2
_ccdc_geom_bond_type
V3    O20   S    
C31   C32   A    
C55   C56   A    
C24   C25   A    
O2    C1    A    
C18   C19   A    
C1    O6    A    
S1    O22   D    
C48   H22   S    
C53   C54   A    
O26   H28   S    
C28   C29   A    
S2    O24   D    
C44   H19   S    
C11   C12   A    
C38   C39   A    
C4    C7    S    
C19   C20   A    
C6    C7    A    
C20   C21   A    
C45   C46   A    
O5    C3    A    
C21   C22   A    
C20   H9    S    
C51   C52   A    
V2    O10   S    
C42   H18   S    
O15   V3    S    
C41   H17   S    
C32   C33   A    
C17   C18   A    
C51   C56   A    
C29   C30   A    
O13   C60   A    
O8    V2    S    
C15   H5    S    
C13   C59   S    
O12   C57   A    
C18   H7    S    
C9    H3    S    
C15   C16   A    
O1    V2    S    
O9    C4    A    
O7    V1    S    
S2    O26   S    
C30   H11   S    
C42   C43   A    
C35   C36   A    
C31   C36   A    
O19   V4    S    
C55   I2    S    
S1    O21   D    
C48   C49   A    
S2    O25   D    
C35   C37   A    
C43   C44   A    
C45   H20   S    
O11   V4    S    
C54   H26   S    
O4    C2    A    
C51   H24   S    
C22   C26   A    
H12   C43   S    
C28   H10   S    
C34   C35   A    
C57   O16   A    
C17   C22   A    
C3    C23   S    
C37   C58   S    
C14   H4    S    
C54   C55   A    
C50   C56   S    
C11   C16   A    
C49   H23   S    
O19   C60   A    
C5    H1    S    
C29   S2    S    
C33   H15   S    
C31   H13   S    
O3    C4    A    
C23   C24   A    
C49   C50   A    
C52   C53   A    
O6    V2    S    
C32   H14   S    
O12   V3    S    
C24   C27   A    
C17   H6    S    
C25   C26   A    
O2    V1    S    
C12   C13   A    
C19   H8    S    
C27   C28   A    
O18   V4    S    
C39   C44   A    
C13   C14   A    
C38   C41   A    
O14   C58   A    
O1    C2    A    
O15   C59   A    
C11   I3    S    
C47   C48   A    
O5    V1    S    
O8    C3    A    
C12   I4    S    
O18   C59   A    
C1    C40   S    
C8    S1    S    
O17   V4    S    
C36   C40   A    
C5    C10   A    
C6    H2    S    
O9    V2    S    
O7    V2    S    
O4    V1    S    
C14   C15   A    
O3    V1    S    
V1    O10   S    
V4    O20   S    
C21   C23   A    
C46   H21   S    
C34   H16   S    
C33   C34   A    
C5    C6    A    
O14   V3    S    
C46   C47   A    
C26   C60   S    
C9    C10   A    
C37   C38   A    
O13   V3    S    
C39   C40   A    
C27   I1    S    
C25   C30   A    
C52   H25   S    
C41   C42   A    
O17   V3    S    
C8    C9    A    
O16   V4    S    
O23   H27   S    
C7    C8    A    
C45   C50   A    
C53   C57   S    
S1    O23   S    
O11   C58   A    
C10   C16   S    
C2    C47   S    
