data_mof_unit_33829.cif
_audit_creation_date              2012-12-10T17:02:13-0500
_audit_creation_method            fapswitch 2.2
_symmetry_space_group_name_H-M    P1
_symmetry_Int_Tables_number       1
_space_group_crystal_system       triclinic
_cell_length_a                    10.642084
_cell_length_b                    10.717768
_cell_length_c                    10.058036
_cell_angle_alpha                 90.787112
_cell_angle_beta                  90.396068
_cell_angle_gamma                 90.628818
_cell_volume                      1147.00746596

loop_
_atom_site_label
_atom_site_type_symbol
_atom_type_description
_atom_site_fract_x
_atom_site_fract_y
_atom_site_fract_z
_atom_type_partial_charge
C1    C     C_R   0.491908 0.263237 0.498666 0.797480
C2    C     C_R   0.068334 0.609613 0.569286 0.094378
C3    C     C_R   0.128736 0.513375 0.498277 -0.089945
C4    C     C_R   0.062861 0.422906 0.425019 -0.214467
C5    C     C_R   0.934514 0.422372 0.426517 -0.197652
C6    C     C_R   0.872164 0.512224 0.501342 -0.092411
C7    C     C_2   0.508447 0.933103 0.394025 -0.200523
C8    C     C_2   0.533878 0.868104 0.503150 0.195518
C9    C     C_2   0.519149 0.066325 0.396061 -0.252680
C10   C     C_2   0.464429 0.132561 0.492578 0.403271
C11   C     C_2   0.600777 0.505262 0.926393 -0.070887
C12   C     C_R   0.260737 0.503535 0.499585 0.845006
C13   C     C_2   0.597394 0.479784 0.072822 -0.030686
C14   C     C_R   0.507235 0.737307 0.501029 0.815326
C15   C     C_R   0.739520 0.503892 0.500533 0.860667
C16   C     C_R   0.135390 0.708219 0.633838 -0.146951
C17   C     C_R   0.071912 0.801772 0.702544 -0.142673
C18   C     C_R   0.941374 0.799689 0.706873 -0.109049
C19   C     C_R   0.873810 0.704615 0.641517 -0.167067
C20   C     C_R   0.936620 0.608377 0.572037 0.075504
H1    H     H_    0.111139 0.350535 0.369659 0.152465
H2    H     H_    0.691495 0.519795 0.880375 0.157106
H3    H     H_    0.421485 0.464459 0.894022 0.211070
H4    H     H_    0.681425 0.442274 0.118064 0.121459
H5    H     H_    0.236672 0.715454 0.630059 0.165905
H6    H     H_    0.124121 0.876590 0.751660 0.156047
H7    H     H_    0.892343 0.872809 0.759793 0.180448
H8    H     H_    0.772639 0.708462 0.644642 0.180541
H9    H     H_    0.883472 0.349988 0.371605 0.154288
H10   H     H_    0.473432 0.889120 0.302871 0.186695
H11   H     H_    0.572382 0.110138 0.317130 0.150643
N1    N     N_2   0.501340 0.501330 0.852150 -0.169959
N2    N     N_2   0.501380 0.501360 0.147810 0.008663
O1    O     O_R   0.499980 0.319060 0.613040 -0.584799
O2    O     O_R   0.500020 0.319100 0.386900 -0.652829
O3    O     O_R   0.316750 0.499980 0.613090 -0.627620
O4    O     O_R   0.316790 0.500020 0.386950 -0.569766
O5    O     O_R   0.499980 0.680900 0.613100 -0.580136
O6    O     O_R   0.500020 0.680940 0.386960 -0.594033
O7    O     O_R   0.683210 0.499980 0.613050 -0.625705
O8    O     O_R   0.683250 0.500020 0.386910 -0.618269
Zn1   Zn    Zn3+2 0.499970 0.499970 0.650990 0.981607
Zn2   Zn    Zn3+2 0.500030 0.500030 0.349010 1.009028
O9    O     O_3   0.389407 0.076421 0.588063 -0.602859
C21   C     C_3   0.266618 0.126252 0.587845 0.087985
H12   H     H_    0.200617 0.051213 0.553628 0.160542
H13   H     H_    0.252869 0.206803 0.520226 0.084989
C22   C     C_3   0.232262 0.165826 0.729507 -0.306943
H14   H     H_    0.245404 0.085882 0.797263 0.234743
H15   H     H_    0.295563 0.243277 0.763247 0.240441
C23   C     C_3   0.096273 0.208825 0.737712 -0.944502
H16   H     H_    0.081825 0.291328 0.674193 0.277876
H17   H     H_    0.074213 0.235269 0.842008 0.272032
H18   H     H_    0.031079 0.132517 0.705203 0.266947
Br1   Br    Br    0.381059 0.620033 0.094203 -0.431514
Br2   Br    Br    0.620298 0.936817 0.658468 -0.504747

loop_
_geom_bond_atom_site_label_1
_geom_bond_atom_site_label_2
_ccdc_geom_bond_type
N2    Br1   S    
O6    Zn2   S    
C13   N2    D    
C4    H1    S    
C2    C16   A    
C14   O5    A    
C6    C20   A    
C9    C10   D    
C11   H2    S    
O3    Zn1   S    
C19   C20   A    
O1    Zn1   S    
C23   H18   S    
H3    N1    S    
C8    Br2   S    
O7    Zn1   S    
C17   C18   A    
C6    C15   S    
C7    C8    D    
C7    H10   S    
C21   H12   S    
C19   H8    S    
O8    Zn2   S    
C15   O8    A    
C17   H6    S    
C22   H15   S    
C22   H14   S    
C1    O1    A    
C2    C3    A    
C5    H9    S    
C21   H13   S    
C5    C6    A    
C15   O7    A    
O4    Zn2   S    
C12   O3    A    
C1    C10   S    
C9    H11   S    
C10   O9    S    
C3    C4    A    
N2    Zn2   S    
O5    Zn1   S    
C11   C13   S    
O2    Zn2   S    
O9    C21   S    
C1    O2    A    
C18   C19   A    
C12   O4    A    
C21   C22   S    
C16   H5    S    
C7    C9    S    
N1    Zn1   S    
C4    C5    A    
C8    C14   S    
C3    C12   S    
C23   H17   S    
C14   O6    A    
C2    C20   A    
C22   C23   S    
C18   H7    S    
C23   H16   S    
C13   H4    S    
C16   C17   A    
C11   N1    D    
