data_mof_unit_19245.cif
_audit_creation_date              2012-12-10T18:55:14-0500
_audit_creation_method            fapswitch 2.2
_symmetry_space_group_name_H-M    P1
_symmetry_Int_Tables_number       1
_space_group_crystal_system       triclinic
_cell_length_a                    10.786815
_cell_length_b                    9.855941
_cell_length_c                    26.882982
_cell_angle_alpha                 89.171375
_cell_angle_beta                  90.698249
_cell_angle_gamma                 88.176843
_cell_volume                      2856.06883353

loop_
_atom_site_label
_atom_site_type_symbol
_atom_type_description
_atom_site_fract_x
_atom_site_fract_y
_atom_site_fract_z
_atom_type_partial_charge
C1    C     C_R   0.260725 0.502573 0.505134 0.953654
C2    C     C_R   0.357903 0.324710 0.872528 -0.067253
C3    C     C_R   0.498012 0.497572 0.350839 -0.220982
C4    C     C_R   0.502439 0.495169 0.649553 -0.202166
C5    C     C_R   0.344415 0.265466 0.976009 -0.021529
C6    C     C_R   0.565831 0.247793 0.033154 -0.019941
C7    C     C_R   0.569141 0.295715 0.983475 0.073756
C8    C     C_R   0.338293 0.266955 0.028876 0.073395
C9    C     C_R   0.458585 0.298826 0.954347 0.065766
C10   C     C_R   0.450341 0.255477 0.057034 0.065402
C11   C     C_R   0.242359 0.238700 0.943854 0.032288
C12   C     C_R   0.740614 0.498465 0.497015 0.958338
C13   C     C_R   0.672606 0.201739 0.060998 0.032442
C14   C     C_R   0.249538 0.268511 0.892450 0.144208
C15   C     C_R   0.667413 0.194544 0.113296 0.148166
C16   C     C_R   0.499455 0.500428 0.405378 0.969136
C17   C     C_R   0.500846 0.499094 0.594737 0.963236
C18   C     C_R   0.226561 0.292555 0.054478 -0.229310
C19   C     C_R   0.675629 0.354466 0.963917 -0.230958
C20   C     C_R   0.068177 0.387058 0.522148 -0.104937
C21   C     C_R   0.934256 0.623843 0.489682 -0.097813
C22   C     C_R   0.944420 0.376956 0.508078 -0.160735
C23   C     C_R   0.448043 0.260790 0.109241 -0.098262
C24   C     C_R   0.059678 0.630846 0.501099 -0.120496
C25   C     C_R   0.875288 0.497579 0.495331 -0.192274
C26   C     C_R   0.127857 0.509171 0.512361 -0.131042
C27   C     C_R   0.554951 0.068685 0.538088 0.087666
C28   C     C_R   0.445796 0.931137 0.461628 0.076762
C29   C     C_R   0.443406 0.075999 0.462192 0.108392
C30   C     C_R   0.555683 0.923971 0.537972 0.131652
C31   C     C_R   0.341421 0.319495 0.184754 0.578509
C32   C     C_R   0.570291 0.446736 0.836257 0.589550
C33   C     C_R   0.550860 0.253731 0.189062 0.568963
C34   C     C_R   0.462080 0.339829 0.903918 -0.094426
C35   C     C_R   0.368448 0.361765 0.821712 0.564565
C36   C     C_R   0.593895 0.425628 0.274074 -0.066983
C37   C     C_R   0.405232 0.551507 0.728722 -0.079509
C38   C     C_R   0.602217 0.444140 0.325698 -0.170087
C39   C     C_R   0.410642 0.567964 0.676485 -0.152805
C40   C     C_R   0.390767 0.539275 0.323265 -0.106271
C41   C     C_R   0.592303 0.411532 0.674894 -0.106944
C42   C     C_R   0.380668 0.501847 0.272704 0.088301
C43   C     C_R   0.577016 0.383391 0.725930 0.081955
C44   C     C_R   0.474364 0.415898 0.252057 0.177512
C45   C     C_R   0.336538 0.292099 0.133652 -0.017400
C46   C     C_R   0.484920 0.453902 0.752731 0.227472
C47   C     C_2   0.285995 0.612059 0.347600 0.926778
C48   C     C_2   0.707845 0.365880 0.649226 0.940022
C49   C     C_2   0.321183 0.661728 0.650088 1.022816
C50   C     C_2   0.718558 0.406261 0.352839 1.020274
C51   C     C_2   0.314268 0.631884 0.758451 0.996017
C52   C     C_2   0.703952 0.451116 0.242185 0.986935
C53   C     C_2   0.135281 0.272314 0.548603 1.012239
C54   C     C_2   0.866753 0.750015 0.471294 1.020267
C55   C     C_2   0.890671 0.240103 0.505181 1.020689
C56   C     C_R   0.570018 0.398161 0.885244 -0.012045
C57   C     C_2   0.116355 0.766884 0.501807 1.016299
C58   C     C_R   0.225611 0.304067 0.106139 -0.127768
C59   C     C_R   0.675342 0.407100 0.915785 -0.131218
C60   C     C_R   0.556918 0.234354 0.137466 -0.054577
H1    H     H_    0.138743 0.329586 0.124096 0.181205
H2    H     H_    0.448474 0.885219 0.388779 0.193812
H3    H     H_    0.286120 0.129276 0.423915 0.202954
H4    H     H_    0.417345 0.127398 0.389474 0.189867
H5    H     H_    0.710116 0.869879 0.578234 0.227959
H6    H     H_    0.576285 0.873224 0.610957 0.191541
H7    H     H_    0.198676 0.546480 0.257284 0.247575
H8    H     H_    0.298181 0.667190 0.239285 0.221767
H9    H     H_    0.644030 0.189527 0.735412 0.232018
H10   H     H_    0.747033 0.312005 0.749908 0.251177
H11   H     H_    0.252269 0.853258 0.641191 0.378346
H12   H     H_    0.758660 0.453386 0.902438 0.186843
H13   H     H_    0.861978 0.466935 0.394277 0.359228
H14   H     H_    0.138993 0.706362 0.765321 0.360006
H15   H     H_    0.889839 0.442829 0.233911 0.357493
H16   H     H_    0.127920 0.138318 0.862757 0.221841
H17   H     H_    0.067750 0.296204 0.873690 0.193751
H18   H     H_    0.804466 0.056351 0.131186 0.218182
H19   H     H_    0.847068 0.220502 0.132906 0.194083
H20   H     H_    0.063306 0.230184 0.966884 0.170060
H21   H     H_    0.160229 0.104265 0.992013 0.214264
H22   H     H_    0.851251 0.218926 0.038717 0.167569
H23   H     H_    0.140418 0.315377 0.035010 0.144722
H24   H     H_    0.763982 0.121086 0.000597 0.213133
H25   H     H_    0.199299 0.078279 0.547422 0.360368
H26   H     H_    0.766447 0.843488 0.416289 0.346271
H27   H     H_    0.802764 0.104594 0.462904 0.362742
H28   H     H_    0.141740 0.944498 0.465863 0.363677
H29   H     H_    0.757396 0.368582 0.986530 0.149633
H30   H     H_    0.158982 0.612325 0.401828 0.357139
H31   H     H_    0.843983 0.414416 0.602243 0.356940
H32   H     H_    0.700308 0.102445 0.583693 0.247749
H33   H     H_    0.560000 0.114890 0.610799 0.190413
H34   H     H_    0.305158 0.895257 0.413075 0.218384
N1    N     N_R   0.454670 0.330860 0.208146 -0.326147
N2    N     N_3   0.654579 0.283909 0.751909 -0.425281
N3    N     N_3   0.145395 0.241973 0.860684 -0.352877
N4    N     N_3   0.776426 0.154267 0.141631 -0.352838
N5    N     N_3   0.138136 0.163180 0.960327 -0.471174
N6    N     N_3   0.782069 0.147165 0.037448 -0.470405
N7    N     N_R   0.472711 0.423193 0.804999 -0.335422
N8    N     N_R   0.500000 0.857200 0.500000 -0.078781
N9    N     N_R   0.500000 0.142800 0.500000 -0.081944
N10   N     N_3   0.609047 0.138321 0.578665 -0.376151
N11   N     N_3   0.396219 0.861222 0.420002 -0.374306
N12   N     N_3   0.379727 0.153489 0.423812 -0.364865
N13   N     N_3   0.616363 0.846544 0.577130 -0.369130
N14   N     N_3   0.285014 0.562665 0.241337 -0.395196
O1    O     O_R   0.316770 0.614620 0.500000 -0.592552
O2    O     O_2   0.668398 0.514993 0.819498 -0.543002
O3    O     O_2   0.276597 0.336003 0.789041 -0.501686
O4    O     O_2   0.637393 0.194817 0.219652 -0.505593
O5    O     O_2   0.246173 0.720863 0.330614 -0.614275
O6    O     O_R   0.231581 0.554918 0.389511 -0.800653
O7    O     O_2   0.757838 0.255502 0.658983 -0.627394
O8    O     O_R   0.762430 0.452959 0.615000 -0.795355
O9    O     O_2   0.250793 0.617939 0.618638 -0.574683
O10   O     O_R   0.317005 0.799618 0.661627 -0.783073
O11   O     O_2   0.763116 0.291128 0.349551 -0.519085
O12   O     O_R   0.683230 0.385380 0.500000 -0.601020
O13   O     O_R   0.778917 0.502721 0.380791 -0.771367
O14   O     O_2   0.346453 0.680213 0.798035 -0.616075
O15   O     O_R   0.191595 0.650524 0.741679 -0.741141
O16   O     O_2   0.688292 0.502054 0.200709 -0.641579
O17   O     O_R   0.824613 0.420027 0.259285 -0.735358
O18   O     O_2   0.183909 0.291409 0.589131 -0.575584
O19   O     O_R   0.147862 0.145581 0.526326 -0.792386
O20   O     O_2   0.858399 0.849312 0.497958 -0.626120
O21   O     O_R   0.811182 0.753503 0.424070 -0.726090
O22   O     O_2   0.893112 0.164192 0.541546 -0.593289
O23   O     O_R   0.683230 0.614620 0.500000 -0.596136
O24   O     O_R   0.838509 0.198242 0.460292 -0.743961
O25   O     O_2   0.167336 0.805519 0.539671 -0.581519
O26   O     O_R   0.106966 0.851927 0.459794 -0.801363
O27   O     O_R   0.316770 0.385380 0.500000 -0.601395
O28   O     O_R   0.500030 0.614650 0.428760 -0.581099
O29   O     O_R   0.499970 0.385350 0.571240 -0.593225
O30   O     O_R   0.499970 0.614650 0.571240 -0.591614
O31   O     O_R   0.500030 0.385350 0.428760 -0.592792
O32   O     O_2   0.235381 0.326385 0.210619 -0.543439
Zn1   Zn    Zn3+2 0.500000 0.653120 0.500000 1.054971
Zn2   Zn    Zn3+2 0.500000 0.346880 0.500000 1.045048

loop_
_geom_bond_atom_site_label_1
_geom_bond_atom_site_label_2
_ccdc_geom_bond_type
C2    C35   A    
C40   C47   S    
O29   Zn2   S    
H34   N11   S    
C34   C56   A    
C23   C45   A    
C12   O23   A    
C30   N13   S    
C47   O6    S    
C51   O15   S    
C15   C60   A    
H19   N4    S    
H6    N13   S    
H9    N2    S    
H2    N11   S    
C32   O2    S    
C28   C29   A    
C24   C26   A    
C5    C11   A    
C47   O5    D    
C21   C54   S    
C37   C51   S    
C11   C14   A    
H7    N14   S    
C4    C41   A    
C27   N10   S    
H31   O8    S    
C29   N9    A    
C11   N5    S    
C53   O19   S    
C1    O1    A    
C12   O12   A    
C18   C58   A    
O27   Zn2   S    
C49   O9    D    
C3    C38   A    
C24   C57   S    
C22   C25   A    
H18   N4    S    
H17   N3    S    
C17   O30   A    
N8    Zn1   S    
C36   C52   S    
C59   H12   S    
C48   O8    S    
C2    C34   A    
C58   H1    S    
C40   C42   A    
H14   O15   S    
C27   C30   A    
C41   C43   A    
C57   O25   D    
C50   O13   S    
C42   C44   A    
C2    C14   A    
C33   N1    A    
H33   N10   S    
C18   H23   S    
C23   C60   A    
C46   N7    S    
C45   C58   A    
C50   O11   D    
H24   N6    S    
O12   Zn2   S    
H21   N5    S    
C19   C59   A    
H16   N3    S    
C54   O20   D    
C8    C18   A    
H15   O17   S    
H27   O24   S    
H10   N2    S    
C5    C9    A    
O28   Zn1   S    
C19   H29   S    
C49   O10   S    
C4    C39   A    
C28   N11   S    
C55   O22   D    
C30   N8    A    
C43   N2    S    
C33   O4    S    
H3    N12   S    
C6    C7    A    
C48   O7    D    
C4    C17   S    
C39   C49   S    
C20   C22   A    
C3    C40   A    
C33   C60   A    
H13   O13   S    
C13   C15   A    
H20   N5    S    
C9    C34   A    
C57   O26   S    
C36   C44   A    
C16   O31   A    
C15   N4    S    
C16   O28   A    
N9    Zn2   S    
C35   O3    S    
C14   N3    S    
C7    C9    A    
C54   O21   S    
C21   C25   A    
H11   O10   S    
H22   N6    S    
C20   C53   S    
C35   N7    A    
O30   Zn1   S    
O23   Zn1   S    
C6    C10   A    
C5    C8    A    
O1    Zn1   S    
C52   O17   S    
H26   O21   S    
H4    N12   S    
C22   C55   S    
C38   C50   S    
C10   C23   A    
C7    C19   A    
C56   C59   A    
C12   C25   S    
C13   N6    S    
C36   C38   A    
C37   C46   A    
H28   O26   S    
C37   C39   A    
C44   N1    S    
C6    C13   A    
C52   O16   D    
C1    C26   S    
C20   C26   A    
C31   N1    A    
C27   N9    A    
O31   Zn2   S    
C41   C48   S    
H5    N13   S    
H30   O6    S    
C29   N12   S    
C43   C46   A    
H25   O19   S    
C53   O18   D    
H32   N10   S    
C28   N8    A    
C8    C10   A    
C55   O24   S    
C31   C45   A    
C21   C24   A    
C51   O14   D    
C32   N7    A    
C17   O29   A    
H8    N14   S    
C31   O32   S    
C1    O27   A    
C42   N14   S    
C32   C56   A    
C3    C16   S    
