data_mof_unit_47012.cif
_audit_creation_date              2012-12-10T20:44:04-0500
_audit_creation_method            fapswitch 2.2
_symmetry_space_group_name_H-M    P1
_symmetry_Int_Tables_number       1
_space_group_crystal_system       triclinic
_cell_length_a                    17.078456
_cell_length_b                    10.659045
_cell_length_c                    9.824208
_cell_angle_alpha                 90.856268
_cell_angle_beta                  91.561201
_cell_angle_gamma                 92.19253
_cell_volume                      1786.19769108

loop_
_atom_site_label
_atom_site_type_symbol
_atom_type_description
_atom_site_fract_x
_atom_site_fract_y
_atom_site_fract_z
_atom_type_partial_charge
C1    C     C_R   0.501531 0.259657 0.498838 0.890715
C2    C     C_R   0.121801 0.636798 0.507999 -0.030101
C3    C     C_R   0.495060 0.062463 0.616184 -0.055070
C4    C     C_R   0.352517 0.505463 0.498456 0.886879
C5    C     C_R   0.493914 0.127000 0.495536 -0.130969
C6    C     C_R   0.473857 0.060779 0.374251 -0.214010
C7    C     C_R   0.466792 0.930598 0.376733 -0.185982
C8    C     C_R   0.476068 0.868840 0.501797 -0.129059
C9    C     C_R   0.474396 0.938990 0.623072 -0.010693
C10   C     C_3   0.508878 0.932727 0.766737 0.201051
C11   C     C_3   0.540201 0.068024 0.748681 0.310880
C12   C     C_R   0.888462 0.631738 0.492208 0.086686
C13   C     C_R   0.470148 0.398468 0.068084 0.092699
C14   C     C_R   0.537950 0.593088 0.075661 -0.137632
C15   C     C_R   0.538427 0.592375 0.931498 -0.151903
C16   C     C_R   0.493643 0.739362 0.500858 0.856711
C17   C     C_R   0.470203 0.397985 0.925670 0.123834
C18   C     C_3   0.388985 0.339201 0.915166 0.189405
C19   C     C_3   0.389653 0.339327 0.070779 0.225315
C20   C     C_R   0.648133 0.507172 0.501610 0.889891
C21   C     C_R   0.854031 0.614618 0.617587 -0.284523
C22   C     C_R   0.775026 0.575583 0.624728 0.466755
C23   C     C_1   0.970587 0.656236 0.490322 -0.037506
C24   C     C_R   0.732594 0.541980 0.502851 -0.148151
C25   C     C_R   0.769377 0.556933 0.376941 -0.275418
C26   C     C_R   0.846543 0.602642 0.371727 -0.168076
C27   C     C_3   0.417224 0.812684 0.888226 0.098066
C28   C     C_3   0.327980 0.815544 0.889913 -0.341674
C29   C     C_3   0.292142 0.683954 0.910134 -0.974913
C30   C     C_3   0.658256 0.022383 0.632122 0.102007
C31   C     C_3   0.746630 0.018681 0.659481 -0.332482
C32   C     C_3   0.786778 0.948587 0.545810 -0.972502
C33   C     C_3   0.332752 0.190868 0.759248 0.149414
C34   C     C_1   0.040443 0.659070 0.495947 0.064170
C35   C     C_3   0.253334 0.154854 0.818817 -0.418818
C36   C     C_3   0.196404 0.099931 0.709103 -0.960100
C37   C     C_3   0.263682 0.356384 0.150305 0.088965
C38   C     C_3   0.195951 0.432370 0.096242 -0.352037
C39   C     C_3   0.116688 0.371240 0.129407 -0.974663
C40   C     C_3   0.738792 0.679334 0.818528 0.087785
C41   C     C_3   0.742475 0.659724 0.972362 -0.334667
C42   C     C_3   0.729020 0.781554 0.050486 -0.982985
C43   C     C_3   0.079044 0.379822 0.702033 0.055651
C44   C     C_3   0.997054 0.352457 0.755628 -0.296877
C45   C     C_R   0.144661 0.545788 0.600950 0.459325
C46   C     C_3   0.980182 0.211815 0.770887 -0.970226
C47   C     C_3   0.146278 0.769142 0.203085 0.057609
C48   C     C_3   0.106607 0.880070 0.136776 -0.313382
C49   C     C_3   0.098528 0.864168 0.982327 -0.969727
C50   C     C_R   0.220403 0.500782 0.596090 -0.365641
C51   C     C_R   0.271336 0.543207 0.495970 -0.138739
C52   C     C_R   0.248562 0.638059 0.406633 -0.291287
C53   C     C_R   0.173507 0.686151 0.412934 0.417859
H1    H     H_    0.554830 0.863521 0.785366 0.075831
H2    H     H_    0.439073 0.782863 0.989633 0.152088
H3    H     H_    0.432354 0.741952 0.810760 0.180707
H4    H     H_    0.310275 0.878414 0.973967 0.220157
H5    H     H_    0.305539 0.852383 0.791661 0.235909
H6    H     H_    0.309767 0.619639 0.827621 0.283272
H7    H     H_    0.227277 0.686101 0.907585 0.274851
H8    H     H_    0.312075 0.647297 0.009862 0.288523
H9    H     H_    0.517325 0.136042 0.822266 0.203179
H10   H     H_    0.647946 0.077020 0.538305 0.155871
H11   H     H_    0.635289 0.924294 0.615695 0.112085
H12   H     H_    0.566634 0.670014 0.132899 0.155225
H13   H     H_    0.772043 0.116163 0.668147 0.237157
H14   H     H_    0.757973 0.971060 0.757523 0.219749
H15   H     H_    0.762494 0.850607 0.535917 0.262246
H16   H     H_    0.850610 0.945924 0.569769 0.272625
H17   H     H_    0.778158 0.996815 0.447388 0.272467
H18   H     H_    0.567060 0.668801 0.879907 0.135895
H19   H     H_    0.351451 0.109570 0.698406 0.190423
H20   H     H_    0.328371 0.269814 0.687039 0.112534
H21   H     H_    0.261168 0.084275 0.899615 0.240394
H22   H     H_    0.228355 0.239137 0.865320 0.199466
H23   H     H_    0.345402 0.402168 0.868359 0.101870
H24   H     H_    0.188352 0.168178 0.626031 0.254725
H25   H     H_    0.138784 0.077870 0.754289 0.273675
H26   H     H_    0.218848 0.011861 0.665772 0.279394
H27   H     H_    0.259073 0.346481 0.262278 0.162577
H28   H     H_    0.257838 0.260231 0.103669 0.113975
H29   H     H_    0.200796 0.527611 0.142744 0.221186
H30   H     H_    0.199900 0.441405 0.984068 0.226488
H31   H     H_    0.109922 0.276475 0.080870 0.266485
H32   H     H_    0.069105 0.429991 0.089835 0.266271
H33   H     H_    0.111178 0.363122 0.241405 0.261729
H34   H     H_    0.390799 0.245174 0.118853 0.094854
H35   H     H_    0.683363 0.723632 0.788013 0.140484
H36   H     H_    0.787608 0.747013 0.794444 0.123770
H37   H     H_    0.697812 0.587140 0.000624 0.239851
H38   H     H_    0.801035 0.625331 0.002201 0.214747
H39   H     H_    0.775407 0.853494 0.027725 0.271299
H40   H     H_    0.730889 0.763849 0.161596 0.271587
H41   H     H_    0.670840 0.818050 0.022093 0.264119
H42   H     H_    0.874155 0.611526 0.274120 0.145311
H43   H     H_    0.122575 0.337045 0.770926 0.167660
H44   H     H_    0.081725 0.336485 0.598079 0.130543
H45   H     H_    0.738340 0.534340 0.281580 0.184753
H46   H     H_    0.991581 0.399786 0.856330 0.228435
H47   H     H_    0.952838 0.390584 0.683867 0.228146
H48   H     H_    0.986840 0.161777 0.672100 0.269488
H49   H     H_    0.919141 0.195272 0.804509 0.269918
H50   H     H_    0.020836 0.173433 0.848546 0.261166
H51   H     H_    0.239617 0.434551 0.671128 0.147277
H52   H     H_    0.108725 0.682836 0.181446 0.138641
H53   H     H_    0.205018 0.759252 0.158903 0.152479
H54   H     H_    0.047301 0.888633 0.179148 0.226656
H55   H     H_    0.141349 0.968283 0.161262 0.224205
H56   H     H_    0.290321 0.679014 0.337329 0.172772
H57   H     H_    0.157037 0.871170 0.936186 0.274532
H58   H     H_    0.062740 0.940089 0.940310 0.262712
H59   H     H_    0.069234 0.772173 0.954312 0.279884
H60   H     H_    0.468340 0.107780 0.277701 0.168930
H61   H     H_    0.888834 0.630451 0.710717 0.156211
H62   H     H_    0.460027 0.879238 0.280842 0.169279
N1    N     N_R   0.499490 0.499140 0.142800 -0.077069
N2    N     N_R   0.499490 0.499180 0.857150 -0.116536
O1    O     O_R   0.500010 0.316790 0.614690 -0.598260
O2    O     O_3   0.623734 0.081841 0.744521 -0.651015
O3    O     O_3   0.390154 0.214653 0.863606 -0.654969
O4    O     O_3   0.335222 0.421992 0.124064 -0.635949
O5    O     O_3   0.741686 0.561243 0.750763 -0.621658
O6    O     O_3   0.093677 0.511082 0.702669 -0.648056
O7    O     O_3   0.154194 0.793782 0.344261 -0.635687
O8    O     O_R   0.500000 0.316760 0.385350 -0.626066
O9    O     O_R   0.389120 0.500020 0.614710 -0.640057
O10   O     O_R   0.389110 0.499990 0.385370 -0.563344
O11   O     O_R   0.500000 0.683240 0.614650 -0.658969
O12   O     O_R   0.499990 0.683210 0.385310 -0.623428
O13   O     O_R   0.610890 0.500010 0.614630 -0.550602
O14   O     O_R   0.610880 0.499980 0.385290 -0.623513
O15   O     O_3   0.449084 0.934118 0.864233 -0.631273
Zn1   Zn    Zn3+2 0.500010 0.500020 0.653130 0.953344
Zn2   Zn    Zn3+2 0.499990 0.499980 0.346870 0.962510

loop_
_geom_bond_atom_site_label_1
_geom_bond_atom_site_label_2
_ccdc_geom_bond_type
O8    Zn2   S    
C31   H13   S    
C35   H21   S    
C50   H51   S    
C30   H11   S    
C38   H30   S    
C42   H40   S    
C41   C42   S    
C35   C36   S    
O10   Zn2   S    
C11   H9    S    
N2    Zn1   S    
C7    C8    A    
C48   H55   S    
C28   H4    S    
C45   O6    S    
C31   H14   S    
C46   H49   S    
C12   C23   S    
C35   H22   S    
C1    C5    S    
C52   H56   S    
C28   C29   S    
C1    O8    A    
C39   H31   S    
C19   H34   S    
C36   H24   S    
C30   C31   S    
C44   H46   S    
C27   H2    S    
C48   H54   S    
N1    Zn2   S    
C30   O2    S    
C4    O9    A    
C18   C19   S    
C7    H62   S    
C33   H19   S    
C18   O3    S    
C20   C24   S    
C47   H53   S    
C8    C9    A    
C47   H52   S    
C22   O5    S    
C40   H36   S    
C9    C10   S    
C17   N2    A    
C32   H15   S    
C2    C34   S    
C41   H37   S    
C11   O2    S    
C8    C16   S    
C21   C22   A    
C38   H29   S    
C27   O15   S    
C37   H28   S    
O14   Zn2   S    
C49   H58   S    
C37   H27   S    
C44   C46   S    
C17   C18   S    
C2    C45   A    
C38   C39   S    
C46   H48   S    
C29   H8    S    
C13   C19   S    
C4    C51   S    
C51   C52   A    
C29   H6    S    
C24   C25   A    
O9    Zn1   S    
C27   H3    S    
C32   H17   S    
C50   C51   A    
C25   C26   A    
C12   C21   A    
C2    C53   A    
C15   N2    A    
C12   C26   A    
C43   C44   S    
C6    H60   S    
C37   C38   S    
C3    C9    A    
C47   C48   S    
C29   H7    S    
C23   C34   T    
C43   H43   S    
C16   O12   A    
C16   O11   A    
C32   H16   S    
O1    Zn1   S    
C36   H26   S    
C49   H59   S    
C37   O4    S    
C33   H20   S    
C48   C49   S    
C41   H38   S    
C22   C24   A    
O13   Zn1   S    
C39   H32   S    
C20   O14   A    
C43   O6    S    
C15   H18   S    
C52   C53   A    
C26   H42   S    
C19   O4    S    
C18   H23   S    
C4    O10   A    
C42   H41   S    
C31   C32   S    
C43   H44   S    
C20   O13   A    
C21   H61   S    
C3    C5    A    
C53   O7    S    
C6    C7    A    
C28   H5    S    
C40   O5    S    
C46   H50   S    
C13   C17   A    
C40   H35   S    
C36   H25   S    
O11   Zn1   S    
C44   H47   S    
C47   O7    S    
C5    C6    A    
C45   C50   A    
C14   N1    A    
C33   C35   S    
C14   H12   S    
C42   H39   S    
C1    O1    A    
C10   H1    S    
C10   O15   S    
C13   N1    A    
C3    C11   S    
C10   C11   S    
O12   Zn2   S    
C25   H45   S    
C33   O3    S    
C27   C28   S    
C14   C15   A    
C40   C41   S    
C39   H33   S    
C30   H10   S    
C49   H57   S    
