data_mof_unit_29918.cif
_audit_creation_date              2012-12-10T16:48:05-0500
_audit_creation_method            fapswitch 2.2
_symmetry_space_group_name_H-M    P1
_symmetry_Int_Tables_number       1
_space_group_crystal_system       triclinic
_cell_length_a                    15.851697
_cell_length_b                    8.735001
_cell_length_c                    7.45076
_cell_angle_alpha                 102.435215
_cell_angle_beta                  94.798757
_cell_angle_gamma                 92.25164
_cell_volume                      1002.19007145

loop_
_atom_site_label
_atom_site_type_symbol
_atom_type_description
_atom_site_fract_x
_atom_site_fract_y
_atom_site_fract_z
_atom_type_partial_charge
C1    C     C_R   0.496161 0.200440 0.454869 0.861523
C2    C     C_R   0.503839 0.799560 0.545131 0.861523
C3    C     C_R   0.339995 0.499888 0.501256 0.812743
C4    C     C_R   0.660005 0.500112 0.498744 0.812743
C5    C     C_2   0.482798 0.035083 0.434753 0.094856
C6    C     C_2   0.517202 0.964917 0.565247 0.094856
C7    C     C_3   0.973114 0.388286 0.578979 0.390730
C8    C     C_3   0.026885 0.611714 0.421021 0.390730
C9    C     C_3   0.020870 0.357742 0.403565 -0.365805
C10   C     C_3   0.979130 0.642258 0.596435 -0.365806
C11   C     C_1   0.250515 0.499931 0.502734 -0.079673
C12   C     C_1   0.749485 0.500069 0.497266 -0.079673
C13   C     C_3   0.035932 0.525896 0.673656 0.371697
C14   C     C_3   0.964068 0.474104 0.326344 0.371697
C15   C     C_3   0.083336 0.498395 0.498544 -0.071340
C16   C     C_3   0.916664 0.501605 0.501456 -0.071340
C17   C     C_1   0.174955 0.499408 0.500553 0.155874
C18   C     C_1   0.825045 0.500592 0.499447 0.155874
Cu1   Cu    Cu3+1 0.509330 0.517380 0.684380 1.072562
Cu2   Cu    Cu3+1 0.490670 0.482620 0.315620 1.072562
H1    H     H_    0.038244 0.241574 0.326578 0.214943
H2    H     H_    0.961755 0.758426 0.673422 0.214943
H3    H     H_    0.434820 0.377050 0.948402 0.244479
H4    H     H_    0.565180 0.622949 0.051598 0.244479
N1    N     N_2   0.476600 0.456420 0.038510 -0.176393
N2    N     N_2   0.523400 0.543580 0.961490 -0.176393
O1    O     O_R   0.506070 0.286130 0.619780 -0.568168
O2    O     O_R   0.493930 0.713870 0.380220 -0.568168
O3    O     O_R   0.490300 0.256770 0.308360 -0.538311
O4    O     O_R   0.509700 0.743230 0.691640 -0.538311
O5    O     O_R   0.386960 0.514660 0.655680 -0.584422
O6    O     O_R   0.613040 0.485340 0.344320 -0.584422
O7    O     O_R   0.371190 0.485310 0.344260 -0.552964
O8    O     O_R   0.628810 0.514690 0.655740 -0.552964
O9    O     O_3   0.942573 0.271668 0.663221 -0.623426
H5    H     H_    0.993228 0.217667 0.698094 0.352357
O10   O     O_3   0.057427 0.728332 0.336779 -0.623425
H6    H     H_    0.006772 0.782333 0.301906 0.352357
Cl1   Cl    Cl    0.913229 0.442479 0.098003 -0.477681
Cl2   Cl    Cl    0.086771 0.557521 0.901997 -0.477681
Cl3   Cl    Cl    0.409598 0.939866 0.246006 -0.533582
Cl4   Cl    Cl    0.590401 0.060134 0.753994 -0.533582

loop_
_geom_bond_atom_site_label_1
_geom_bond_atom_site_label_2
_ccdc_geom_bond_type
C2    O2    A    
C9    C14   S    
Cu1   O8    S    
C15   C17   S    
O10   H6    S    
C4    C12   S    
Cu1   O1    S    
O9    H5    S    
C2    O4    A    
Cu1   O5    S    
Cu1   Cu2   S    
C1    O3    A    
N1    N2    D    
C10   C16   S    
C10   H2    S    
C3    O5    A    
C9    H1    S    
C4    O6    A    
C1    C5    S    
Cu2   O7    S    
C8    C10   S    
C7    C16   S    
H4    N2    S    
C8    C15   S    
C4    O8    A    
Cu2   O3    S    
C13   C15   S    
C6    Cl4   S    
C5    C6    D    
C14   C16   S    
C3    C11   S    
C8    O10   S    
C3    O7    A    
C7    C9    S    
C7    C13   S    
H3    N1    S    
C16   C18   S    
Cu2   O6    S    
C12   C18   T    
C1    O1    A    
Cu1   N2    S    
C5    Cl3   S    
C11   C17   T    
C13   Cl2   S    
C8    C14   S    
Cu2   O2    S    
C14   Cl1   S    
C9    C15   S    
Cu1   O4    S    
C7    O9    S    
C10   C13   S    
C2    C6    S    
Cu2   N1    S    
