data_mof_unit_47542.cif
_audit_creation_date              2012-12-10T16:56:35-0500
_audit_creation_method            fapswitch 2.2
_symmetry_space_group_name_H-M    P1
_symmetry_Int_Tables_number       1
_space_group_crystal_system       triclinic
_cell_length_a                    7.826215
_cell_length_b                    8.59562
_cell_length_c                    15.675279
_cell_angle_alpha                 91.836516
_cell_angle_beta                  85.030316
_cell_angle_gamma                 93.327123
_cell_volume                      1048.37234407

loop_
_atom_site_label
_atom_site_type_symbol
_atom_type_description
_atom_site_fract_x
_atom_site_fract_y
_atom_site_fract_z
_atom_type_partial_charge
C1    C     C_R   0.544524 0.794185 0.497844 0.920980
C2    C     C_3   0.360562 0.409090 0.032234 -0.167736
C3    C     C_1   0.501958 0.496146 0.750811 -0.178869
C4    C     C_1   0.497312 0.496955 0.249159 -0.171467
C5    C     C_3   0.357218 0.556445 0.978457 -0.168345
C6    C     C_3   0.642987 0.430117 0.021473 -0.168977
C7    C     C_3   0.501404 0.493074 0.917168 0.213247
C8    C     C_3   0.498697 0.493496 0.082700 0.209671
C9    C     C_1   0.502269 0.494067 0.826195 -0.077224
C10   C     C_1   0.497339 0.494976 0.173711 -0.087260
C11   C     C_3   0.004519 0.331682 0.351829 0.225168
C12   C     C_R   0.455502 0.205810 0.502024 0.915274
C13   C     C_3   0.892325 0.190122 0.324540 -0.300061
C14   C     C_3   0.884959 0.181069 0.227494 -1.012142
C15   C     C_3   0.047200 0.716135 0.633980 0.227950
C16   C     C_3   0.991313 0.609232 0.708988 -0.371017
C17   C     C_3   0.067799 0.668930 0.790940 -0.990717
C18   C     C_R   0.500727 0.499378 0.661894 0.886034
C19   C     C_R   0.499063 0.499154 0.338111 0.883904
C20   C     C_2   0.563710 0.956099 0.510339 0.071051
C21   C     C_2   0.436520 0.043926 0.489283 0.072763
C22   C     C_3   0.495322 0.640808 0.030729 -0.156296
C23   C     C_3   0.504830 0.345678 0.969111 -0.153615
C24   C     C_3   0.639533 0.577466 0.967669 -0.170528
Cl1   Cl    Cl    0.735507 0.021493 0.572407 -0.575868
Cl2   Cl    Cl    0.265227 0.978637 0.426890 -0.583373
H1    H     H_    0.753306 0.646479 0.939082 0.140086
H2    H     H_    0.759913 0.197426 0.354756 0.243367
H3    H     H_    0.829859 0.287318 0.205191 0.268772
H4    H     H_    0.802233 0.077842 0.209701 0.278264
H5    H     H_    0.015647 0.169585 0.194939 0.268011
H6    H     H_    0.002329 0.834019 0.651648 0.179972
H7    H     H_    0.187633 0.732230 0.623717 0.171054
H8    H     H_    0.849602 0.605322 0.720854 0.239576
H9    H     H_    0.031312 0.489025 0.693381 0.246767
H10   H     H_    0.209879 0.681960 0.780852 0.277856
H11   H     H_    0.032000 0.584861 0.842654 0.265728
H12   H     H_    0.246548 0.340464 0.060950 0.132083
H13   H     H_    0.017231 0.783575 0.811432 0.264942
H14   H     H_    0.491360 0.761380 0.058157 0.138122
H15   H     H_    0.508811 0.225154 0.941628 0.138124
H16   H     H_    0.759689 0.378576 0.041377 0.134302
H17   H     H_    0.240502 0.608411 0.958997 0.138290
H18   H     H_    0.134321 0.321756 0.318126 0.146942
H19   H     H_    0.955377 0.441324 0.329543 0.119224
H20   H     H_    0.944949 0.081760 0.345667 0.275497
N1    N     N_2   0.950320 0.457950 0.477300 0.182656
N2    N     N_2   0.049680 0.542050 0.522700 0.168421
O1    O     O_R   0.389250 0.738570 0.505570 -0.616248
O2    O     O_3   0.969938 0.665654 0.559346 -0.515710
O3    O     O_R   0.610750 0.261430 0.494430 -0.597703
O4    O     O_R   0.678390 0.711630 0.491020 -0.542800
O5    O     O_R   0.321610 0.288370 0.508980 -0.547521
O6    O     O_R   0.355460 0.513480 0.630490 -0.661946
O7    O     O_R   0.644540 0.486520 0.369510 -0.654795
O8    O     O_R   0.644600 0.486540 0.615950 -0.589847
O9    O     O_R   0.355400 0.513460 0.384050 -0.608644
O10   O     O_3   0.022539 0.331060 0.440785 -0.504460
Zn1   Zn    Zn3+2 0.306940 0.517990 0.509710 1.054609
Zn2   Zn    Zn3+2 0.693060 0.482010 0.490290 1.074462

loop_
_geom_bond_atom_site_label_1
_geom_bond_atom_site_label_2
_ccdc_geom_bond_type
C8    C22   S    
C21   Cl2   S    
N2    Zn1   S    
C13   H2    S    
C3    C9    T    
C17   H10   S    
C11   O10   S    
C6    H16   S    
C2    H12   S    
N1    N2    D    
O1    Zn1   S    
C24   H1    S    
C18   O8    A    
C14   H5    S    
C6    C24   S    
N2    O2    S    
C5    H17   S    
C22   H14   S    
C15   H6    S    
C17   H11   S    
C13   C14   S    
C19   O9    A    
N1    O10   S    
C11   C13   S    
C14   H4    S    
C7    C23   S    
C6    C23   S    
C5    C7    S    
O6    Zn1   S    
C16   H9    S    
O5    Zn1   S    
C13   H20   S    
C1    O4    A    
C22   C24   S    
C11   H19   S    
C2    C5    S    
O9    Zn1   S    
C20   Cl1   S    
C18   O6    A    
C14   H3    S    
C4    C10   T    
C7    C24   S    
O8    Zn2   S    
C11   H18   S    
C12   O3    A    
C20   C21   D    
C3    C18   S    
C8    C10   S    
C17   H13   S    
C15   O2    S    
C19   O7    A    
C2    C23   S    
C7    C9    S    
C1    C20   S    
C6    C8    S    
O3    Zn2   S    
O4    Zn2   S    
C16   H8    S    
N1    Zn2   S    
O7    Zn2   S    
C4    C19   S    
C1    O1    A    
C12   C21   S    
C15   H7    S    
C15   C16   S    
C2    C8    S    
C5    C22   S    
C12   O5    A    
C16   C17   S    
C23   H15   S    
