data_mof_unit_66803.cif
_audit_creation_date              2012-12-11T14:23:15-0500
_audit_creation_method            fapswitch 2.2
_symmetry_space_group_name_H-M    P1
_symmetry_Int_Tables_number       1
_space_group_crystal_system       triclinic
_cell_length_a                    8.320853
_cell_length_b                    14.673246
_cell_length_c                    15.276539
_cell_angle_alpha                 95.4076
_cell_angle_beta                  98.139226
_cell_angle_gamma                 92.489703
_cell_volume                      1835.11365262

loop_
_atom_site_label
_atom_site_type_symbol
_atom_type_description
_atom_site_fract_x
_atom_site_fract_y
_atom_site_fract_z
_atom_type_partial_charge
Ba1   Ba    Ba6+2 0.142880 0.544780 0.454020 1.766145
Ba2   Ba    Ba6+2 0.667290 0.455210 0.545900 1.774770
C1    C     C_3   0.293988 0.735645 0.104870 0.324972
C2    C     C_R   0.828817 0.802728 0.496540 0.083556
C3    C     C_R   0.670592 0.772432 0.457727 -0.288925
C4    C     C_3   0.896148 0.788648 0.251235 0.297312
C5    C     C_R   0.568688 0.828246 0.408262 0.013489
C6    C     C_R   0.625396 0.916739 0.394623 0.331819
C7    C     C_R   0.767972 0.956831 0.446206 -0.033372
C8    C     C_R   0.878244 0.898884 0.490953 -0.058276
C9    C     C_R   0.945686 0.097453 0.497434 -0.036061
C10   C     C_R   0.061636 0.038405 0.535495 -0.008636
C11   C     C_R   0.981108 0.196686 0.505762 0.105442
C12   C     C_3   0.340588 0.723395 0.202876 0.249109
C13   C     C_R   0.124883 0.229967 0.561788 -0.179932
C14   C     C_R   0.245225 0.170582 0.590962 0.046468
C15   C     C_R   0.210840 0.076415 0.579590 -0.059638
C16   C     C_3   0.929378 0.883649 0.222681 -0.126722
C17   C     C_R   0.800137 0.054064 0.453687 0.040621
C18   C     C_R   0.233682 0.465457 0.770258 -0.258837
C19   C     C_R   0.142561 0.432184 0.831484 0.061772
C20   C     C_R   0.209119 0.438673 0.922632 -0.046185
C21   C     C_R   0.369157 0.479477 0.953536 0.055828
C22   C     C_R   0.458951 0.507959 0.886870 -0.073334
C23   C     C_3   0.522537 0.753837 0.707500 0.256485
C24   C     C_R   0.389409 0.504663 0.796980 0.068563
C25   C     C_R   0.592050 0.546086 0.083409 -0.009302
C26   C     C_R   0.657408 0.559607 0.174071 0.046883
C27   C     C_R   0.419034 0.480280 0.211672 0.012519
C28   C     C_3   0.837399 0.318971 0.269925 0.288072
C29   C     C_R   0.354841 0.465065 0.120407 -0.141093
C30   C     C_R   0.438235 0.497782 0.053248 0.042886
C31   C     C_R   0.568851 0.528162 0.237190 -0.302261
C32   C     C_3   0.728974 0.292060 0.180050 0.320125
C33   C     C_3   0.005310 0.667104 0.726244 0.204919
C34   C     C_3   0.529406 0.855150 0.753366 0.881540
C35   C     C_3   0.927424 0.697739 0.807958 0.322357
C36   C     C_3   0.370329 0.244143 0.279202 0.674235
C37   C     C_3   0.359700 0.172314 0.196631 0.273407
C38   C     C_3   0.962895 0.207852 0.757734 0.322929
C39   C     C_3   0.971624 0.117277 0.797855 -0.225464
C40   C     C_3   0.461454 0.263972 0.801735 0.362915
C41   C     C_3   0.440641 0.224589 0.888047 -0.210111
C42   C     C_R   0.029583 0.941463 0.529105 -0.020883
H1    H     H_    0.272920 0.659847 0.214684 0.019266
H2    H     H_    0.198990 0.786010 0.098671 0.147292
H3    H     H_    0.884558 0.197372 0.691950 0.052422
H4    H     H_    0.087991 0.230172 0.748981 -0.100607
H5    H     H_    0.847221 0.090874 0.804091 0.213364
H6    H     H_    0.342559 0.288082 0.773523 -0.148450
H7    H     H_    0.550974 0.323478 0.816201 0.076680
H8    H     H_    0.404090 0.278971 0.935238 0.063498
H9    H     H_    0.556621 0.197983 0.917732 0.206948
H10   H     H_    0.987574 0.779696 0.309352 0.070448
H11   H     H_    0.345045 0.167895 0.875487 0.145543
H12   H     H_    0.611689 0.325060 0.179640 -0.110589
H13   H     H_    0.625561 0.703921 0.466022 0.050290
H14   H     H_    0.301306 0.032568 0.605620 0.193441
H15   H     H_    0.152224 0.303250 0.574017 0.065770
H16   H     H_    0.124837 0.899186 0.551923 0.194975
H17   H     H_    0.707048 0.097390 0.431155 0.155526
H18   H     H_    0.667287 0.571079 0.038215 0.092077
H19   H     H_    0.132217 0.414567 0.967699 0.133506
H20   H     H_    0.242568 0.425069 0.103186 0.152818
H21   H     H_    0.772985 0.784712 0.271200 0.002181
H22   H     H_    0.581260 0.537030 0.903132 0.103976
H23   H     H_    0.135374 0.654734 0.745580 0.070524
H24   H     H_    0.620413 0.537387 0.306758 0.058621
H25   H     H_    0.180371 0.464666 0.701329 0.034592
H26   H     H_    0.050462 0.889081 0.200716 0.163683
H27   H     H_    0.836398 0.897687 0.166804 0.222715
H28   H     H_    0.965905 0.316755 0.261074 0.160723
H29   H     H_    0.707407 0.216477 0.172262 0.117188
H30   H     H_    0.737777 0.389730 0.969306 0.375519
H31   H     H_    0.942324 0.602536 0.692834 0.028378
H32   H     H_    0.882112 0.718378 0.014735 0.394532
H33   H     H_    0.403579 0.309792 0.465998 0.361538
H34   H     H_    0.958572 0.771354 0.823330 0.180647
H35   H     H_    0.244648 0.668479 0.070318 0.076702
H36   H     H_    0.279717 0.267854 0.058887 0.288816
H37   H     H_    0.452052 0.189609 0.155509 -0.094585
H38   H     H_    0.551888 0.681122 0.957003 0.343824
H39   H     H_    0.639586 0.740122 0.683201 -0.067070
H40   H     H_    0.934388 0.933309 0.881944 0.391902
H41   H     H_    0.811818 0.981400 0.652484 0.346940
H42   H     H_    0.104410 0.913524 0.717914 0.374781
H43   H     H_    0.926926 0.936451 0.279438 0.114366
H44   H     H_    0.028743 0.067171 0.754676 0.059063
H45   H     H_    0.795195 0.686620 0.794368 0.050752
H46   H     H_    0.045729 0.126663 0.864829 0.179573
H47   H     H_    0.614698 0.109881 0.296280 0.330919
H48   H     H_    0.809797 0.388718 0.296821 -0.045223
H49   H     H_    0.496412 0.274028 0.298059 -0.219449
H50   H     H_    0.382678 0.104119 0.215271 0.148321
H51   H     H_    0.472755 0.714010 0.219376 -0.008224
H52   H     H_    0.425847 0.746270 0.648633 0.041168
O1    O     O_2   0.113690 0.728200 0.532750 -0.449720
O2    O     O_2   0.796680 0.435771 0.817133 -0.443403
O3    O     O_3   0.895795 0.271181 0.814823 -0.556729
O4    O     O_3   0.871900 0.612110 0.540440 -0.514359
O5    O     O_3   0.421180 0.451020 0.394720 -0.504912
O6    O     O_2   0.662730 0.548230 0.717350 -0.484197
O7    O     O_3   0.486243 0.689997 0.765703 -0.605999
O8    O     O_2   0.582924 0.168503 0.583051 -0.417117
O9    O     O_3   0.520164 0.196489 0.745097 -0.536599
O10   O     O_3   0.325660 0.668890 0.372600 -0.513185
O11   O     O_2   0.233063 0.832932 0.418043 -0.456817
O12   O     O_3   0.259284 0.309854 0.261447 -0.593718
O13   O     O_3   0.996379 0.742204 0.674998 -0.584406
O14   O     O_3   0.291678 0.798562 0.255045 -0.556269
O15   O     O_2   0.147570 0.451710 0.282630 -0.423473
O16   O     O_3   0.905540 0.621350 0.329600 -0.529420
O17   O     O_2   0.995124 0.553751 0.178829 -0.422665
O18   O     O_2   0.965692 0.376126 0.107389 -0.287296
O19   O     O_2   0.842167 0.229295 0.031267 -0.178878
O20   O     O_3   0.677744 0.371513 0.016935 -0.588121
O21   O     O_2   0.897672 0.570914 0.924402 -0.346385
O22   O     O_2   0.170105 0.631132 0.910443 -0.301148
O23   O     O_3   0.907702 0.721455 0.180736 -0.580376
O24   O     O_3   0.980546 0.736726 0.989739 -0.486936
O25   O     O_2   0.149334 0.142693 0.347089 -0.269211
O26   O     O_2   0.432790 0.137104 0.414719 -0.325263
O27   O     O_3   0.290784 0.288203 0.441842 -0.584754
O28   O     O_2   0.031386 0.161303 0.172994 -0.199945
O29   O     O_2   0.166168 0.067877 0.067272 -0.205744
O30   O     O_3   0.166530 0.242388 0.053962 -0.446803
O31   O     O_2   0.437300 0.874082 0.034728 -0.088499
O32   O     O_2   0.618664 0.765861 0.103551 -0.349749
O33   O     O_3   0.449405 0.712731 0.952420 -0.403800
O34   O     O_2   0.696600 0.271740 0.467230 -0.473986
O35   O     O_2   0.702763 0.801472 0.902871 -0.285586
O36   O     O_2   0.635060 0.960382 0.911179 -0.155798
O37   O     O_3   0.864033 0.915608 0.824355 -0.544246
O38   O     O_2   0.466725 0.904000 0.585955 -0.372847
O39   O     O_2   0.555988 0.025250 0.707373 -0.277257
O40   O     O_3   0.769369 0.918044 0.656222 -0.556527
O41   O     O_2   0.280048 0.815718 0.844517 -0.192584
O42   O     O_2   0.344369 0.978050 0.834478 -0.238575
O43   O     O_3   0.196824 0.882386 0.696601 -0.559956
O44   O     O_2   0.541885 0.893855 0.220487 -0.247308
O45   O     O_3   0.938380 0.387880 0.459490 -0.486967
O46   O     O_2   0.373297 0.987856 0.304253 -0.245714
O47   O     O_3   0.661460 0.053513 0.273633 -0.513836
O48   O     O_3   0.484630 0.331100 0.627330 -0.509193
O49   O     O_3   0.805545 0.251787 0.325735 -0.638149
O50   O     O_3   0.389110 0.548970 0.605210 -0.499650
O51   O     O_3   0.904740 0.378630 0.670330 -0.520190
P1    P     P_3+3 0.947560 0.714050 0.560480 1.035206
P2    P     P_3+3 0.325150 0.423860 0.297970 1.045216
P3    P     P_3+3 0.864345 0.612983 0.213825 1.008833
P4    P     P_3+3 0.862730 0.285940 0.439440 1.070914
P5    P     P_3+3 0.935975 0.381426 0.785985 1.020872
P6    P     P_3+3 0.357152 0.784648 0.366202 1.079105
P7    P     P_3+3 0.480119 0.574130 0.719041 0.975182
P8    P     P_3+3 0.456019 0.214989 0.634569 1.092025
S1    S     S_3+6 0.811364 0.317466 0.082868 -0.046734
S2    S     S_3+6 0.997006 0.653646 0.908983 -0.087185
S3    S     S_3+6 0.309755 0.196338 0.371767 -0.072126
S4    S     S_3+6 0.173098 0.158854 0.122223 0.058516
S5    S     S_3+6 0.456134 0.775247 0.050232 0.053726
S6    S     S_3+6 0.683025 0.882410 0.851019 0.040528
S7    S     S_3+6 0.576187 0.928379 0.672680 -0.096336
S8    S     S_3+6 0.335472 0.883472 0.786041 0.031766
S9    S     S_3+6 0.545182 0.964616 0.297179 -0.066964

loop_
_geom_bond_atom_site_label_1
_geom_bond_atom_site_label_2
_ccdc_geom_bond_type
C16   H26   S    
C38   H3    S    
C26   P3    S    
O19   S1    D    
Ba2   O48   S    
C12   H51   S    
C1    H35   S    
C38   O3    S    
C5    C6    A    
O40   S7    S    
O30   S4    S    
C32   H12   S    
O39   S7    D    
C9    C17   A    
H32   O24   S    
C11   P4    S    
H36   O30   S    
C33   C35   S    
C17   H17   S    
C34   S6    S    
Ba1   O16   S    
O46   S9    D    
C36   C37   S    
C41   H8    S    
Ba2   O6    S    
C35   S2    S    
C13   C14   A    
C2    P1    S    
O28   S4    D    
C27   C31   A    
Ba2   P4    S    
C38   H4    S    
Ba1   Ba2   S    
C19   P5    S    
C39   H5    S    
O36   S6    D    
Ba1   O10   S    
C20   H19   S    
C41   H9    S    
C4    H21   S    
C14   C15   A    
O50   P7    S    
C10   C15   A    
C34   S8    S    
C21   C22   A    
Ba1   P2    S    
O42   S8    D    
C7    C8    A    
O6    P7    D    
C33   O13   S    
C22   H22   S    
C40   H7    S    
O23   P3    S    
C39   H46   S    
Ba2   O4    S    
O45   P4    S    
C19   C20   A    
C34   S7    S    
Ba1   O50   S    
C4    H10   S    
O15   P2    D    
Ba1   O4    S    
O18   S1    D    
C7    C17   A    
C12   H1    S    
H47   O47   S    
O26   S3    D    
C4    C16   S    
H40   O37   S    
C28   C32   S    
O21   S2    D    
C37   H37   S    
C28   H48   S    
C6    S9    S    
Ba1   O1    S    
C35   H45   S    
C3    C5    A    
C23   O7    S    
O2    P5    D    
H41   O40   S    
Ba2   O5    S    
Ba2   O51   S    
C8    C42   A    
O38   S7    D    
C37   H50   S    
H33   O27   S    
C25   H18   S    
O4    P1    S    
O7    P7    S    
C29   C30   A    
C5    P6    S    
C33   H23   S    
O10   P6    S    
H30   O20   S    
C14   P8    S    
C6    C7    A    
O11   P6    D    
H38   O33   S    
C36   S3    S    
O49   P4    S    
C1    C12   S    
H42   O43   S    
C40   H6    S    
C41   H11   S    
C38   C39   S    
O9    P8    S    
C26   C31   A    
O25   S3    D    
C11   C13   A    
O24   S2    S    
O1    P1    D    
O16   P3    S    
C18   H25   S    
C24   P7    S    
O13   P1    S    
Ba2   O50   S    
C40   C41   S    
C2    C8    A    
Ba1   O5    S    
C4    O23   S    
O34   P4    D    
O32   S5    D    
C28   O49   S    
O41   S8    D    
O3    P5    S    
C16   H27   S    
C12   O14   S    
C39   H44   S    
C37   S4    S    
C25   C30   A    
C13   H15   S    
C29   H20   S    
C33   H31   S    
C22   C24   A    
C2    C3    A    
Ba1   P1    S    
O37   S6    S    
C28   H28   S    
C9    C10   A    
O29   S4    D    
O27   S3    S    
C32   S1    S    
O44   S9    D    
C35   H34   S    
C15   H14   S    
C1    H2    S    
C16   H43   S    
C3    H13   S    
C21   C30   S    
O48   P8    S    
O43   S8    S    
O51   P5    S    
C27   C29   A    
O14   P6    S    
C23   C34   S    
Ba1   O15   S    
C9    C11   A    
C1    S5    S    
C18   C24   A    
C42   H16   S    
C36   H49   S    
O5    P2    S    
Ba2   O34   S    
O47   S9    S    
O8    P8    D    
C36   O12   S    
C40   O9    S    
O20   S1    S    
Ba1   O45   S    
C32   H29   S    
C27   P2    S    
O12   P2    S    
C18   C19   A    
C23   H52   S    
C10   C42   A    
C25   C26   A    
C23   H39   S    
Ba2   O45   S    
O35   S6    D    
C20   C21   A    
O22   S2    D    
O31   S5    D    
O33   S5    S    
O17   P3    D    
C31   H24   S    
