data_mof_unit_34266.cif
_audit_creation_date              2012-10-26T21:00:41-0400
_audit_creation_method            fapswitch 2.2
_symmetry_space_group_name_H-M    P1
_symmetry_Int_Tables_number       1
_space_group_crystal_system       triclinic
_cell_length_a                    10.824096
_cell_length_b                    9.525679
_cell_length_c                    10.766458
_cell_angle_alpha                 89.97568
_cell_angle_beta                  90.174241
_cell_angle_gamma                 89.918057
_cell_volume                      1110.08934983

loop_
_atom_site_label
_atom_site_type_symbol
_atom_type_description
_atom_site_fract_x
_atom_site_fract_y
_atom_site_fract_z
_atom_type_partial_charge
C1    C     C_R   0.262081 0.500032 0.499903 0.610372
C2    C     C_R   0.500496 0.499990 0.737343 0.583040
C3    C     C_R   0.723483 0.569783 0.130024 -0.107310
C4    C     C_R   0.723350 0.570008 0.871118 -0.117964
C5    C     C_R   0.831535 0.602709 0.065836 0.294091
C6    C     C_R   0.831452 0.602869 0.935860 0.291083
C7    C     C_R   0.613251 0.536243 0.934883 -0.077580
C8    C     C_R   0.613292 0.536213 0.065699 -0.074324
C9    C     C_R   0.503672 0.499935 0.128883 -0.016472
C10   C     C_R   0.503634 0.499868 0.871126 -0.016792
C11   C     C_R   0.395908 0.462209 0.064334 0.244741
C12   C     C_R   0.737911 0.499905 0.500131 0.520236
C13   C     C_R   0.395880 0.462209 0.935103 0.252025
C14   C     C_R   0.064036 0.372493 0.499282 -0.069603
C15   C     C_R   0.936287 0.372423 0.499444 -0.098981
C16   C     C_R   0.871745 0.499945 0.500163 0.029895
C17   C     C_R   0.128222 0.500096 0.499908 0.072030
C18   C     C_R   0.935910 0.627567 0.500805 -0.069683
C19   C     C_R   0.063675 0.627642 0.500643 -0.049530
C20   C     C_R   0.421280 0.074569 0.424718 0.030319
C21   C     C_R   0.578730 0.074227 0.575271 0.030634
C22   C     C_R   0.421277 0.925777 0.424726 0.028990
C23   C     C_R   0.578734 0.925431 0.575276 0.030005
C24   C     C_R   0.500541 0.500029 0.262656 0.582496
Cl1   Cl    Cl    0.259410 0.417639 0.145685 -0.457624
Cl2   Cl    Cl    0.259281 0.417872 0.853043 -0.434059
Cl3   Cl    Cl    0.966078 0.642124 0.150996 -0.473263
Cl4   Cl    Cl    0.965848 0.642582 0.851374 -0.472022
Cu1   Cu    Cu3+1 0.500000 0.640660 0.500000 0.993439
Cu2   Cu    Cu3+1 0.500000 0.359340 0.500000 1.011073
H1    H     H_    0.727239 0.569533 0.230423 0.148266
H2    H     H_    0.641804 0.869247 0.635623 0.122341
H3    H     H_    0.727004 0.569974 0.770729 0.140972
H4    H     H_    0.112238 0.272760 0.498654 0.145911
H5    H     H_    0.888371 0.272667 0.498962 0.137977
H6    H     H_    0.887696 0.727287 0.501432 0.143796
H7    H     H_    0.111590 0.727395 0.501122 0.145235
H8    H     H_    0.358217 0.130739 0.364366 0.146664
H9    H     H_    0.641807 0.130125 0.635603 0.121598
H10   H     H_    0.358198 0.869877 0.364397 0.138744
N1    N     N_R   0.500000 0.852070 0.500000 -0.233267
N2    N     N_R   0.500000 0.147940 0.500000 -0.233175
O1    O     O_R   0.319640 0.618740 0.499990 -0.500658
O2    O     O_R   0.680360 0.618740 0.500010 -0.526675
O3    O     O_R   0.319620 0.381170 0.499990 -0.489779
O4    O     O_R   0.680380 0.381170 0.500010 -0.520040
O5    O     O_R   0.500000 0.618810 0.319650 -0.498646
O6    O     O_R   0.500000 0.618810 0.680350 -0.495134
O7    O     O_R   0.499970 0.381240 0.319640 -0.482901
O8    O     O_R   0.500030 0.381240 0.680360 -0.480494

loop_
_geom_bond_atom_site_label_1
_geom_bond_atom_site_label_2
_ccdc_geom_bond_type
C2    O6    A    
C14   H4    S    
C7    C10   A    
C20   N2    A    
C9    C24   S    
Cu1   Cu2   S    
C20   H8    S    
Cu2   O3    S    
C1    C17   S    
C23   N1    A    
Cu2   O4    S    
C22   H10   S    
C23   H2    S    
Cu2   O8    S    
C7    C8    A    
C12   O2    A    
Cu1   O1    S    
C3    H1    S    
C9    C11   A    
C14   C17   A    
C1    O3    A    
Cu1   O5    S    
C4    C7    A    
C12   O4    A    
C17   C19   A    
Cu2   O7    S    
C20   C22   A    
C3    C8    A    
C21   C23   A    
Cu1   O2    S    
C5    C6    A    
C13   Cl2   S    
C22   N1    A    
C19   H7    S    
C15   C16   A    
C11   Cl1   S    
Cu1   O6    S    
C4    C6    A    
C21   N2    A    
C2    C10   S    
C11   C13   A    
C16   C18   A    
C18   C19   A    
C15   H5    S    
C24   O7    A    
C4    H3    S    
C14   C15   A    
Cu2   N2    S    
C2    O8    A    
Cu1   N1    S    
C5    Cl3   S    
C24   O5    A    
C18   H6    S    
C1    O1    A    
C6    Cl4   S    
C12   C16   S    
C8    C9    A    
C3    C5    A    
C10   C13   A    
C21   H9    S    
