data_mof_unit_62742.cif
_audit_creation_date              2012-12-10T18:24:07-0500
_audit_creation_method            fapswitch 2.2
_symmetry_space_group_name_H-M    P1
_symmetry_Int_Tables_number       1
_space_group_crystal_system       triclinic
_cell_length_a                    16.097809
_cell_length_b                    16.088358
_cell_length_c                    16.087499
_cell_angle_alpha                 95.822872
_cell_angle_beta                  84.434682
_cell_angle_gamma                 90.158562
_cell_volume                      4125.31706537

loop_
_atom_site_label
_atom_site_type_symbol
_atom_type_description
_atom_site_fract_x
_atom_site_fract_y
_atom_site_fract_z
_atom_type_partial_charge
Br1   Br    Br    0.964879 0.581730 0.625874 -0.519415
C1    C     C_R   0.510608 0.724284 0.510672 0.511949
C2    C     C_1   0.486856 0.186215 0.483381 -0.006151
C3    C     C_1   0.515112 0.483461 0.184780 -0.005308
C4    C     C_R   0.489348 0.275698 0.489272 0.504646
C5    C     C_2   0.524017 0.473473 0.017782 0.294214
C6    C     C_2   0.477206 0.526981 0.982161 0.292935
C7    C     C_1   0.481923 0.521137 0.890692 -0.011695
C8    C     C_1   0.519025 0.479155 0.109257 -0.013264
C9    C     C_1   0.485426 0.516709 0.815184 -0.001847
C10   C     C_R   0.510697 0.488243 0.274578 0.507565
C11   C     C_R   0.489345 0.511824 0.725409 0.509488
C12   C     C_1   0.111120 0.516657 0.522850 0.053540
C13   C     C_R   0.724269 0.488267 0.488196 0.511764
C14   C     C_R   0.275728 0.511747 0.511856 0.508831
C15   C     C_1   0.813564 0.483930 0.482852 0.011520
C16   C     C_2   0.979671 0.478467 0.467835 0.279632
C17   C     C_2   0.021093 0.518563 0.528789 0.173815
C18   C     C_3   0.982165 0.415807 0.328517 0.013880
C19   C     C_3   0.939249 0.330585 0.328427 -0.261216
C20   C     C_3   0.888878 0.313564 0.252972 -0.488463
C21   C     C_3   0.415501 0.018005 0.345736 0.007588
C22   C     C_3   0.327525 0.053473 0.372547 -0.263253
C23   C     C_1   0.888746 0.481230 0.476816 -0.014021
C24   C     C_3   0.297328 0.103982 0.305868 -0.472579
C25   C     C_3   0.600495 0.980783 0.642996 0.010968
C26   C     C_3   0.540024 0.954718 0.715338 -0.269214
C27   C     C_3   0.584616 0.903408 0.772504 -0.476563
C28   C     C_3   0.377248 0.636322 0.991988 0.010356
C29   C     C_3   0.425924 0.711988 0.962842 -0.268925
C30   C     C_3   0.372123 0.765917 0.916216 -0.474723
C31   C     C_3   0.622361 0.362612 0.008071 0.009154
C32   C     C_3   0.703080 0.405545 0.032245 -0.263271
C33   C     C_3   0.754916 0.348793 0.077875 -0.484471
C34   C     C_1   0.186302 0.514811 0.517819 0.030725
C35   C     C_1   0.514588 0.813642 0.515179 -0.002441
C36   C     C_2   0.520581 0.979926 0.526685 0.293484
C37   C     C_2   0.483456 0.019793 0.470073 0.292559
C38   C     C_1   0.485244 0.110946 0.477710 -0.013846
C39   C     C_1   0.517408 0.888838 0.519943 -0.011727
H1    H     H_    0.028770 0.413367 0.272654 0.158448
H2    H     H_    0.283706 0.001143 0.382738 0.178509
H3    H     H_    0.326796 0.094408 0.432468 0.170205
H4    H     H_    0.339289 0.157815 0.296173 0.162426
H5    H     H_    0.233369 0.128218 0.326676 0.158854
H6    H     H_    0.295760 0.064059 0.245513 0.145644
H7    H     H_    0.648491 0.021839 0.670567 0.164124
H8    H     H_    0.635714 0.926492 0.608178 0.127608
H9    H     H_    0.512400 0.011570 0.752768 0.177325
H10   H     H_    0.488359 0.917016 0.690463 0.167972
H11   H     H_    0.610763 0.845100 0.736715 0.158702
H12   H     H_    0.937600 0.466643 0.320515 0.125881
H13   H     H_    0.539653 0.886350 0.824708 0.146047
H14   H     H_    0.635863 0.940157 0.799535 0.152847
H15   H     H_    0.324162 0.660023 0.037431 0.161335
H16   H     H_    0.348274 0.600137 0.939678 0.130287
H17   H     H_    0.446723 0.750291 0.018388 0.175295
H18   H     H_    0.482262 0.691180 0.920605 0.165569
H19   H     H_    0.352635 0.729360 0.859084 0.167680
H20   H     H_    0.408507 0.820656 0.896924 0.145294
H21   H     H_    0.315795 0.788808 0.957476 0.151120
H22   H     H_    0.639925 0.306343 0.964012 0.162377
H23   H     H_    0.987343 0.280784 0.326367 0.175891
H24   H     H_    0.585741 0.338745 0.062890 0.121173
H25   H     H_    0.740545 0.421886 0.974510 0.185850
H26   H     H_    0.688461 0.464196 0.073631 0.166010
H27   H     H_    0.719371 0.333502 0.137019 0.145985
H28   H     H_    0.813209 0.381191 0.093606 0.151681
H29   H     H_    0.771816 0.290056 0.037359 0.152096
H30   H     H_    0.896736 0.328052 0.386702 0.170670
H31   H     H_    0.838863 0.361426 0.255304 0.148466
H32   H     H_    0.859450 0.251127 0.253948 0.153007
H33   H     H_    0.930103 0.314491 0.193558 0.149556
H34   H     H_    0.412357 0.973992 0.288285 0.158618
H35   H     H_    0.460256 0.067243 0.327006 0.122288
O1    O     O_3   0.500000 0.500000 0.500000 -0.440697
O2    O     O_R   0.689040 0.536050 0.444000 -0.540204
O3    O     O_R   0.315570 0.560650 0.560630 -0.531179
O4    O     O_R   0.679800 0.444450 0.536560 -0.528046
O5    O     O_R   0.315590 0.458850 0.458810 -0.529604
O6    O     O_3   0.026012 0.432341 0.400564 -0.579551
O7    O     O_3   0.443258 0.971821 0.408309 -0.592060
O8    O     O_3   0.558583 0.028034 0.589989 -0.589877
O9    O     O_3   0.427716 0.586245 0.034729 -0.592896
O10   O     O_3   0.574900 0.415412 0.965170 -0.588014
O11   O     O_R   0.458170 0.444480 0.314880 -0.536147
O12   O     O_R   0.445130 0.560630 0.690220 -0.545561
O13   O     O_R   0.559450 0.679320 0.457680 -0.528504
O14   O     O_R   0.537250 0.315570 0.537220 -0.524379
O15   O     O_R   0.458120 0.689530 0.559970 -0.537058
O16   O     O_R   0.445170 0.315580 0.445130 -0.546345
O17   O     O_R   0.559480 0.536070 0.314410 -0.535262
O18   O     O_R   0.537220 0.458810 0.680490 -0.519052
Zn1   Zn    Zn3+2 0.430930 0.430930 0.430910 0.948398
Zn2   Zn    Zn3+2 0.575680 0.561790 0.430230 0.953820
Zn3   Zn    Zn3+2 0.562480 0.430910 0.562480 0.968175
Zn4   Zn    Zn3+2 0.430910 0.576380 0.576380 0.952982

loop_
_geom_bond_atom_site_label_1
_geom_bond_atom_site_label_2
_ccdc_geom_bond_type
C25   O8    S    
C30   H21   S    
C18   C19   S    
C5    C8    S    
C32   H25   S    
C6    C7    S    
Br1   C17   S    
C28   C29   S    
C5    O10   S    
C12   C17   S    
C20   H31   S    
C21   O7    S    
C12   C34   T    
C36   C39   S    
O1    Zn2   S    
C37   C38   S    
C27   H11   S    
C14   O3    A    
C10   O11   A    
C29   H17   S    
C20   H33   S    
C22   H3    S    
C13   O2    A    
C30   H19   S    
C1    O15   A    
O11   Zn1   S    
O1    Zn1   S    
C18   H12   S    
C1    O13   A    
O15   Zn4   S    
C26   H10   S    
C25   H8    S    
C6    O9    S    
O13   Zn2   S    
C2    C38   T    
C15   C23   T    
C37   O7    S    
C19   H30   S    
C21   H35   S    
C10   O17   A    
C24   H4    S    
C14   C34   S    
C32   H26   S    
C16   C17   D    
C16   C23   S    
C20   H32   S    
C35   C39   T    
C31   H24   S    
C28   O9    S    
C33   H28   S    
C27   H14   S    
C28   H15   S    
O1    Zn4   S    
O2    Zn2   S    
O17   Zn2   S    
C30   H20   S    
C36   C37   D    
C14   O5    A    
O3    Zn4   S    
C32   C33   S    
C25   C26   S    
C13   O4    A    
C3    C10   S    
C22   H2    S    
C33   H29   S    
C4    O16   A    
C9    C11   S    
C25   H7    S    
O18   Zn3   S    
C13   C15   S    
C11   O18   A    
C21   H34   S    
O5    Zn1   S    
C24   H5    S    
C1    C35   S    
C11   O12   A    
C2    C4    S    
C33   H27   S    
C27   H13   S    
C5    C6    D    
C28   H16   S    
C31   C32   S    
O14   Zn3   S    
C31   H22   S    
O4    Zn3   S    
O1    Zn3   S    
O16   Zn1   S    
C29   C30   S    
C19   H23   S    
C31   O10   S    
C29   H18   S    
C16   O6    S    
C22   C24   S    
C26   H9    S    
C19   C20   S    
C7    C9    T    
C26   C27   S    
C21   C22   S    
C36   O8    S    
C3    C8    T    
C18   O6    S    
C24   H6    S    
C4    O14   A    
C18   H1    S    
O12   Zn4   S    
