data_mof_unit_31422.cif
_audit_creation_date              2012-12-10T17:35:35-0500
_audit_creation_method            fapswitch 2.2
_symmetry_space_group_name_H-M    P1
_symmetry_Int_Tables_number       1
_space_group_crystal_system       triclinic
_cell_length_a                    10.919191
_cell_length_b                    12.454273
_cell_length_c                    13.258591
_cell_angle_alpha                 117.128404
_cell_angle_beta                  72.657402
_cell_angle_gamma                 100.605397
_cell_volume                      1529.27582288

loop_
_atom_site_label
_atom_site_type_symbol
_atom_type_description
_atom_site_fract_x
_atom_site_fract_y
_atom_site_fract_z
_atom_type_partial_charge
C1    C     C_R   0.505247 0.856553 0.287084 0.790202
C2    C     C_3   0.123382 0.005537 0.504901 -0.016069
C3    C     C_3   0.062063 0.128409 0.596975 0.700089
C4    C     C_3   0.042125 0.905717 0.540597 -0.486152
C5    C     C_R   0.371556 0.282086 0.042854 -0.198509
C6    C     C_R   0.480673 0.226749 0.839641 -0.203460
C7    C     C_R   0.543258 0.821213 0.076418 -0.031191
C8    C     C_R   0.564682 0.741495 0.959282 -0.211797
C9    C     C_R   0.546578 0.617164 0.923472 0.011037
C10   C     C_R   0.497648 0.567857 0.007351 0.060086
C11   C     C_R   0.459640 0.652149 0.127085 0.043293
C12   C     C_R   0.741055 0.996868 0.496417 0.829087
C13   C     C_R   0.474964 0.440611 0.979085 0.036924
C14   C     C_R   0.395459 0.404384 0.066141 0.081649
C15   C     C_R   0.342912 0.490119 0.177435 -0.190335
C16   C     C_R   0.373687 0.611567 0.207212 -0.188729
C17   C     C_R   0.532039 0.347620 0.870506 0.355447
C18   C     C_R   0.413724 0.192887 0.930511 -0.051664
C19   C     C_R   0.500687 0.776780 0.162829 -0.153793
C20   C     C_R   0.680915 0.318482 0.295888 -0.218639
C21   C     C_R   0.325792 0.766081 0.656457 0.052864
C22   C     C_R   0.289799 0.673272 0.694607 0.328588
C23   C     C_R   0.488502 0.144300 0.714118 0.821504
C24   C     C_R   0.351875 0.566050 0.630715 -0.145493
C25   C     C_R   0.449033 0.546874 0.528390 -0.089661
C26   C     C_R   0.486378 0.643778 0.492692 0.159476
C27   C     C_R   0.513960 0.435531 0.462628 -0.072899
C28   C     C_R   0.603052 0.416746 0.355236 0.096396
C29   C     C_R   0.617688 0.497555 0.308185 0.313703
C30   C     C_R   0.580254 0.615322 0.382422 -0.160269
C31   C     C_R   0.495384 0.340198 0.497270 0.118081
C32   C     C_R   0.668999 0.236765 0.341553 0.130809
C33   C     C_R   0.260131 0.003455 0.504666 0.854676
C34   C     C_3   0.976915 0.994719 0.381581 -0.328897
C35   C     C_3   0.114758 0.976926 0.378985 -0.315355
C36   C     C_3   0.913863 0.115516 0.599746 0.093498
C37   C     C_3   0.907766 0.882807 0.516056 -0.028424
C38   C     C_3   0.880235 0.993859 0.496731 -0.067970
Cu1   Cu    Cu3+1 0.529690 0.098270 0.475420 1.002666
Cu2   Cu    Cu3+1 0.470310 0.901730 0.524580 0.973585
H1    H     H_    0.973021 0.084369 0.383443 0.142920
H2    H     H_    0.034154 0.933188 0.634688 0.243589
H3    H     H_    0.278522 0.463059 0.242856 0.153656
H4    H     H_    0.318667 0.255986 0.112535 0.161709
H5    H     H_    0.595461 0.777438 0.894149 0.171021
H6    H     H_    0.323765 0.673463 0.292791 0.173764
H7    H     H_    0.753106 0.306261 0.215383 0.205848
H8    H     H_    0.420609 0.339018 0.571219 0.147595
H9    H     H_    0.319756 0.497650 0.662829 0.179557
H10   H     H_    0.138930 0.880694 0.323053 0.158065
H11   H     H_    0.890033 0.192574 0.589092 0.095565
H12   H     H_    0.093448 0.820072 0.495166 0.177328
N1    N     N_R   0.574690 0.246280 0.438200 -0.211401
N2    N     N_R   0.426100 0.754320 0.561190 -0.233627
O1    O     O_R   0.537340 0.972510 0.318130 -0.572281
O2    O     O_R   0.487200 0.806530 0.359650 -0.601311
O3    O     O_R   0.707380 0.082980 0.479220 -0.597051
O4    O     O_R   0.657240 0.917000 0.520740 -0.580161
O5    O     O_R   0.512800 0.193470 0.640350 -0.570556
O6    O     O_R   0.462660 0.027490 0.681870 -0.562763
O7    O     O_R   0.342760 0.083000 0.479260 -0.551296
O8    O     O_R   0.292620 0.917020 0.520780 -0.614610
O9    O     O_3   0.836619 0.120019 0.707557 -0.710487
H13   H     H_    0.838793 0.205492 0.766094 0.346126
O10   O     O_3   0.077339 0.152129 0.707368 -0.699259
H14   H     H_    0.059999 0.238235 0.759964 0.355254
C39   C     C_1   0.400427 0.069557 0.915834 0.356278
N3    N     N_1   0.391356 0.971509 0.906321 -0.288336
O11   O     O_3   0.650569 0.371879 0.807250 -0.722343
H15   H     H_    0.686626 0.295864 0.743090 0.336386
C40   C     C_1   0.554693 0.947974 0.102315 0.338768
N4    N     N_1   0.562712 0.048864 0.120734 -0.257438
C41   C     C_1   0.566545 0.549152 0.799303 0.351963
N5    N     N_1   0.586300 0.496826 0.698985 -0.280574
C42   C     C_1   0.950535 0.906403 0.268653 0.353116
N6    N     N_1   0.936117 0.838515 0.177144 -0.204889
C43   C     C_1   0.750252 0.136834 0.278323 0.307209
N7    N     N_1   0.816262 0.056733 0.224492 -0.288918
O12   O     O_3   0.683775 0.463628 0.191929 -0.709137
H16   H     H_    0.653348 0.509559 0.160374 0.340836
C44   C     C_1   0.251035 0.871407 0.715049 0.305090
N8    N     N_1   0.189917 0.955385 0.763466 -0.263230
O13   O     O_3   0.193241 0.681801 0.792852 -0.704140
H17   H     H_    0.165553 0.765516 0.839259 0.337752
C45   C     C_1   0.660791 0.696524 0.340105 0.410791
N9    N     N_1   0.725856 0.755009 0.295943 -0.284323
C46   C     C_1   0.208244 0.047062 0.321726 0.294361
N10   N     N_1   0.280653 0.102055 0.276888 -0.255289
O14   O     O_3   0.126774 0.224509 0.569082 -0.750549
H18   H     H_    0.092125 0.228697 0.510037 0.299407
C47   C     C_1   0.812588 0.865709 0.614628 0.387925
N11   N     N_1   0.738286 0.852159 0.691570 -0.257998
C48   C     C_1   0.912738 0.764729 0.413046 0.191165
N12   N     N_1   0.923142 0.671084 0.333428 -0.245428

loop_
_geom_bond_atom_site_label_1
_geom_bond_atom_site_label_2
_ccdc_geom_bond_type
C2    C35   S    
C46   N10   T    
C17   O11   S    
C48   N12   T    
Cu2   O6    S    
C41   N5    T    
C44   N8    T    
C7    C8    A    
C43   N7    T    
C23   O5    A    
C11   C19   A    
C29   C30   A    
C4    H12   S    
C28   C29   A    
C1    O2    A    
C7    C40   S    
C21   N2    A    
C15   C16   A    
Cu1   O3    S    
Cu2   O8    S    
C34   C35   S    
C8    H5    S    
C32   C43   S    
C35   C46   S    
Cu1   O1    S    
C33   O8    A    
Cu2   O2    S    
C36   O9    S    
C9    C10   A    
C34   C42   S    
C12   O4    A    
C21   C22   A    
C12   C38   S    
C3    O10   S    
C34   H1    S    
C9    C41   S    
Cu1   O7    S    
C26   N2    A    
C23   O6    A    
C6    C18   A    
C1    C19   S    
Cu2   O4    S    
C37   C47   S    
C27   C31   A    
C39   N3    T    
C24   C25   A    
C16   H6    S    
C47   N11   T    
C8    C9    A    
C5    C18   A    
C20   C28   A    
C18   C39   S    
C45   N9    T    
O12   H16   S    
C2    C4    S    
C42   N6    T    
C37   C38   S    
C11   C16   A    
O13   H17   S    
C29   O12   S    
Cu1   O5    S    
C35   H10   S    
C37   C48   S    
C31   N1    A    
C30   C45   S    
C5    C14   A    
C36   H11   S    
C12   O3    A    
C2    C33   S    
C5    H4    S    
C21   C44   S    
C26   C30   A    
Cu2   N2    S    
C31   H8    S    
C22   C24   A    
C32   N1    A    
Cu1   Cu2   S    
C20   C32   A    
C24   H9    S    
C6    C17   A    
C34   C38   S    
C10   C13   A    
C25   C27   A    
C7    C19   A    
C13   C17   A    
C3    O14   S    
C22   O13   S    
C36   C38   S    
C2    C3    S    
C25   C26   A    
C15   H3    S    
C40   N4    T    
Cu1   N1    S    
C4    H2    S    
C3    C36   S    
C6    C23   S    
C1    O1    A    
O11   H15   S    
C20   H7    S    
C10   C11   A    
O9    H13   S    
C4    C37   S    
C33   O7    A    
O10   H14   S    
C27   C28   A    
C14   C15   A    
O14   H18   S    
C13   C14   A    
