data_mof_unit_37365.cif
_audit_creation_date              2013-03-05T15:56:01-0500
_audit_creation_method            fapswitch 2.2
_symmetry_space_group_name_H-M    P1
_symmetry_Int_Tables_number       1
_space_group_crystal_system       triclinic
_cell_length_a                    12.344265
_cell_length_b                    13.234401
_cell_length_c                    17.184296
_cell_angle_alpha                 105.275367
_cell_angle_beta                  74.307208
_cell_angle_gamma                 116.6741
_cell_volume                      2381.95149994

loop_
_atom_site_label
_atom_site_type_symbol
_atom_site_description
_atom_site_fract_x
_atom_site_fract_y
_atom_site_fract_z
_atom_type_partial_charge
O1    O     O_R   0.025490 0.682370 0.523640 -0.525114
O2    O     O_R   0.194150 0.640180 0.491890 -0.614783
C1    C     C_R   0.144574 0.713486 0.507320 0.776278
O3    O     O_R   0.905900 0.523560 0.631310 -0.570322
O4    O     O_R   0.074570 0.481370 0.599560 -0.601756
C2    C     C_R   0.987498 0.504125 0.652492 0.795062
Cu1   Cu    Cu3+1 0.900140 0.524980 0.518800 0.973492
Cu2   Cu    Cu3+1 0.099860 0.475020 0.481200 0.996690
O5    O     O_R   0.805850 0.359820 0.508110 -0.604013
O6    O     O_R   0.974510 0.317630 0.476360 -0.533745
O7    O     O_R   0.925430 0.518630 0.400440 -0.594449
O8    O     O_R   0.094100 0.476440 0.368690 -0.507775
C3    C     C_R   0.855931 0.286442 0.488777 0.802007
C4    C     C_R   0.013056 0.496381 0.347291 0.817746
C5    C     C_R   0.982717 0.509474 0.739110 -0.078578
C6    C     C_R   0.091777 0.542457 0.767735 -0.240105
C7    C     C_R   0.088712 0.546352 0.849907 0.359114
C8    C     C_R   0.974708 0.514372 0.903724 0.139358
C9    C     C_R   0.866330 0.485234 0.875802 -0.207357
C10   C     C_R   0.870152 0.482457 0.793654 -0.192511
C11   C     C_R   0.893868 0.426650 0.152716 -0.215575
C12   C     C_R   0.900021 0.446775 0.235171 -0.202638
C13   C     C_R   0.121624 0.500554 0.200144 0.238511
C14   C     C_R   0.114050 0.479146 0.117504 -0.155102
C15   C     C_R   0.000739 0.442382 0.093816 -0.033422
C16   C     C_2   0.966153 0.507226 0.988650 -0.252854
C17   C     C_2   0.996823 0.432229 0.007209 0.462467
C18   C     C_R   0.013281 0.483484 0.259919 -0.097260
H1    H     H_    0.179614 0.566417 0.726494 0.166931
H2    H     H_    0.815519 0.432069 0.279607 0.158845
H3    H     H_    0.778481 0.461418 0.917129 0.152680
H4    H     H_    0.806032 0.399418 0.134672 0.143033
H5    H     H_    0.785015 0.456281 0.772388 0.151340
H6    H     H_    0.931659 0.563136 0.036784 0.126375
H7    H     H_    0.197096 0.494119 0.071628 0.199337
C19   C     C_R   0.736041 0.973606 0.399337 -0.180405
H8    H     H_    0.916416 0.107493 0.403167 0.183248
H9    H     H_    0.561003 0.775587 0.348544 0.165707
H10   H     H_    0.771446 0.912795 0.359188 0.139931
C20   C     C_R   0.774572 0.164881 0.474182 -0.045132
C21   C     C_R   0.178315 0.915658 0.560610 -0.170748
C22   C     C_R   0.255144 0.030669 0.577302 -0.142310
C23   C     C_R   0.381387 0.067795 0.549680 -0.173357
C24   C     C_R   0.433616 0.990213 0.501549 0.084087
C25   C     C_R   0.353094 0.875177 0.477076 0.070250
C26   C     C_R   0.562926 0.022968 0.476424 0.080655
C27   C     C_R   0.608804 0.943254 0.423182 0.161193
C28   C     C_R   0.527377 0.835213 0.392472 -0.211440
C29   C     C_R   0.401576 0.802677 0.417384 -0.171602
C30   C     C_R   0.648465 0.132586 0.502765 -0.237324
C31   C     C_R   0.818705 0.084097 0.424761 -0.176310
C32   C     C_R   0.226051 0.836350 0.512418 -0.107595
H11   H     H_    0.619768 0.195839 0.544780 0.147552
H12   H     H_    0.081503 0.888458 0.587335 0.206647
H13   H     H_    0.434708 0.158145 0.566093 0.130358
H14   H     H_    0.217026 0.091124 0.614183 0.156134
H15   H     H_    0.343425 0.720728 0.387487 0.212802
C33   C     C_R   0.655701 0.693938 0.616414 0.074506
H16   H     H_    0.445863 0.722978 0.645412 0.203395
N1    N     N_R   0.749710 0.562810 0.547300 -0.232062
C34   C     C_R   0.248669 0.349122 0.390158 0.686261
C35   C     C_R   0.346999 0.314280 0.370213 -0.362548
C36   C     C_R   0.446033 0.371549 0.411497 -0.244357
C37   C     C_R   0.450421 0.464751 0.474598 0.040845
C38   C     C_R   0.348050 0.496264 0.495076 0.205718
C39   C     C_R   0.552526 0.527750 0.518037 -0.048079
C40   C     C_R   0.553273 0.625386 0.577348 0.046039
C41   C     C_R   0.451052 0.652634 0.597496 -0.181966
C42   C     C_R   0.350058 0.587761 0.559129 -0.180549
C43   C     C_R   0.655529 0.499633 0.504098 -0.094233
C44   C     C_R   0.749918 0.656651 0.604480 0.576615
N2    N     N_R   0.249640 0.437820 0.453210 -0.234702
H17   H     H_    0.663194 0.428107 0.459095 0.151032
H18   H     H_    0.518147 0.340862 0.392297 0.154609
H19   H     H_    0.348354 0.242016 0.323236 0.142996
H20   H     H_    0.275034 0.612735 0.582276 0.197754
O9    O     O_3   0.850286 0.721848 0.643368 -0.550462
C45   C     C_3   0.816759 0.706673 0.726349 0.098002
H21   H     H_    0.777499 0.614526 0.731838 0.138528
H22   H     H_    0.747104 0.741031 0.761131 0.179415
C46   C     C_3   0.930571 0.770955 0.766660 -0.748598
H23   H     H_    0.965681 0.864450 0.766915 0.246295
H24   H     H_    0.906947 0.755638 0.830848 0.205073
H25   H     H_    0.004128 0.741247 0.732545 0.241869
Br1   Br    Br    0.677013 0.845206 0.677368 -0.520258
O10   O     O_3   0.145265 0.291806 0.352282 -0.556667
C47   C     C_3   0.168872 0.236634 0.271064 0.032153
H26   H     H_    0.177163 0.156469 0.271273 0.138948
H27   H     H_    0.253424 0.294445 0.234986 0.175516
C48   C     C_3   0.060877 0.202436 0.228884 -0.758363
H28   H     H_    0.045264 0.278733 0.229597 0.257378
H29   H     H_    0.080616 0.162452 0.164243 0.199814
H30   H     H_    0.975917 0.139892 0.260570 0.232350
Br2   Br    Br    0.282969 0.557386 0.226183 -0.566636
O11   O     O_3   0.039717 0.360658 0.944294 -0.547799
C49   C     C_3   0.012652 0.256928 0.969020 0.079540
H31   H     H_    0.914882 0.218278 0.000018 0.138567
H32   H     H_    0.075060 0.271363 0.010677 0.152088
C50   C     C_3   0.032851 0.171874 0.893711 -0.738222
H33   H     H_    0.130049 0.206979 0.861834 0.254220
H34   H     H_    0.012314 0.089941 0.912264 0.194746
H35   H     H_    0.971125 0.154842 0.850921 0.260475
Br3   Br    Br    0.242519 0.599433 0.885954 -0.493495

loop_
_geom_bond_atom_site_label_1
_geom_bond_atom_site_label_2
_geom_bond_distance
_ccdc_geom_bond_type
C47   H26   1.111639 S    
C21   C22   1.385477 A    
C17   O11   1.395510 S    
O11   C49   1.412650 S    
C8    C16   1.459563 S    
C9    H3    1.083574 S    
C46   H23   1.111565 S    
Cu1   Cu2   2.703618 S    
O9    C45   1.414926 S    
C38   C42   1.401419 A    
Cu1   O7    1.957396 S    
C16   C17   1.341522 D    
C42   H20   1.063693 S    
O1    Cu1   1.955634 S    
O4    C2    1.300276 A    
H8    C31   1.082367 S    
O7    C4    1.304116 A    
C45   H22   1.110464 S    
C33   C44   1.403981 A    
C5    C6    1.400865 A    
C49   C50   1.521140 S    
C29   H15   1.078145 S    
C19   C27   1.402967 A    
C8    C9    1.398335 A    
O5    C3    1.301354 A    
C3    C20   1.460396 S    
C22   H14   1.082916 S    
C2    C5    1.457654 S    
C16   H6    1.087593 S    
C50   H33   1.110669 S    
C6    C7    1.390138 A    
C49   H32   1.111990 S    
C13   C14   1.393471 A    
C25   C29   1.412751 A    
C21   C32   1.402863 A    
H9    C28   1.084221 S    
C39   C40   1.417388 A    
C12   C18   1.405180 A    
C11   C12   1.387648 A    
O3    Cu1   1.959126 S    
C46   H24   1.110636 S    
C24   C26   1.423671 A    
C5    C10   1.401121 A    
C11   H4    1.083434 S    
Cu2   N2    2.025747 S    
C30   H11   1.075616 S    
C40   C41   1.395901 A    
C14   H7    1.083703 S    
C14   C15   1.396982 A    
O3    C2    1.301362 A    
O10   C47   1.414218 S    
C41   C42   1.382551 A    
N1    C44   1.365059 A    
C6    H1    1.082825 S    
O1    C1    1.305176 A    
C37   C39   1.441707 A    
C23   C24   1.418580 A    
C35   C36   1.387873 A    
H16   C41   1.081609 S    
C48   H29   1.110370 S    
C27   C28   1.390075 A    
N1    C43   1.367091 A    
Cu2   O8    1.959126 S    
C49   H31   1.115137 S    
C43   H17   1.076184 S    
C7    C8    1.407945 A    
C13   C18   1.415160 A    
C19   C31   1.391133 A    
C10   H5    1.082699 S    
C34   N2    1.369779 A    
C23   H13   1.076403 S    
C28   C29   1.384692 A    
C50   H34   1.110544 S    
O8    C4    1.301116 A    
C47   H27   1.114471 S    
C35   H19   1.080221 S    
C22   C23   1.389442 A    
C38   N2    1.388370 A    
C33   Br1   1.935314 S    
Cu1   N1    2.037721 S    
C44   O9    1.382174 S    
C46   H25   1.110790 S    
C24   C25   1.418730 A    
C48   H30   1.109362 S    
Cu1   O5    1.945789 S    
C11   C15   1.396537 A    
C26   C27   1.420672 A    
C12   H2    1.083608 S    
C45   H21   1.111861 S    
C19   H10   1.083892 S    
O2    Cu2   1.945788 S    
O6    C3    1.301356 A    
O4    Cu2   1.957396 S    
C1    C32   1.472248 S    
C36   H18   1.077668 S    
C15   C17   1.470739 S    
C20   C31   1.398322 A    
C26   C30   1.400602 A    
C25   C32   1.420561 A    
C13   Br2   1.921594 S    
C37   C38   1.431768 A    
C9    C10   1.390865 A    
O2    C1    1.302218 A    
C7    Br3   1.921316 S    
C45   C46   1.523244 S    
C48   H28   1.106261 S    
C39   C43   1.423249 A    
C20   C30   1.395301 A    
C34   C35   1.413375 A    
C21   H12   1.082899 S    
C34   O10   1.395815 S    
C36   C37   1.402578 A    
C33   C40   1.407413 A    
C50   H35   1.110697 S    
Cu2   O6    1.955635 S    
C47   C48   1.521706 S    
C4    C18   1.465121 S    
