data_mof_unit_55308.cif
_audit_creation_date              2012-12-10T18:59:16-0500
_audit_creation_method            fapswitch 2.2
_symmetry_space_group_name_H-M    P1
_symmetry_Int_Tables_number       1
_space_group_crystal_system       triclinic
_cell_length_a                    10.808073
_cell_length_b                    10.841401
_cell_length_c                    9.582894
_cell_angle_alpha                 89.521845
_cell_angle_beta                  87.951753
_cell_angle_gamma                 91.706649
_cell_volume                      1121.60732117

loop_
_atom_site_label
_atom_site_type_symbol
_atom_type_description
_atom_site_fract_x
_atom_site_fract_y
_atom_site_fract_z
_atom_type_partial_charge
C1    C     C_R   0.507602 0.262215 0.499194 0.819786
C2    C     C_R   0.056128 0.508614 0.629889 -0.070339
C3    C     C_R   0.128178 0.536590 0.507523 -0.159086
C4    C     C_R   0.066187 0.569401 0.386375 0.322416
C5    C     C_R   0.938857 0.545624 0.381357 -0.268977
C6    C     C_R   0.873300 0.488068 0.494129 -0.131508
C7    C     C_R   0.540059 0.062262 0.619328 0.077063
C8    C     C_R   0.530418 0.129336 0.495029 -0.142043
C9    C     C_R   0.550397 0.063985 0.367844 0.167326
C10   C     C_R   0.547063 0.934764 0.370278 -0.180652
C11   C     C_R   0.531146 0.869934 0.497166 -0.116290
C12   C     C_R   0.262993 0.514833 0.502232 0.887024
C13   C     C_R   0.544593 0.935424 0.620373 0.090516
C14   C     C_3   0.476526 0.923148 0.757814 -0.383105
C15   C     C_3   0.465779 0.061867 0.753329 -0.410614
C16   C     C_R   0.558761 0.593133 0.070145 0.288117
C17   C     C_R   0.428956 0.418129 0.079430 -0.006298
C18   C     C_R   0.425653 0.419910 0.931841 0.255639
C19   C     C_R   0.558366 0.593506 0.923441 0.270886
C20   C     C_3   0.690734 0.635132 0.911144 -0.483452
C21   C     C_3   0.692311 0.631445 0.069728 -0.495096
C22   C     C_R   0.507652 0.737388 0.499259 0.869126
C23   C     C_R   0.737759 0.491785 0.497896 0.796048
C24   C     C_R   0.089193 0.544465 0.765481 0.499888
C25   C     C_R   0.025302 0.488956 0.880867 -0.158536
C26   C     C_R   0.929262 0.402824 0.861299 -0.232610
C27   C     C_R   0.881342 0.390168 0.728851 -0.135529
C28   C     C_R   0.936695 0.457498 0.615346 0.039010
Cu1   Cu    Cu3+1 0.499990 0.499980 0.640670 1.017253
Cu2   Cu    Cu3+1 0.500010 0.500020 0.359330 1.016945
H1    H     H_    0.536546 0.890797 0.841630 0.202563
H2    H     H_    0.368904 0.086852 0.736349 0.236510
H3    H     H_    0.514286 0.110148 0.838353 0.235143
H4    H     H_    0.371514 0.352030 0.139393 0.161687
H5    H     H_    0.750365 0.566325 0.861035 0.236948
H6    H     H_    0.702293 0.729958 0.866745 0.212067
H7    H     H_    0.751027 0.557573 0.109703 0.212902
H8    H     H_    0.707295 0.723841 0.116711 0.218331
H9    H     H_    0.045270 0.516133 0.985552 0.205126
H10   H     H_    0.882617 0.357592 0.950452 0.180716
H11   H     H_    0.797749 0.334161 0.717488 0.164463
H12   H     H_    0.889964 0.577617 0.292194 0.187516
H13   H     H_    0.552045 0.885604 0.272373 0.186644
H14   H     H_    0.386037 0.873290 0.751960 0.271783
N1    N     N_R   0.500790 0.500930 0.147930 -0.192846
N2    N     N_R   0.500790 0.500890 0.852020 -0.197992
O1    O     O_R   0.500000 0.319640 0.618810 -0.573925
O2    O     O_R   0.500010 0.319680 0.381230 -0.563935
O3    O     O_R   0.319640 0.499980 0.618820 -0.533723
O4    O     O_R   0.319650 0.500020 0.381230 -0.558438
O5    O     O_R   0.499990 0.680320 0.618770 -0.559901
O6    O     O_R   0.500000 0.680360 0.381190 -0.563665
O7    O     O_R   0.680350 0.499980 0.618770 -0.602426
O8    O     O_R   0.680360 0.500020 0.381180 -0.591638
S1    S     S_3+6 0.139082 0.664129 0.254382 0.056227
O9    O     O_2   0.228961 0.753290 0.319012 -0.226061
O10   O     O_2   0.043720 0.735422 0.180124 -0.249626
O11   O     O_3   0.216490 0.577450 0.138632 -0.475938
H15   H     H_    0.185167 0.491802 0.156549 0.308412
I1    I     I_    0.285444 0.304931 0.851755 -0.372202
S2    S     S_3+6 0.172592 0.684871 0.792583 0.022718
O12   O     O_2   0.289057 0.660196 0.867092 -0.274928
O13   O     O_2   0.204123 0.750736 0.656744 -0.323077
O14   O     O_3   0.083759 0.776342 0.892089 -0.470738
H16   H     H_    0.137174 0.849912 0.910163 0.392033
I2    I     I_    0.586060 0.143081 0.165683 -0.403639

loop_
_geom_bond_atom_site_label_1
_geom_bond_atom_site_label_2
_ccdc_geom_bond_type
C16   N1    A    
S2    O14   S    
C12   O4    A    
C5    H12   S    
C1    O2    A    
C23   O7    A    
C24   S2    S    
C1    C8    S    
C11   C13   A    
C9    C10   A    
C27   H11   S    
C11   C22   S    
C19   C20   S    
Cu1   N2    S    
S1    O9    D    
O14   H16   S    
C20   C21   S    
C7    C15   S    
C12   O3    A    
Cu2   O4    S    
C19   N2    A    
C15   H2    S    
Cu1   O3    S    
C13   C14   S    
C25   H9    S    
C4    C5    A    
Cu2   O8    S    
C26   H10   S    
C26   C27   A    
C5    C6    A    
Cu1   O7    S    
Cu1   O1    S    
C16   C19   A    
C6    C23   S    
C18   N2    A    
C18   I1    S    
C25   C26   A    
C17   N1    A    
C17   C18   A    
C14   H14   S    
C2    C3    A    
S1    O10   D    
C4    S1    S    
C2    C24   A    
S2    O12   D    
C22   O5    A    
C7    C8    A    
C17   H4    S    
Cu1   O5    S    
Cu1   Cu2   S    
C3    C4    A    
C20   H6    S    
C7    C13   A    
C21   H7    S    
C24   C25   A    
C23   O8    A    
C22   O6    A    
C10   C11   A    
S1    O11   S    
Cu2   O2    S    
C27   C28   A    
S2    O13   D    
C14   H1    S    
Cu2   O6    S    
C14   C15   S    
C1    O1    A    
C2    C28   A    
C3    C12   S    
Cu2   N1    S    
O11   H15   S    
C9    I2    S    
C20   H5    S    
C16   C21   S    
C15   H3    S    
C6    C28   A    
C21   H8    S    
C10   H13   S    
C8    C9    A    
