data_mof_unit_44755.cif
_audit_creation_date              2012-12-10T16:50:02-0500
_audit_creation_method            fapswitch 2.2
_symmetry_space_group_name_H-M    P1
_symmetry_Int_Tables_number       1
_space_group_crystal_system       triclinic
_cell_length_a                    7.78548
_cell_length_b                    8.56653
_cell_length_c                    10.608665
_cell_angle_alpha                 91.083874
_cell_angle_beta                  85.631892
_cell_angle_gamma                 93.713216
_cell_volume                      703.934379844

loop_
_atom_site_label
_atom_site_type_symbol
_atom_type_description
_atom_site_fract_x
_atom_site_fract_y
_atom_site_fract_z
_atom_type_partial_charge
Br1   Br    Br    0.250798 0.082027 0.178187 -0.581977
C1    C     C_R   0.545768 0.794683 0.496741 0.926922
C2    C     C_R   0.454232 0.205311 0.503305 0.993690
C3    C     C_R   0.499063 0.503829 0.260665 0.891380
C4    C     C_R   0.396328 0.782452 0.878661 -0.236756
C5    C     C_R   0.338184 0.910081 0.949495 -0.173029
C6    C     C_R   0.331427 0.907640 0.081018 0.324148
C7    C     C_R   0.384253 0.777883 0.141855 -0.212205
C8    C     C_R   0.441663 0.646702 0.071353 0.038672
C9    C     C_R   0.447288 0.648843 0.939084 0.103500
C10   C     C_R   0.508210 0.517650 0.871281 -0.077730
C11   C     C_R   0.569891 0.391251 0.929959 -0.203392
C12   C     C_R   0.565591 0.389650 0.058749 -0.141096
C13   C     C_R   0.498655 0.513934 0.128449 -0.067194
C14   C     C_2   0.569778 0.958234 0.494816 -0.371362
C15   C     C_2   0.430186 0.041726 0.505253 -0.354209
C16   C     C_R   0.502687 0.505710 0.739221 0.853163
H1    H     H_    0.617021 0.291927 0.875923 0.155923
H2    H     H_    0.986662 0.618079 0.594652 0.195185
H3    H     H_    0.403145 0.790575 0.776798 0.158644
H4    H     H_    0.299424 0.011348 0.901887 0.166843
H5    H     H_    0.381338 0.782209 0.243821 0.174866
H6    H     H_    0.611529 0.289839 0.104578 0.177209
H7    H     H_    0.701586 0.009387 0.484850 0.192284
H8    H     H_    0.298372 0.990559 0.515109 0.191691
H9    H     H_    0.013365 0.381951 0.405326 0.219361
N1    N     N_2   0.950330 0.457950 0.466250 -0.166230
N2    N     N_2   0.049670 0.542050 0.533750 -0.170984
O1    O     O_R   0.389250 0.738570 0.508280 -0.626751
O2    O     O_R   0.678390 0.711630 0.486650 -0.621565
O3    O     O_R   0.355400 0.513470 0.694050 -0.615589
O4    O     O_R   0.644540 0.486530 0.672420 -0.626564
O5    O     O_R   0.321610 0.288370 0.513350 -0.612753
O6    O     O_R   0.610750 0.261430 0.491720 -0.615133
O7    O     O_R   0.355460 0.513470 0.327580 -0.610467
O8    O     O_R   0.644600 0.486530 0.305950 -0.609861
Zn1   Zn    Zn3+2 0.306930 0.517990 0.514440 0.964592
Zn2   Zn    Zn3+2 0.693070 0.482010 0.485560 0.966775

loop_
_geom_bond_atom_site_label_1
_geom_bond_atom_site_label_2
_ccdc_geom_bond_type
C7    H5    S    
C10   C11   A    
C3    O8    A    
C5    C6    A    
H2    N2    S    
O4    Zn2   S    
C8    C9    A    
C1    O2    A    
C8    C13   A    
O8    Zn2   S    
C3    O7    A    
C6    C7    A    
C4    H3    S    
Br1   C6    S    
C12   C13   A    
C1    C14   S    
O2    Zn2   S    
H9    N1    S    
N2    Zn1   S    
C1    O1    A    
C14   H7    S    
O7    Zn1   S    
C3    C13   S    
C4    C5    A    
C16   O3    A    
C9    C10   A    
C2    O5    A    
N1    Zn2   S    
O1    Zn1   S    
C14   C15   D    
C4    C9    A    
C11   C12   A    
C12   H6    S    
C11   H1    S    
C15   H8    S    
C16   O4    A    
C10   C16   S    
C2    O6    A    
O6    Zn2   S    
C5    H4    S    
O5    Zn1   S    
C2    C15   S    
O3    Zn1   S    
C7    C8    A    
N1    N2    D    
