data_mof_unit_41112.cif
_audit_creation_date              2012-12-11T16:05:00-0500
_audit_creation_method            fapswitch 2.2
_symmetry_space_group_name_H-M    P1
_symmetry_Int_Tables_number       1
_space_group_crystal_system       triclinic
_cell_length_a                    10.654658
_cell_length_b                    10.569843
_cell_length_c                    16.94654
_cell_angle_alpha                 98.681449
_cell_angle_beta                  98.794783
_cell_angle_gamma                 61.88748
_cell_volume                      1656.71036373

loop_
_atom_site_label
_atom_site_type_symbol
_atom_type_description
_atom_site_fract_x
_atom_site_fract_y
_atom_site_fract_z
_atom_type_partial_charge
C1    C     C_R   0.354300 0.776399 0.399107 0.565583
C2    C     C_3   0.693286 0.370851 0.231817 -0.188359
C3    C     C_3   0.777046 0.372275 0.313452 0.065833
C4    C     C_3   0.902369 0.229941 0.288344 0.388134
C5    C     C_3   0.970479 0.312480 0.259240 -0.125236
C6    C     C_3   0.843203 0.456725 0.284556 -0.151975
C7    C     C_3   0.759466 0.455576 0.202073 -0.138303
C8    C     C_3   0.886307 0.312010 0.177517 0.007027
C9    C     C_3   0.391817 0.708627 0.200622 -0.160577
C10   C     C_3   0.264612 0.762257 0.250912 -0.090944
C11   C     C_3   0.344977 0.815405 0.319779 0.068903
C12   C     C_R   0.370684 0.346639 0.358779 0.531177
C13   C     C_3   0.473276 0.760762 0.270541 -0.134844
C14   C     C_3   0.405538 0.911044 0.238940 -0.136613
C15   C     C_3   0.278391 0.964282 0.290066 -0.101998
C16   C     C_3   0.197230 0.912064 0.220695 -0.063120
C17   C     C_3   0.324881 0.857218 0.170755 0.041543
C18   C     C_3   0.459270 0.270459 0.777392 -0.118038
C19   C     C_3   0.390304 0.410627 0.735438 -0.114011
C20   C     C_3   0.338035 0.333712 0.663623 0.054615
C21   C     C_3   0.406994 0.194388 0.704952 -0.109420
C22   C     C_3   0.264585 0.246181 0.741092 -0.105890
C23   C     C_R   0.717397 0.409728 0.389724 0.566691
C24   C     C_3   0.195807 0.386476 0.698610 -0.117127
C25   C     C_3   0.247913 0.462279 0.772004 -0.120170
C26   C     C_3   0.317742 0.322333 0.812855 0.051655
C27   C     C_1   0.768460 0.367464 0.715525 -0.046193
C28   C     C_1   0.813181 0.329818 0.782151 -0.050738
C29   C     C_1   0.338538 0.812069 0.709847 -0.050612
C30   C     C_1   0.313058 0.839110 0.778462 -0.047033
C31   C     C_R   0.948341 0.288563 0.103168 0.552940
C32   C     C_R   0.319139 0.299685 0.120259 0.535160
C33   C     C_R   0.294494 0.891564 0.088794 0.539943
C34   C     C_R   0.356811 0.771643 0.627278 0.543968
C35   C     C_R   0.878577 0.302276 0.862072 0.552960
C36   C     C_R   0.307959 0.294581 0.891910 0.543806
C37   C     C_R   0.279835 0.884610 0.858936 0.545914
C38   C     C_R   0.367572 0.345422 0.585444 0.540827
C39   C     C_R   0.718181 0.410454 0.635746 0.551437
C40   C     C_1   0.343920 0.336310 0.275065 -0.064791
C41   C     C_1   0.331924 0.326452 0.203895 -0.062456
C42   C     C_3   0.820642 0.226243 0.205632 -0.094211
Cr1   Cr    Cr6+3 0.608340 0.611040 0.520430 1.019207
Cr2   Cr    Cr6+3 0.287650 0.601120 0.489350 1.038630
Cr3   Cr    Cr6+3 0.604040 0.287870 0.490280 1.064526
Cr4   Cr    Cr6+3 0.054020 0.052700 0.970850 1.021843
Cr5   Cr    Cr6+3 0.059230 0.375120 0.993390 1.026794
Cr6   Cr    Cr6+3 0.374950 0.061200 0.992340 1.023010
H1    H     H_    0.579593 0.393601 0.223409 0.109875
H2    H     H_    0.464093 0.971243 0.231460 0.144181
H3    H     H_    0.235445 0.066240 0.329517 0.156447
H4    H     H_    0.083344 0.971849 0.198082 0.157093
H5    H     H_    0.442302 0.478677 0.731083 0.101218
H6    H     H_    0.566608 0.225126 0.811269 0.128660
H7    H     H_    0.470264 0.084775 0.675872 0.134543
H8    H     H_    0.212319 0.178437 0.745643 0.122213
H9    H     H_    0.088942 0.431845 0.664259 0.146519
H10   H     H_    0.184772 0.571419 0.801613 0.134076
H11   H     H_    0.813542 0.130778 0.172121 0.130843
H12   H     H_    0.084691 0.288069 0.268424 0.096181
H13   H     H_    0.852025 0.551812 0.317405 0.140762
H14   H     H_    0.701859 0.548074 0.164858 0.148190
H15   H     H_    0.205317 0.701724 0.256396 0.143257
H16   H     H_    0.435067 0.607398 0.160621 0.108430
H17   H     H_    0.585877 0.702743 0.295378 0.130159
O1    O     O_R   0.751220 0.499230 0.435170 -0.517741
O2    O     O_R   0.297880 0.469080 0.560050 -0.499494
O3    O     O_R   0.489720 0.254590 0.564810 -0.523759
O4    O     O_R   0.725220 0.304230 0.585080 -0.475456
O5    O     O_3   0.500010 0.500010 0.500020 -0.306329
O6    O     O_R   0.171830 0.913880 0.057510 -0.533076
O7    O     O_R   0.940690 0.186050 0.054730 -0.507057
O8    O     O_R   0.920470 0.405720 0.075010 -0.510375
O9    O     O_R   0.196690 0.370460 0.084120 -0.510403
O10   O     O_R   0.412990 0.180750 0.091610 -0.511718
O11   O     O_R   0.366620 0.943130 0.065760 -0.503036
O12   O     O_R   0.477220 0.727600 0.436870 -0.528800
O13   O     O_R   0.160510 0.906330 0.879210 -0.508255
O14   O     O_R   0.930190 0.179050 0.889450 -0.489555
O15   O     O_R   0.909140 0.398170 0.896710 -0.502717
O16   O     O_R   0.186190 0.363460 0.918830 -0.500091
O17   O     O_R   0.401670 0.173200 0.913310 -0.513040
O18   O     O_R   0.356120 0.936130 0.900470 -0.493437
O19   O     O_3   0.162740 0.163010 0.985530 -0.271245
O20   O     O_R   0.258650 0.745120 0.411470 -0.488891
O21   O     O_R   0.297070 0.467240 0.395960 -0.501908
O22   O     O_R   0.488830 0.252610 0.387790 -0.513018
O23   O     O_R   0.724400 0.302390 0.420980 -0.432078
O24   O     O_R   0.752100 0.501210 0.612190 -0.498426
O25   O     O_R   0.478040 0.729440 0.600970 -0.513056
O26   O     O_R   0.259530 0.747110 0.588490 -0.494894
F1    F     F_    0.971039 0.116280 0.335877 -0.634254

loop_
_geom_bond_atom_site_label_1
_geom_bond_atom_site_label_2
_ccdc_geom_bond_type
C18   C21   S    
C1    O12   A    
Cr6   O11   S    
C3    C23   S    
C19   C20   S    
C1    C11   S    
C3    C6    S    
C32   O10   A    
C7    C8    S    
C13   H17   S    
Cr1   O24   S    
C6    H13   S    
Cr3   O22   S    
C8    C42   S    
C32   O9    A    
C5    C6    S    
C31   O8    A    
C15   C16   S    
C9    H16   S    
C35   O15   A    
C18   C19   S    
C9    C13   S    
C34   O26   A    
C11   C15   S    
C10   H15   S    
C2    C7    S    
C28   C35   S    
C36   O17   A    
C24   H9    S    
C18   C26   S    
C32   C41   S    
Cr2   O5    S    
C15   H3    S    
C9    C10   S    
Cr4   O7    S    
C5    H12   S    
C19   H5    S    
C21   C22   S    
Cr6   O10   S    
C17   C33   S    
Cr5   O15   S    
Cr2   O21   S    
C1    O20   A    
Cr1   O25   S    
C14   H2    S    
Cr3   O4    S    
C20   C24   S    
Cr3   O23   S    
C24   C25   S    
Cr5   O8    S    
C27   C39   S    
Cr4   O13   S    
C18   H6    S    
C16   C17   S    
C22   H8    S    
C25   C26   S    
C29   C34   S    
Cr6   O19   S    
C30   C37   S    
C12   C40   S    
C34   O25   A    
C7    H14   S    
C29   C30   T    
C2    H1    S    
C20   C38   S    
C33   O11   A    
C36   O16   A    
Cr3   O3    S    
C39   O4    A    
Cr5   O19   S    
C20   C21   S    
Cr4   O6    S    
Cr2   O26   S    
Cr4   O19   S    
C9    C17   S    
C31   O7    A    
C38   O3    A    
Cr1   O5    S    
C23   O23   A    
C22   C24   S    
C25   H10   S    
C3    C4    S    
C23   O1    A    
C21   H7    S    
C26   C36   S    
C40   C41   T    
C12   O22   A    
Cr3   O5    S    
C8    C31   S    
C16   H4    S    
Cr5   O9    S    
C4    C5    S    
C42   H11   S    
C5    C8    S    
C6    C7    S    
Cr1   O12   S    
C37   O13   A    
Cr6   O18   S    
C12   O21   A    
C2    C3    S    
C10   C16   S    
C11   C13   S    
Cr4   O14   S    
C4    C42   S    
C2    C42   S    
Cr1   O1    S    
C35   O14   A    
Cr6   O17   S    
Cr5   O16   S    
C19   C25   S    
C10   C11   S    
C33   O6    A    
C38   O2    A    
C22   C26   S    
C27   C28   T    
C14   C15   S    
C37   O18   A    
Cr2   O2    S    
C13   C14   S    
C39   O24   A    
Cr2   O20   S    
C4    F1    S    
C14   C17   S    
