data_mof_unit_66436.cif
_audit_creation_date              2012-12-10T21:20:46-0500
_audit_creation_method            fapswitch 2.2
_symmetry_space_group_name_H-M    P1
_symmetry_Int_Tables_number       1
_space_group_crystal_system       triclinic
_cell_length_a                    17.39826
_cell_length_b                    16.930019
_cell_length_c                    19.169239
_cell_angle_alpha                 89.863329
_cell_angle_beta                  92.507013
_cell_angle_gamma                 89.961686
_cell_volume                      5640.932405

loop_
_atom_site_label
_atom_site_type_symbol
_atom_type_description
_atom_site_fract_x
_atom_site_fract_y
_atom_site_fract_z
_atom_type_partial_charge
C1    C     C_R   0.352879 0.500206 0.502172 0.951619
C2    C     C_R   0.543145 0.165716 0.550043 0.488480
C3    C     C_R   0.546324 0.833702 0.547973 0.491026
C4    C     C_R   0.465851 0.166171 0.444541 0.504780
C5    C     C_R   0.457073 0.750242 0.450081 0.110154
C6    C     C_R   0.541625 0.249716 0.550847 0.098990
C7    C     C_R   0.544161 0.749683 0.549199 0.115589
C8    C     C_R   0.459491 0.250030 0.448259 0.096951
C9    C     C_R   0.502967 0.876599 0.498269 -0.205502
C10   C     C_R   0.505302 0.123404 0.496837 -0.206931
C11   C     C_1   0.504499 0.963769 0.497352 0.224905
C12   C     C_R   0.647347 0.500030 0.502138 0.942924
C13   C     C_1   0.505353 0.036203 0.496819 0.224269
C14   C     C_R   0.499164 0.500069 0.365980 0.922798
C15   C     C_R   0.501642 0.499990 0.634038 0.920392
C16   C     C_R   0.431835 0.488397 0.250574 -0.024089
C17   C     C_R   0.436194 0.511647 0.744390 -0.016134
C18   C     C_R   0.576558 0.489630 0.746271 -0.029916
C19   C     C_R   0.571856 0.510856 0.259428 -0.012623
C20   C     C_R   0.435008 0.488521 0.177946 0.580341
C21   C     C_R   0.439194 0.510322 0.817080 0.570761
C22   C     C_R   0.577627 0.488834 0.819196 0.576054
C23   C     C_R   0.730945 0.500511 0.516065 -0.361344
C24   C     C_R   0.573195 0.511904 0.186756 0.571913
C25   C     C_R   0.505246 0.500324 0.145974 -0.259190
C26   C     C_R   0.509372 0.498850 0.854069 -0.255581
C27   C     C_R   0.500765 0.499999 0.290978 -0.238631
C28   C     C_R   0.504974 0.500261 0.709205 -0.237719
C29   C     C_R   0.510684 0.496667 0.929618 0.407955
C30   C     C_R   0.507841 0.498489 0.069941 0.390536
C31   C     C_R   0.849962 0.574660 0.533434 0.041732
C32   C     C_R   0.151662 0.429409 0.531996 0.041213
C33   C     C_R   0.160848 0.570040 0.562303 0.037817
C34   C     C_R   0.270738 0.501082 0.516514 -0.361373
C35   C     C_R   0.846046 0.433335 0.562276 0.045387
C36   C     C_R   0.771890 0.571930 0.513158 0.492493
C37   C     C_R   0.228046 0.430859 0.512615 0.501449
C38   C     C_R   0.236868 0.570463 0.541624 0.495963
C39   C     C_R   0.768639 0.431387 0.539897 0.494787
C40   C     C_3   0.355077 0.471620 0.282932 -0.340503
C41   C     C_3   0.298933 0.540628 0.274208 -0.766515
C42   C     C_3   0.358790 0.522837 0.705836 -0.330925
C43   C     C_3   0.319723 0.443447 0.691773 -0.801057
C44   C     C_3   0.651480 0.474849 0.710035 -0.335099
C45   C     C_R   0.886937 0.504793 0.557206 -0.075060
C46   C     C_3   0.708058 0.543400 0.718790 -0.785287
C47   C     C_3   0.647464 0.517327 0.301889 -0.338714
C48   C     C_3   0.669030 0.603281 0.316060 -0.721796
C49   C     C_3   0.892993 0.652401 0.529373 -0.327217
C50   C     C_3   0.907421 0.687668 0.601995 -0.825286
C51   C     C_3   0.107094 0.352461 0.527053 -0.327691
C52   C     C_3   0.100291 0.315375 0.599192 -0.828064
C53   C     C_3   0.126406 0.644964 0.591184 -0.333758
C54   C     C_3   0.119619 0.639155 0.670158 -0.808446
C55   C     C_3   0.884049 0.358835 0.591565 -0.334526
C56   C     C_R   0.118058 0.499564 0.556079 -0.077648
C57   C     C_3   0.897945 0.364694 0.670571 -0.822905
C58   C     C_3   0.407931 0.711545 0.392978 -0.272254
C59   C     C_3   0.445393 0.718445 0.322353 -0.787934
C60   C     C_3   0.587332 0.288204 0.610078 -0.227790
C61   C     C_3   0.545034 0.283065 0.678307 -0.808368
C62   C     C_3   0.591242 0.710420 0.607508 -0.261695
C63   C     C_3   0.550820 0.716734 0.676683 -0.790521
C64   C     C_3   0.407377 0.289852 0.393303 -0.302984
C65   C     C_3   0.326572 0.253683 0.385994 -0.678405
C66   C     C_1   0.968728 0.503522 0.565210 0.008652
C67   C     C_1   0.037176 0.501730 0.564798 0.011507
C68   C     C_R   0.457676 0.834326 0.449757 0.490644
F1    F     F_    0.369154 0.476877 0.138475 -0.633995
F2    F     F_    0.583271 0.125068 0.600967 -0.630211
F3    F     F_    0.590973 0.873787 0.595923 -0.629788
F4    F     F_    0.432857 0.125663 0.389987 -0.633376
F5    F     F_    0.373610 0.520912 0.852059 -0.636459
F6    F     F_    0.644555 0.474450 0.856373 -0.638682
F7    F     F_    0.641577 0.521159 0.155961 -0.633508
F8    F     F_    0.735965 0.639243 0.490594 -0.670866
F9    F     F_    0.261074 0.363084 0.491149 -0.684339
F10   F     F_    0.278525 0.638133 0.548707 -0.662026
F11   F     F_    0.729979 0.361927 0.542724 -0.688794
F12   F     F_    0.413585 0.875114 0.401656 -0.631879
H1    H     H_    0.241949 0.522615 0.292763 0.241630
H2    H     H_    0.364800 0.554945 0.655891 0.223196
H3    H     H_    0.762542 0.527935 0.693915 0.237875
H4    H     H_    0.684286 0.597061 0.692799 0.236414
H5    H     H_    0.721406 0.556277 0.774715 0.309827
H6    H     H_    0.678992 0.420299 0.731711 0.239541
H7    H     H_    0.641962 0.464776 0.653361 0.179848
H8    H     H_    0.626871 0.631293 0.350004 0.271089
H9    H     H_    0.726640 0.605869 0.343263 0.262129
H10   H     H_    0.671065 0.636826 0.266310 0.274435
H11   H     H_    0.645152 0.485038 0.352170 0.187855
H12   H     H_    0.319532 0.591338 0.306176 0.230974
H13   H     H_    0.694438 0.488621 0.273708 0.252588
H14   H     H_    0.851792 0.699746 0.626265 0.276108
H15   H     H_    0.941885 0.646729 0.636167 0.260516
H16   H     H_    0.939488 0.744037 0.597804 0.253388
H17   H     H_    0.948240 0.643639 0.503603 0.184980
H18   H     H_    0.860369 0.696339 0.496724 0.262182
H19   H     H_    0.158397 0.301477 0.622353 0.278682
H20   H     H_    0.070685 0.356052 0.634581 0.262298
H21   H     H_    0.066644 0.259793 0.594534 0.250942
H22   H     H_    0.049257 0.362691 0.501973 0.184811
H23   H     H_    0.291541 0.559257 0.218800 0.307438
H24   H     H_    0.135488 0.309061 0.493239 0.255156
H25   H     H_    0.081191 0.589718 0.683925 0.256851
H26   H     H_    0.177303 0.629641 0.696007 0.273800
H27   H     H_    0.095167 0.694938 0.689997 0.252870
H28   H     H_    0.161887 0.697585 0.579887 0.261690
H29   H     H_    0.069136 0.656429 0.565624 0.196233
H30   H     H_    0.937085 0.414559 0.684353 0.258484
H31   H     H_    0.842483 0.373526 0.696123 0.273272
H32   H     H_    0.924815 0.309187 0.690731 0.256951
H33   H     H_    0.848280 0.305673 0.580441 0.264438
H34   H     H_    0.328999 0.418061 0.258252 0.243634
H35   H     H_    0.939027 0.348150 0.566256 0.199109
H36   H     H_    0.447928 0.781031 0.305318 0.300442
H37   H     H_    0.504726 0.694445 0.325546 0.260228
H38   H     H_    0.411518 0.685200 0.281884 0.240765
H39   H     H_    0.395450 0.649677 0.404219 0.238731
H40   H     H_    0.350535 0.740518 0.389172 0.228039
H41   H     H_    0.486137 0.308013 0.671795 0.267289
H42   H     H_    0.540412 0.220718 0.695624 0.298994
H43   H     H_    0.577310 0.316240 0.719885 0.241049
H44   H     H_    0.644011 0.258303 0.617658 0.250814
H45   H     H_    0.361526 0.458576 0.339437 0.171746
H46   H     H_    0.601990 0.349272 0.598166 0.257491
H47   H     H_    0.548894 0.779140 0.694139 0.295977
H48   H     H_    0.490959 0.694189 0.671143 0.271487
H49   H     H_    0.582376 0.681894 0.717788 0.239436
H50   H     H_    0.604530 0.648787 0.596234 0.242513
H51   H     H_    0.648578 0.739195 0.613383 0.232486
H52   H     H_    0.306372 0.234562 0.437540 0.291822
H53   H     H_    0.285487 0.298050 0.363284 0.236900
H54   H     H_    0.325452 0.202575 0.349912 0.291201
H55   H     H_    0.397994 0.351248 0.406661 0.258977
H56   H     H_    0.353761 0.407456 0.655864 0.266019
H57   H     H_    0.434704 0.288101 0.342011 0.204364
H58   H     H_    0.313598 0.410501 0.741395 0.286693
H59   H     H_    0.261476 0.453257 0.667346 0.241696
H60   H     H_    0.320431 0.560177 0.736875 0.254831
N1    N     N_R   0.562880 0.538776 0.036743 -0.078900
N2    N     N_R   0.456077 0.455876 0.962606 -0.091249
N3    N     N_R   0.564387 0.537822 0.967592 -0.097891
N4    N     N_R   0.454886 0.456560 0.031677 -0.075392
N5    N     N_R   0.500000 0.707230 0.500000 -0.153581
N6    N     N_R   0.500000 0.292770 0.500000 -0.159765
O1    O     O_R   0.389110 0.566570 0.500000 -0.579021
O2    O     O_R   0.610890 0.433430 0.500000 -0.578183
O3    O     O_R   0.610890 0.566570 0.500000 -0.578386
O4    O     O_R   0.389110 0.433430 0.500000 -0.578805
O5    O     O_R   0.499990 0.566560 0.398140 -0.624250
O6    O     O_R   0.500010 0.433440 0.601860 -0.636740
O7    O     O_R   0.500010 0.566560 0.601860 -0.626435
O8    O     O_R   0.499990 0.433440 0.398140 -0.651295
Zn1   Zn    Zn3+2 0.500000 0.588860 0.500000 0.964635
Zn2   Zn    Zn3+2 0.500000 0.411140 0.500000 0.955355

loop_
_geom_bond_atom_site_label_1
_geom_bond_atom_site_label_2
_ccdc_geom_bond_type
C68   F12   S    
C21   C26   A    
C34   C37   A    
C62   H50   S    
C3    F3    S    
C42   H2    S    
C4    C8    A    
C32   C51   S    
C53   C54   S    
C51   H22   S    
C12   C23   S    
C30   N1    A    
C55   H35   S    
C54   H27   S    
C3    C7    A    
N1    N3    A    
C6    N6    A    
C19   C47   S    
C50   H15   S    
C57   H32   S    
C20   C25   A    
C29   N2    A    
C29   N3    A    
C21   F5    S    
C30   N4    A    
C43   H58   S    
C61   H41   S    
C60   H44   S    
C17   C42   S    
C36   F8    S    
C49   H18   S    
C40   H34   S    
O6    Zn2   S    
C59   H36   S    
C14   O5    A    
C48   H8    S    
C43   H59   S    
O5    Zn1   S    
C14   C27   S    
O7    Zn1   S    
C44   H7    S    
C19   C27   A    
O8    Zn2   S    
C65   H54   S    
C46   H5    S    
C33   C56   A    
C66   C67   T    
C64   H55   S    
C59   H37   S    
C48   H10   S    
C14   O8    A    
C2    C6    A    
C31   C49   S    
C5    C68   A    
C44   H6    S    
C62   H51   S    
C15   O6    A    
C44   C46   S    
C1    C34   S    
C64   H57   S    
C33   C53   S    
C52   H21   S    
C5    N5    A    
C54   H26   S    
C35   C55   S    
C51   C52   S    
C6    C60   S    
C18   C28   A    
C24   C25   A    
C50   H14   S    
C55   H33   S    
C58   C59   S    
C42   H60   S    
C52   H20   S    
C17   C21   A    
C41   H23   S    
C61   H42   S    
C39   F11   S    
C35   C39   A    
C7    C62   S    
C62   C63   S    
C3    C9    A    
C18   C44   S    
C47   C48   S    
C16   C20   A    
C41   H1    S    
C58   H40   S    
C47   H13   S    
C1    O4    A    
C24   F7    S    
C32   C37   A    
C9    C11   S    
C8    C64   S    
C46   H4    S    
C5    C58   S    
C40   C41   S    
C16   C40   S    
C23   C36   A    
C59   H38   S    
C48   H9    S    
C55   C57   S    
C22   C26   A    
N2    N4    A    
C20   F1    S    
C1    O1    A    
C42   C43   S    
C22   F6    S    
C4    C10   A    
C35   C45   A    
C4    F4    S    
C65   H52   S    
O1    Zn1   S    
C53   H29   S    
C25   C30   S    
C54   H25   S    
C34   C38   A    
C17   C28   A    
C47   H11   S    
C12   O3    A    
C8    N6    A    
C63   H48   S    
C10   C13   S    
C57   H30   S    
C56   C67   S    
C38   F10   S    
C52   H19   S    
C33   C38   A    
C61   H43   S    
C64   C65   S    
C12   O2    A    
C18   C22   A    
C19   C24   A    
C51   H24   S    
C9    C68   A    
C11   C13   T    
C53   H28   S    
C50   H16   S    
C15   C28   S    
C57   H31   S    
C37   F9    S    
C16   C27   A    
C23   C39   A    
C40   H45   S    
C60   H46   S    
C58   H39   S    
C63   H49   S    
O3    Zn1   S    
C43   H56   S    
C63   H47   S    
C15   O7    A    
C49   H17   S    
C46   H3    S    
N5    Zn1   S    
C41   H12   S    
N6    Zn2   S    
C26   C29   S    
C49   C50   S    
C31   C45   A    
C45   C66   S    
C31   C36   A    
C60   C61   S    
O4    Zn2   S    
O2    Zn2   S    
C2    F2    S    
C32   C56   A    
C65   H53   S    
C7    N5    A    
C2    C10   A    
