data_mof_unit_55831.cif
_audit_creation_date              2012-12-10T17:09:53-0500
_audit_creation_method            fapswitch 2.2
_symmetry_space_group_name_H-M    P1
_symmetry_Int_Tables_number       1
_space_group_crystal_system       triclinic
_cell_length_a                    10.842383
_cell_length_b                    13.02392
_cell_length_c                    11.657554
_cell_angle_alpha                 99.425621
_cell_angle_beta                  94.366566
_cell_angle_gamma                 89.269459
_cell_volume                      1619.22837794

loop_
_atom_site_label
_atom_site_type_symbol
_atom_type_description
_atom_site_fract_x
_atom_site_fract_y
_atom_site_fract_z
_atom_type_partial_charge
C1    C     C_R   0.497229 0.299390 0.479101 0.833816
C2    C     C_R   0.075137 0.430458 0.578450 0.098410
C3    C     C_R   0.129556 0.481928 0.497234 -0.099503
C4    C     C_R   0.056118 0.526841 0.415251 -0.161955
C5    C     C_R   0.929172 0.526686 0.416573 -0.184955
C6    C     C_R   0.872578 0.485527 0.502842 -0.086362
C7    C     C_R   0.491289 0.814155 0.533042 -0.140017
C8    C     C_R   0.484132 0.187206 0.468569 -0.101016
C9    C     C_R   0.384718 0.028484 0.372557 -0.131314
C10   C     C_R   0.402414 0.134694 0.380844 -0.236755
C11   C     C_R   0.546296 0.133712 0.550485 0.236826
C12   C     C_R   0.262669 0.493949 0.499182 0.806596
C13   C     C_R   0.514306 0.030020 0.553694 0.032061
C14   C     C_R   0.442762 0.973891 0.456615 0.043767
C15   C     C_R   0.431367 0.864956 0.446041 -0.049552
C16   C     C_R   0.546689 0.872033 0.635058 -0.256969
C17   C     C_R   0.554031 0.979797 0.648878 -0.014259
C18   C     C_R   0.394069 0.395664 0.020720 -0.302810
C19   C     C_R   0.402514 0.406614 0.143177 0.108278
C20   C     C_R   0.544200 0.545964 0.157710 0.066171
C21   C     C_R   0.538380 0.537986 0.034686 0.056222
C22   C     C_R   0.462433 0.461613 0.965412 0.058822
C23   C     C_R   0.496710 0.700726 0.520842 0.853976
C24   C     C_R   0.456793 0.453479 0.842439 0.086989
C25   C     C_R   0.597488 0.593407 0.856801 0.098817
C26   C     C_R   0.606543 0.604007 0.979268 -0.283670
C27   C     C_R   0.737988 0.493846 0.500409 0.814772
C28   C     C_R   0.146619 0.370178 0.649541 -0.226948
C29   C     C_R   0.095421 0.330755 0.738907 -0.168325
C30   C     C_R   0.971052 0.346542 0.756128 0.348003
C31   C     C_R   0.895893 0.396084 0.679135 -0.175565
C32   C     C_R   0.945722 0.437914 0.587293 0.047645
Cu1   Cu    Cu3+1 0.509250 0.507730 0.615930 0.970713
Cu2   Cu    Cu3+1 0.490750 0.492270 0.384070 0.981456
H1    H     H_    0.097302 0.564729 0.351340 0.194053
H2    H     H_    0.353133 0.175765 0.317737 0.164083
H3    H     H_    0.399071 0.394656 0.788624 0.122622
H4    H     H_    0.650084 0.644864 0.815059 0.135240
H5    H     H_    0.334623 0.336076 0.969834 0.153793
H6    H     H_    0.666095 0.663544 0.030086 0.158126
H7    H     H_    0.349625 0.355329 0.184888 0.128830
H8    H     H_    0.603059 0.604027 0.211818 0.131627
H9    H     H_    0.242130 0.351244 0.635807 0.157811
H10   H     H_    0.152807 0.287947 0.794881 0.163849
H11   H     H_    0.799628 0.399438 0.694522 0.217902
H12   H     H_    0.875020 0.563210 0.352296 0.163617
H13   H     H_    0.583194 0.832881 0.705627 0.187117
H14   H     H_    0.323357 0.990525 0.301172 0.178345
N1    N     N_R   0.523180 0.519350 0.790130 -0.191233
N2    N     N_R   0.476820 0.480650 0.209890 -0.188593
O1    O     O_R   0.506570 0.354460 0.582000 -0.567701
O2    O     O_R   0.490940 0.341410 0.386200 -0.593047
O3    O     O_R   0.327470 0.506530 0.597920 -0.590501
O4    O     O_R   0.311840 0.493480 0.402120 -0.577279
O5    O     O_R   0.509060 0.658590 0.613800 -0.591052
O6    O     O_R   0.493430 0.645540 0.418000 -0.573714
O7    O     O_R   0.688160 0.506520 0.597880 -0.600259
O8    O     O_R   0.672530 0.493470 0.402080 -0.580908
C33   C     C_2   0.588434 0.037248 0.767792 0.933994
O9    O     O_2   0.666375 0.001658 0.831989 -0.560806
O10   O     O_R   0.528164 0.130422 0.807907 -0.747388
H15   H     H_    0.558994 0.162089 0.890233 0.353802
Br1   Br    Br    0.698522 0.191664 0.629575 -0.473587
Br2   Br    Br    0.903026 0.298117 0.884217 -0.451343
C34   C     C_2   0.357878 0.804479 0.345123 0.844418
O11   O     O_2   0.269638 0.752634 0.361662 -0.597709
O12   O     O_R   0.391451 0.805359 0.231839 -0.763953
H16   H     H_    0.335681 0.759924 0.170797 0.336476

loop_
_geom_bond_atom_site_label_1
_geom_bond_atom_site_label_2
_ccdc_geom_bond_type
Cu1   O5    S    
C20   H8    S    
C9    C14   A    
Cu2   O6    S    
C29   C30   A    
C30   Br2   S    
C25   H4    S    
Cu1   O1    S    
C1    C8    S    
C2    C28   A    
C9    C10   A    
C28   H9    S    
C6    C32   A    
C31   C32   A    
C1    O1    A    
C13   C17   A    
C18   H5    S    
C21   C22   A    
C7    C15   A    
C2    C3    A    
C4    H1    S    
C23   O6    A    
C13   C14   A    
C23   O5    A    
C4    C5    A    
C11   C13   A    
C19   N2    A    
C26   H6    S    
O10   H15   S    
C12   O3    A    
C17   C33   S    
C8    C11   A    
C7    C23   S    
C5    C6    A    
C16   H13   S    
C31   H11   S    
C28   C29   A    
C21   C26   A    
Cu1   Cu2   S    
Cu2   O4    S    
C11   Br1   S    
C34   O11   D    
C29   H10   S    
Cu1   O3    S    
C30   C31   A    
C1    O2    A    
C22   C24   A    
Cu2   N2    S    
C33   O10   S    
Cu1   N1    S    
O12   H16   S    
C15   C34   S    
C19   H7    S    
C33   O9    D    
C20   C21   A    
C9    H14   S    
C2    C32   A    
C18   C19   A    
C27   O7    A    
C24   N1    A    
Cu2   O8    S    
C24   H3    S    
C14   C15   A    
C7    C16   A    
Cu1   O7    S    
C3    C12   S    
C34   O12   S    
C25   C26   A    
C18   C22   A    
C5    H12   S    
Cu2   O2    S    
C27   O8    A    
C8    C10   A    
C12   O4    A    
C3    C4    A    
C6    C27   S    
C16   C17   A    
C20   N2    A    
C10   H2    S    
C25   N1    A    
