data_mof_unit_20077.cif
_audit_creation_date              2012-12-11T14:57:58-0500
_audit_creation_method            fapswitch 2.2
_symmetry_space_group_name_H-M    P1
_symmetry_Int_Tables_number       1
_space_group_crystal_system       triclinic
_cell_length_a                    6.945268
_cell_length_b                    16.910867
_cell_length_c                    16.935257
_cell_angle_alpha                 100.532397
_cell_angle_beta                  90.281261
_cell_angle_gamma                 90.088174
_cell_volume                      1955.51272443

loop_
_atom_site_label
_atom_site_type_symbol
_atom_type_description
_atom_site_fract_x
_atom_site_fract_y
_atom_site_fract_z
_atom_type_partial_charge
O1    O     O_R   0.506180 0.438940 0.579430 -0.537456
O2    O     O_R   0.170520 0.406230 0.413590 -0.532728
O3    O     O_R   0.005180 0.561060 0.420570 -0.525017
C1    C     C_R   0.337985 0.384971 0.383094 0.771661
O4    O     O_R   0.176140 0.429310 0.578370 -0.495948
O5    O     O_R   0.010830 0.584300 0.586530 -0.517442
C2    C     C_R   0.345273 0.413485 0.604760 0.855619
O6    O     O_R   0.500520 0.415700 0.413470 -0.539632
O7    O     O_3   0.340830 0.550820 0.502480 -0.371239
V1    V     V_3+5 0.064040 0.490570 0.499540 1.665142
O8    O     O_R   0.681400 0.593770 0.586410 -0.570085
C3    C     C_R   0.848860 0.612710 0.618652 0.673478
O9    O     O_R   0.675790 0.570690 0.421630 -0.525802
C4    C     C_R   0.843638 0.586803 0.395163 0.785388
V2    V     V_3+5 0.564650 0.509430 0.500460 1.593329
O10   O     O_3   0.837730 0.449180 0.497520 -0.355792
C5    C     C_R   0.920821 0.862135 0.168056 -0.290459
C6    C     C_R   0.845777 0.638054 0.332209 -0.277089
C7    C     C_R   0.697745 0.673439 0.212134 -0.038457
C8    C     C_R   0.714018 0.621996 0.267896 0.564431
C9    C     C_R   0.967774 0.705536 0.337897 0.588133
C10   C     C_R   0.952115 0.757790 0.281568 -0.136445
C11   C     C_R   0.814159 0.742259 0.218627 -0.146254
C12   C     C_R   0.797415 0.795029 0.162759 0.592094
C13   C     C_R   0.056692 0.876622 0.231009 0.566081
C14   C     C_R   0.071213 0.825644 0.287185 -0.142126
H1    H     H_    0.593660 0.659050 0.163759 0.247079
H2    H     H_    0.177475 0.839243 0.334805 0.208481
C15   C     C_R   0.954457 0.903830 0.719301 0.544660
C16   C     C_R   0.962246 0.915230 0.639846 0.690489
C17   C     C_R   0.936798 0.850731 0.577072 -0.266435
C18   C     C_R   0.903719 0.774058 0.592934 -0.217071
C19   C     C_R   0.894243 0.759978 0.672739 -0.002560
C20   C     C_R   0.918621 0.826197 0.737560 -0.159498
C21   C     C_R   0.855508 0.681653 0.688038 -0.072097
C22   C     C_R   0.836880 0.670044 0.769508 0.020483
C23   C     C_R   0.899233 0.732757 0.832707 -0.011339
C24   C     C_R   0.913930 0.812703 0.817978 -0.071400
C25   C     C_R   0.763238 0.598190 0.791841 -0.145041
C26   C     C_R   0.771609 0.587669 0.871869 -0.145112
C27   C     C_R   0.865382 0.642797 0.929446 0.673185
C28   C     C_R   0.940285 0.713094 0.909604 -0.192661
H3    H     H_    0.943046 0.860056 0.515550 0.209074
H4    H     H_    0.883420 0.726209 0.541689 0.171390
H5    H     H_    0.712088 0.534083 0.889256 0.217298
C29   C     C_R   0.319685 0.216973 0.405677 0.439204
C30   C     C_R   0.337925 0.138628 0.419659 0.538491
C31   C     C_R   0.396401 0.077377 0.358756 -0.261667
C32   C     C_R   0.428273 0.092476 0.281898 0.578788
C33   C     C_R   0.399915 0.170593 0.264099 -0.150895
C34   C     C_R   0.355071 0.235414 0.328259 -0.172257
C35   C     C_R   0.419038 0.185037 0.184589 -0.035788
C36   C     C_R   0.409142 0.264714 0.170088 -0.015534
C37   C     C_R   0.355923 0.329662 0.232593 -0.104647
C38   C     C_R   0.343275 0.315805 0.313526 -0.047480
C39   C     C_R   0.451429 0.280541 0.092951 -0.401653
C40   C     C_R   0.436794 0.357516 0.076151 0.606813
C41   C     C_R   0.366267 0.419601 0.133633 0.690421
C42   C     C_R   0.315986 0.405982 0.210506 -0.253860
H6    H     H_    0.416221 0.017272 0.371037 0.222015
H7    H     H_    0.499311 0.233623 0.044852 0.144486
C43   C     C_R   0.416459 0.138589 0.833555 -0.341578
C44   C     C_R   0.351929 0.364535 0.669660 -0.131069
C45   C     C_R   0.221017 0.334908 0.794633 0.674981
C46   C     C_R   0.239208 0.387192 0.739574 -0.128743
C47   C     C_R   0.465174 0.293721 0.661405 -0.003354
C48   C     C_R   0.447553 0.241035 0.718045 -0.197330
C49   C     C_R   0.315450 0.259720 0.782967 -0.031601
C50   C     C_R   0.291669 0.205281 0.837929 -0.125399
C51   C     C_R   0.548155 0.122166 0.770487 0.646897
C52   C     C_R   0.561670 0.170904 0.712971 0.628602
O11   O     O_R   0.265840 0.084300 0.086750 -0.547711
O12   O     O_R   0.589750 0.070740 0.921690 -0.512433
O13   O     O_R   0.755020 0.915730 0.913400 -0.529664
C53   C     C_R   0.420831 0.086780 0.895644 0.755857
O14   O     O_R   0.595830 0.093740 0.086480 -0.542766
O15   O     O_R   0.761150 0.938890 0.079360 -0.501546
C54   C     C_R   0.427714 0.116491 0.115169 0.778192
O16   O     O_R   0.259710 0.061140 0.920790 -0.539825
O17   O     O_3   0.425260 0.949200 0.997610 -0.342223
V3    V     V_3+5 0.702060 0.009430 0.000450 1.684786
O18   O     O_R   0.090530 0.929220 0.078150 -0.523611
C55   C     C_R   0.922765 0.913524 0.105098 0.790909
O19   O     O_R   0.084440 0.906220 0.913360 -0.517956
C56   C     C_R   0.916453 0.881758 0.886592 0.801492
V4    V     V_3+5 0.201450 0.990520 0.999290 1.684549
O20   O     O_3   0.928380 0.050800 0.002390 -0.389660
F1    F     F_    0.667664 0.779247 0.101523 -0.651954
C57   C     C_2   0.656775 0.536012 0.737116 0.407965
H8    H     H_    0.543093 0.553331 0.700136 0.095556
O21   O     O_2   0.689549 0.464944 0.736076 -0.521130
C58   C     C_2   0.093025 0.753311 0.963519 0.470273
H9    H     H_    0.077790 0.760171 0.028051 0.085303
O22   O     O_2   0.245442 0.771829 0.936124 -0.499850
F2    F     F_    0.334362 0.492051 0.112099 -0.557129
F3    F     F_    0.259041 0.273046 0.468136 -0.684165
F4    F     F_    0.299923 0.122023 0.493446 -0.587575
F5    F     F_    0.493945 0.030293 0.226379 -0.634822
F6    F     F_    0.175564 0.941119 0.238579 -0.642144
F7    F     F_    0.480285 0.370874 0.001667 -0.600530
C59   C     C_2   0.189988 0.466451 0.259068 0.576874
H10   H     H_    0.068554 0.446734 0.290333 -0.018075
O23   O     O_2   0.214359 0.538354 0.261498 -0.449597
C60   C     C_2   0.137292 0.215937 0.899316 0.736104
H11   H     H_    0.170577 0.212311 0.961208 -0.052555
O24   O     O_2   0.970057 0.224914 0.880165 -0.479105
F8    F     F_    0.663120 0.056437 0.763204 -0.589021
F9    F     F_    0.122667 0.361664 0.863541 -0.640916
F10   F     F_    0.693438 0.149219 0.654095 -0.589402
C61   C     C_2   0.145468 0.467375 0.760894 0.447366
H12   H     H_    0.040291 0.477481 0.808538 0.155162
O25   O     O_2   0.188872 0.523878 0.728894 -0.568837
C62   C     C_2   0.601351 0.275176 0.593463 0.604039
H13   H     H_    0.578215 0.222948 0.546890 0.119248
O26   O     O_2   0.745844 0.315954 0.591632 -0.486093
F11   F     F_    0.603080 0.554947 0.258156 -0.642014
F12   F     F_    0.097099 0.721529 0.399257 -0.685501
F13   F     F_    0.892809 0.625127 0.003803 -0.625527
F14   F     F_    0.989196 0.969143 0.777218 -0.617311
F15   F     F_    0.996857 0.989581 0.623596 -0.543174

loop_
_geom_bond_atom_site_label_1
_geom_bond_atom_site_label_2
_ccdc_geom_bond_type
C44   C46   A    
C59   H10   S    
C47   C62   S    
C6    C9    A    
C27   C28   A    
C4    C6    S    
O2    C1    A    
C21   C22   A    
C1    O6    A    
C60   O24   D    
C36   C37   A    
C15   F14   S    
C23   C24   A    
C17   H3    S    
C45   C49   A    
C22   C23   A    
O19   V4    S    
C51   F8    S    
O5    C3    A    
C16   C17   A    
C36   C39   A    
O15   C55   A    
V2    O10   S    
C52   F10   S    
C39   C40   A    
C43   C51   A    
C23   C28   A    
C61   H12   S    
C9    F12   S    
C32   F5    S    
C29   C30   A    
O8    V2    S    
C13   F6    S    
C17   C18   A    
C49   C50   A    
C33   C35   A    
C11   C12   A    
C45   F9    S    
C51   C52   A    
O1    V2    S    
C27   F13   S    
C57   O21   D    
C7    H1    S    
O7    V1    S    
C48   C52   A    
C47   C48   A    
C44   C47   A    
C59   O23   D    
C20   C24   A    
C9    C10   A    
O12   C53   A    
C35   C54   S    
O12   V3    S    
C60   H11   S    
C31   H6    S    
C37   C42   A    
C10   C11   A    
C26   H5    S    
C5    C12   A    
C24   C56   S    
C48   C49   A    
C42   C59   S    
O19   C56   A    
C25   C26   A    
O4    C2    A    
V4    O20   S    
C34   C38   A    
C33   C34   A    
C13   C14   A    
O18   V4    S    
C40   F7    S    
C15   C20   A    
C43   C50   A    
C5    C55   S    
C7    C11   A    
C41   F2    S    
C15   C16   A    
C30   C31   A    
O15   V3    S    
C58   O22   D    
C19   C20   A    
C18   H4    S    
C3    C21   S    
C12   F1    S    
C2    C44   S    
V3    O20   S    
O3    C4    A    
C26   C27   A    
C32   C33   A    
O6    V2    S    
O9    V2    S    
C1    C38   S    
C43   C53   S    
O13   V3    S    
O2    V1    S    
C35   C36   A    
C8    F11   S    
C62   H13   S    
C50   C60   S    
C37   C38   A    
C31   C32   A    
C28   C58   S    
O1    C2    A    
C22   C25   A    
O14   C54   A    
O17   V3    S    
O14   V3    S    
O5    V1    S    
O11   V4    S    
O8    C3    A    
C14   H2    S    
C30   F4    S    
C5    C13   A    
C18   C19   A    
C7    C8    A    
C41   C42   A    
O4    V1    S    
O3    V1    S    
V1    O10   S    
C45   C46   A    
C40   C41   A    
C16   F15   S    
C29   C34   A    
C58   H9    S    
C19   C21   A    
C6    C8    A    
O13   C56   A    
O7    V2    S    
C61   O25   D    
C46   C61   S    
O17   V4    S    
C29   F3    S    
O18   C55   A    
C10   C14   A    
O11   C54   A    
C39   H7    S    
C57   H8    S    
O9    C4    A    
C53   O16   A    
C25   C57   S    
O16   V4    S    
C62   O26   D    
