data_mof_unit_36811.cif
_audit_creation_date              2012-10-26T19:13:52-0400
_audit_creation_method            fapswitch 2.2
_symmetry_space_group_name_H-M    P1
_symmetry_Int_Tables_number       1
_space_group_crystal_system       triclinic
_cell_length_a                    15.246616
_cell_length_b                    13.867382
_cell_length_c                    10.665979
_cell_angle_alpha                 88.475727
_cell_angle_beta                  89.924379
_cell_angle_gamma                 89.552701
_cell_volume                      2254.24678058

loop_
_atom_site_label
_atom_site_type_symbol
_atom_type_description
_atom_site_fract_x
_atom_site_fract_y
_atom_site_fract_z
_atom_type_partial_charge
C1    C     C_R   0.330411 0.500300 0.497955 0.554553
C2    C     C_R   0.532953 0.788363 0.599896 0.040238
C3    C     C_R   0.498217 0.054895 0.501243 0.027373
C4    C     C_R   0.498336 0.945331 0.500964 0.024207
C5    C     C_R   0.501408 0.501289 0.259456 0.577329
C6    C     C_R   0.500211 0.498621 0.740495 0.575818
C7    C     C_3   0.502838 0.592692 0.033042 -0.029598
C8    C     C_3   0.501365 0.406498 0.966469 -0.030152
C9    C     C_3   0.574125 0.543033 0.953492 -0.040269
C10   C     C_3   0.429906 0.456024 0.046072 -0.040100
C11   C     C_3   0.429963 0.545159 0.956357 0.061027
C12   C     C_R   0.670818 0.499849 0.501366 0.558760
C13   C     C_3   0.573918 0.454118 0.043730 0.061950
C14   C     C_3   0.501014 0.495969 0.876837 -0.014960
C15   C     C_3   0.502678 0.503448 0.122956 -0.012878
C16   C     C_R   0.096993 0.557484 0.405396 -0.118449
C17   C     C_R   0.909211 0.413965 0.511427 -0.113811
C18   C     C_R   0.907959 0.585281 0.472488 -0.116161
C19   C     C_R   0.096314 0.441363 0.578308 -0.115539
C20   C     C_R   0.188475 0.560298 0.407263 -0.036026
C21   C     C_R   0.817977 0.412684 0.522700 -0.018204
C22   C     C_R   0.816303 0.587944 0.474967 -0.017278
C23   C     C_R   0.552496 0.106097 0.583178 -0.146459
C24   C     C_R   0.187667 0.439547 0.580526 -0.011130
C25   C     C_R   0.234646 0.500520 0.495476 0.037344
C26   C     C_R   0.768757 0.500154 0.500057 0.029886
C27   C     C_R   0.050720 0.499274 0.490823 0.004003
C28   C     C_R   0.954293 0.499336 0.489630 0.005144
C29   C     C_2   0.347895 0.595414 0.910249 0.537259
C30   C     C_2   0.655887 0.405105 0.092209 0.537822
C31   C     C_3   0.498999 0.697313 0.074387 -0.234516
C32   C     C_3   0.504621 0.769864 0.963774 -0.294208
C33   C     C_3   0.487854 0.872245 0.006697 -0.470001
C34   C     C_R   0.465727 0.894143 0.398351 -0.151824
C35   C     C_3   0.505705 0.302247 0.922844 -0.232593
C36   C     C_3   0.502526 0.228511 0.032314 -0.291814
C37   C     C_3   0.517723 0.126613 0.986574 -0.469228
C38   C     C_3   0.656857 0.584738 0.890911 -0.237371
C39   C     C_3   0.720115 0.628151 0.985176 -0.297698
C40   C     C_3   0.801611 0.667590 0.919162 -0.455772
C41   C     C_3   0.347925 0.412358 0.108299 -0.236818
C42   C     C_3   0.284004 0.371269 0.013350 -0.301643
C43   C     C_3   0.204589 0.326899 0.079316 -0.459144
C44   C     C_3   0.232437 0.625716 0.310011 -0.246992
C45   C     C_R   0.443704 0.110711 0.419990 -0.145711
C46   C     C_3   0.224724 0.731798 0.346949 -0.291268
C47   C     C_3   0.245910 0.800305 0.236907 -0.442102
C48   C     C_3   0.780342 0.317466 0.571572 -0.253478
C49   C     C_3   0.756448 0.322955 0.711476 -0.278731
C50   C     C_3   0.756840 0.222812 0.775341 -0.450433
C51   C     C_3   0.775305 0.687396 0.451265 -0.232676
C52   C     C_3   0.740653 0.699563 0.316543 -0.278030
C53   C     C_3   0.705016 0.801562 0.292303 -0.457987
C54   C     C_3   0.231557 0.370435 0.674071 -0.237994
C55   C     C_3   0.237282 0.268918 0.620261 -0.286314
C56   C     C_R   0.531419 0.889475 0.603275 -0.147881
C57   C     C_3   0.293211 0.201094 0.702382 -0.450688
C58   C     C_R   0.551108 0.207357 0.582265 0.022575
C59   C     C_R   0.465862 0.792783 0.401021 0.024627
C60   C     C_R   0.446250 0.211973 0.420186 0.045240
Cu1   Cu    Cu3+1 0.500000 0.596430 0.500000 0.931931
Cu2   Cu    Cu3+1 0.500000 0.403570 0.500000 0.928086
H1    H     H_    0.061673 0.600573 0.335491 0.107934
H2    H     H_    0.438811 0.755179 0.323409 0.112851
H3    H     H_    0.403958 0.253266 0.357371 0.103699
H4    H     H_    0.560249 0.747821 0.678422 0.108102
H5    H     H_    0.269239 0.631517 0.764302 0.332714
H6    H     H_    0.731823 0.368086 0.240760 0.330591
H7    H     H_    0.420932 0.878819 0.046960 0.154469
H8    H     H_    0.536932 0.891885 0.078340 0.145030
H9    H     H_    0.493352 0.923071 0.924989 0.142247
H10   H     H_    0.570717 0.767227 0.920795 0.146762
H11   H     H_    0.455645 0.752825 0.890870 0.198467
H12   H     H_    0.946397 0.347533 0.524263 0.099601
H13   H     H_    0.435613 0.707200 0.123087 0.163099
H14   H     H_    0.552764 0.710082 0.141707 0.144166
H15   H     H_    0.466439 0.107784 0.917657 0.148947
H16   H     H_    0.583364 0.120390 0.942040 0.150585
H17   H     H_    0.514529 0.075005 0.067757 0.144450
H18   H     H_    0.553349 0.244494 0.103036 0.199620
H19   H     H_    0.437489 0.230955 0.078600 0.152444
H20   H     H_    0.450503 0.289716 0.858150 0.142442
H21   H     H_    0.567775 0.292863 0.869908 0.162496
H22   H     H_    0.836927 0.608885 0.870691 0.163799
H23   H     H_    0.944154 0.651595 0.457908 0.099287
H24   H     H_    0.783055 0.725101 0.849438 0.142334
H25   H     H_    0.846295 0.698706 0.989306 0.141337
H26   H     H_    0.687457 0.687804 0.034478 0.153731
H27   H     H_    0.740883 0.572824 0.056294 0.192163
H28   H     H_    0.690762 0.525884 0.840766 0.155452
H29   H     H_    0.637500 0.640527 0.819774 0.134937
H30   H     H_    0.225557 0.266707 0.143567 0.142854
H31   H     H_    0.169235 0.382249 0.133900 0.163668
H32   H     H_    0.159089 0.298169 0.008434 0.140216
H33   H     H_    0.260774 0.429403 0.947940 0.187377
H34   H     H_    0.060610 0.397271 0.646160 0.103881
H35   H     H_    0.316923 0.314936 0.958144 0.154551
H36   H     H_    0.368212 0.354989 0.176695 0.139859
H37   H     H_    0.314122 0.469523 0.161303 0.149440
H38   H     H_    0.312115 0.785136 0.199321 0.156519
H39   H     H_    0.197026 0.792430 0.160819 0.174358
H40   H     H_    0.243856 0.875919 0.268570 0.127441
H41   H     H_    0.156994 0.748327 0.379130 0.155179
H42   H     H_    0.270350 0.745275 0.425644 0.185543
H43   H     H_    0.302380 0.606861 0.295120 0.159221
H44   H     H_    0.199953 0.615587 0.217982 0.169324
H45   H     H_    0.596825 0.069327 0.647485 0.079150
H46   H     H_    0.719002 0.170785 0.720261 0.123980
H47   H     H_    0.825288 0.195611 0.784674 0.148791
H48   H     H_    0.727551 0.226359 0.870330 0.193110
H49   H     H_    0.804722 0.368098 0.760962 0.184284
H50   H     H_    0.691025 0.357460 0.722071 0.172208
H51   H     H_    0.725269 0.292051 0.514135 0.178004
H52   H     H_    0.829901 0.258799 0.561457 0.125504
H53   H     H_    0.650644 0.817040 0.358078 0.175553
H54   H     H_    0.757706 0.855322 0.304665 0.146728
H55   H     H_    0.680073 0.809129 0.194883 0.127285
H56   H     H_    0.440873 0.930974 0.315107 0.084172
H57   H     H_    0.795024 0.686253 0.249464 0.151370
H58   H     H_    0.688114 0.646899 0.298009 0.201536
H59   H     H_    0.725319 0.704781 0.522858 0.165102
H60   H     H_    0.825224 0.744390 0.464262 0.115257
H61   H     H_    0.361968 0.226520 0.703632 0.167249
H62   H     H_    0.266924 0.197115 0.799512 0.140985
H63   H     H_    0.292753 0.127659 0.663352 0.146070
H64   H     H_    0.170197 0.238709 0.613038 0.146015
H65   H     H_    0.266091 0.272169 0.524509 0.180528
H66   H     H_    0.297250 0.396215 0.702029 0.188364
H67   H     H_    0.398019 0.077529 0.357326 0.079581
H68   H     H_    0.192434 0.366909 0.762062 0.122024
H69   H     H_    0.555432 0.922376 0.687039 0.081020
H70   H     H_    0.590737 0.245272 0.647759 0.114974
N1    N     N_R   0.500000 0.258690 0.500000 -0.220186
N2    N     N_R   0.500000 0.741310 0.500000 -0.220299
O1    O     O_R   0.371460 0.581430 0.500010 -0.476432
O2    O     O_R   0.326475 0.596365 0.783002 -0.698211
O3    O     O_2   0.707097 0.369229 0.018372 -0.574315
O4    O     O_R   0.674361 0.402264 0.220426 -0.694177
O5    O     O_R   0.628540 0.418570 0.499990 -0.486818
O6    O     O_R   0.628540 0.581430 0.499990 -0.521799
O7    O     O_R   0.371460 0.418570 0.500010 -0.524475
O8    O     O_R   0.499980 0.581420 0.316850 -0.534680
O9    O     O_R   0.500020 0.418580 0.683150 -0.532026
O10   O     O_R   0.500020 0.581420 0.683150 -0.482123
O11   O     O_R   0.499980 0.418580 0.316850 -0.476449
O12   O     O_2   0.299406 0.634340 0.985254 -0.571284

loop_
_geom_bond_atom_site_label_1
_geom_bond_atom_site_label_2
_ccdc_geom_bond_type
C34   H56   S    
C23   C58   A    
C1    C25   S    
C21   C26   A    
C45   C60   A    
C45   H67   S    
C8    C13   S    
C30   O4    S    
C41   C42   S    
C40   H22   S    
C3    C23   A    
C35   C36   S    
Cu2   O9    S    
C5    O8    A    
C54   H66   S    
C32   H10   S    
C44   H43   S    
C7    C11   S    
C37   H17   S    
C59   H2    S    
C2    N2    A    
C47   H39   S    
C40   H25   S    
C36   C37   S    
C7    C31   S    
C10   C15   S    
C57   H63   S    
C38   C39   S    
C11   C14   S    
C53   H55   S    
C57   H61   S    
C20   C25   A    
C24   C54   S    
C50   H48   S    
C43   H32   S    
C40   H24   S    
C9    C13   S    
C54   C55   S    
H6    O4    S    
C58   H70   S    
Cu2   O11   S    
C41   H37   S    
C16   H1    S    
Cu2   O5    S    
C19   C27   A    
C53   H54   S    
C33   H7    S    
C49   H49   S    
C21   C48   S    
C16   C27   A    
C7    C15   S    
C30   O3    D    
C4    C56   A    
C10   C41   S    
C50   H46   S    
C39   H26   S    
C20   C44   S    
C35   H20   S    
C44   C46   S    
Cu1   N2    S    
C58   N1    A    
C54   H68   S    
C4    C34   A    
C18   H23   S    
C5    O11   A    
C42   H33   S    
C13   C30   S    
C18   C28   A    
C24   C25   A    
C36   H18   S    
C42   H35   S    
C29   O12   D    
C35   H21   S    
C46   H42   S    
C38   H29   S    
C3    C45   A    
C50   H47   S    
C17   C21   A    
C47   H38   S    
C51   C52   S    
C12   C26   S    
C8    C35   S    
C9    C14   S    
C6    C14   S    
Cu1   O10   S    
C31   H13   S    
C31   C32   S    
C55   H64   S    
C36   H19   S    
C16   C20   A    
C23   H45   S    
C12   O6    A    
C12   O5    A    
C33   H8    S    
C49   H50   S    
C52   H58   S    
C48   C49   S    
C55   H65   S    
C60   H3    S    
C55   C57   S    
C34   C59   A    
C51   H59   S    
C42   C43   S    
Cu2   O7    S    
C6    O10   A    
C3    C4    S    
C39   C40   S    
C52   C53   S    
Cu1   O1    S    
C48   H52   S    
C46   H41   S    
C7    C9    S    
C46   C47   S    
C8    C14   S    
C18   C22   A    
C17   C28   A    
C2    H4    S    
Cu1   O6    S    
C44   H44   S    
C37   H16   S    
C38   H28   S    
C59   N2    A    
C43   H30   S    
C32   C33   S    
C13   C15   S    
H5    O2    S    
C2    C56   A    
C57   H62   S    
C31   H14   S    
C17   H12   S    
C37   H15   S    
C9    C38   S    
C43   H31   S    
C39   H27   S    
C19   C24   A    
Cu1   Cu2   S    
C5    C15   S    
C56   H69   S    
C1    O7    A    
C10   C11   S    
C33   H9    S    
C52   H57   S    
Cu1   O8    S    
C29   O2    S    
C11   C29   S    
C8    C10   S    
C49   C50   S    
C22   C26   A    
C27   C28   S    
C47   H40   S    
C51   H60   S    
C41   H36   S    
C22   C51   S    
C6    O9    A    
C1    O1    A    
Cu2   N1    S    
C60   N1    A    
C32   H11   S    
C19   H34   S    
C53   H53   S    
C48   H51   S    
