data_mof_unit_14552.cif
_audit_creation_date              2012-12-10T17:46:57-0500
_audit_creation_method            fapswitch 2.2
_symmetry_space_group_name_H-M    P1
_symmetry_Int_Tables_number       1
_space_group_crystal_system       triclinic
_cell_length_a                    10.083994
_cell_length_b                    10.627034
_cell_length_c                    13.560605
_cell_angle_alpha                 96.117097
_cell_angle_beta                  83.907094
_cell_angle_gamma                 90.664039
_cell_volume                      1436.75790825

loop_
_atom_site_label
_atom_site_type_symbol
_atom_type_description
_atom_site_fract_x
_atom_site_fract_y
_atom_site_fract_z
_atom_type_partial_charge
C1    C     C_R   0.502281 0.735165 0.483792 0.904633
C2    C     C_R   0.622396 0.930669 0.455827 -0.124068
C3    C     C_R   0.617616 0.059880 0.475502 -0.136539
C4    C     C_R   0.476688 0.499722 0.684994 0.916578
C5    C     C_R   0.494051 0.122217 0.493869 -0.136736
C6    C     C_R   0.844767 0.614795 0.670924 0.505140
C7    C     C_R   0.903144 0.609224 0.759468 -0.259609
C8    C     C_R   0.041075 0.626211 0.756709 0.146353
C9    C     C_R   0.116923 0.615640 0.663823 -0.108478
C10   C     C_R   0.061461 0.559103 0.579676 -0.029177
C11   C     C_R   0.918473 0.560355 0.580658 -0.081330
C12   C     C_1   0.459879 0.499891 0.788707 -0.161946
C13   C     C_R   0.936362 0.429334 0.425746 0.323678
C14   C     C_R   0.081187 0.435246 0.421910 0.330963
C15   C     C_R   0.497904 0.259240 0.502257 0.901278
C16   C     C_R   0.523443 0.500395 0.314968 0.893277
C17   C     C_1   0.540910 0.502805 0.211482 -0.094735
C18   C     C_2   0.558020 0.506732 0.019980 -0.156989
C19   C     C_2   0.443172 0.501416 0.980680 -0.133942
C20   C     C_1   0.447647 0.500460 0.876614 -0.005192
C21   C     C_1   0.553561 0.504943 0.123820 0.038562
C22   C     C_3   0.105847 0.661471 0.851081 -0.425562
C23   C     C_R   0.277398 0.863555 0.401971 -0.166176
C24   C     C_3   0.068190 0.795237 0.897199 -0.727917
C25   C     C_3   0.046009 0.870600 0.344851 -0.394410
C26   C     C_3   0.004061 0.738691 0.369570 -0.802357
C27   C     C_R   0.154247 0.924934 0.405688 0.216082
C28   C     C_R   0.134994 0.040951 0.464266 -0.102142
C29   C     C_R   0.242600 0.103341 0.504397 -0.143245
C30   C     C_R   0.373276 0.052606 0.483227 0.107512
C31   C     C_R   0.384332 0.924646 0.447009 0.052191
C32   C     C_R   0.504289 0.862636 0.455331 -0.156343
H1    H     H_    0.347636 0.496677 0.025652 0.192132
H2    H     H_    0.772670 0.944004 0.766881 0.383204
H3    H     H_    0.094028 0.864277 0.842144 0.273834
H4    H     H_    0.959887 0.801272 0.922546 0.277535
H5    H     H_    0.123987 0.820468 0.962852 0.239204
H6    H     H_    0.075391 0.592796 0.905596 0.215282
H7    H     H_    0.216174 0.656508 0.835425 0.213573
H8    H     H_    0.363035 0.262599 0.264761 0.362677
H9    H     H_    0.083067 0.669457 0.339312 0.273581
H10   H     H_    0.986472 0.737421 0.451230 0.287615
H11   H     H_    0.911078 0.710340 0.335899 0.262057
H12   H     H_    0.842641 0.629311 0.830300 0.180448
H13   H     H_    0.956515 0.932696 0.357710 0.233528
H14   H     H_    0.082711 0.866319 0.264351 0.226141
H15   H     H_    0.871300 0.314176 0.171172 0.382895
H16   H     H_    0.217040 0.651118 0.658361 0.201845
H17   H     H_    0.653571 0.511186 0.974979 0.158525
H18   H     H_    0.717859 0.883789 0.443521 0.205398
H19   H     H_    0.291952 0.771107 0.360331 0.170308
H20   H     H_    0.037921 0.085820 0.476009 0.162694
H21   H     H_    0.220116 0.190108 0.551794 0.167214
H22   H     H_    0.711494 0.110193 0.477344 0.202235
N1    N     N_R   0.857120 0.501200 0.500900 -0.193798
N2    N     N_R   0.142720 0.501280 0.500940 -0.177333
O1    O     O_R   0.385310 0.683220 0.500000 -0.641169
O2    O     O_2   0.617069 0.753181 0.690850 -0.312699
O3    O     O_3   0.813147 0.861013 0.772795 -0.575988
O4    O     O_2   0.118738 0.280619 0.231905 -0.206179
O5    O     O_2   0.225354 0.480341 0.250130 -0.337216
O6    O     O_3   0.311238 0.285789 0.330349 -0.524003
O7    O     O_2   0.931881 0.194413 0.330844 -0.325807
O8    O     O_2   0.721222 0.290016 0.337888 -0.292124
O9    O     O_3   0.898942 0.380749 0.221793 -0.507691
O10   O     O_R   0.614640 0.683250 0.500010 -0.540036
O11   O     O_R   0.368830 0.499960 0.640340 -0.651928
O12   O     O_R   0.598160 0.499980 0.640350 -0.603053
O13   O     O_R   0.385360 0.316750 0.499990 -0.581195
O14   O     O_R   0.614690 0.316780 0.500000 -0.576179
O15   O     O_R   0.401840 0.500020 0.359650 -0.530391
O16   O     O_R   0.631170 0.500040 0.359660 -0.563406
O17   O     O_2   0.809923 0.823724 0.582909 -0.355676
S1    S     S_3+6 0.766205 0.764196 0.676093 0.019889
S2    S     S_3+6 0.181079 0.370093 0.306413 0.090783
S3    S     S_3+6 0.865753 0.320706 0.331898 0.069831
Zn1   Zn    Zn3+2 0.346870 0.499980 0.499990 0.999123
Zn2   Zn    Zn3+2 0.653130 0.500020 0.500010 1.054962

loop_
_geom_bond_atom_site_label_1
_geom_bond_atom_site_label_2
_ccdc_geom_bond_type
C14   N2    A    
O14   Zn2   S    
C18   C21   S    
O17   S1    D    
O13   Zn1   S    
C19   C20   S    
O11   Zn1   S    
C7    C8    A    
O5    S2    D    
O2    S1    D    
C24   H4    S    
O9    S3    S    
C28   C29   A    
C30   C31   A    
C3    H22   S    
O7    S3    D    
C22   H6    S    
H8    O6    S    
C2    C32   A    
C18   C19   D    
O16   Zn2   S    
C2    H18   S    
C8    C9    A    
C16   O16   A    
C8    C22   S    
C6    S1    S    
C23   C27   A    
C4    C12   S    
C10   N2    A    
C9    C10   A    
C13   C14   A    
C16   O15   A    
C15   O13   A    
C26   H11   S    
C1    O10   A    
O12   Zn2   S    
O10   Zn2   S    
C24   H3    S    
O1    Zn1   S    
C19   H1    S    
C6    C11   A    
C4    O12   A    
N1    Zn2   S    
C16   C17   S    
C25   C26   S    
C1    C32   S    
C17   C21   T    
N2    Zn1   S    
C23   C31   A    
C29   C30   A    
C1    O1    A    
C23   H19   S    
C31   C32   A    
C13   S3    S    
C12   C20   T    
C24   H5    S    
O8    S3    D    
C7    H12   S    
O3    S1    S    
H2    O3    S    
C22   C24   S    
O6    S2    S    
C25   H13   S    
O15   Zn1   S    
C11   N1    A    
C26   H10   S    
C5    C30   A    
C15   O14   A    
C3    C5    A    
C4    O11   A    
C6    C7    A    
C25   C27   S    
O4    S2    D    
C14   S2    S    
C2    C3    A    
C28   H20   S    
C29   H21   S    
C22   H7    S    
C5    C15   S    
C10   C11   A    
C26   H9    S    
C9    H16   S    
C27   C28   A    
C25   H14   S    
H15   O9    S    
C18   H17   S    
C13   N1    A    
