data_mof_unit_41024.cif
_audit_creation_date              2012-12-11T15:23:54-0500
_audit_creation_method            fapswitch 2.2
_symmetry_space_group_name_H-M    P1
_symmetry_Int_Tables_number       1
_space_group_crystal_system       triclinic
_cell_length_a                    17.450339
_cell_length_b                    24.530752
_cell_length_c                    15.096936
_cell_angle_alpha                 89.435421
_cell_angle_beta                  126.097902
_cell_angle_gamma                 90.678794
_cell_volume                      5221.41049224

loop_
_atom_site_label
_atom_site_type_symbol
_atom_type_description
_atom_site_fract_x
_atom_site_fract_y
_atom_site_fract_z
_atom_type_partial_charge
C1    C     C_R   0.320083 0.364606 0.910591 0.061231
C2    C     C_R   0.538634 0.502473 0.715267 0.067834
C3    C     C_1   0.177441 0.927274 0.729344 0.048083
C4    C     C_R   0.056895 0.000862 0.360523 0.073443
C5    C     C_R   0.041019 0.002137 0.717392 0.065717
C6    C     C_R   0.173753 0.500438 0.697512 0.132652
C7    C     C_R   0.796178 0.499824 0.369182 0.124186
C8    C     C_R   0.673730 0.000507 0.698396 0.131770
C9    C     C_R   0.296249 0.999797 0.369168 0.124834
C10   C     C_2   0.918911 0.456129 0.539698 -0.092095
C11   C     C_2   0.020324 0.460019 0.627806 -0.114784
C12   C     C_2   0.418703 0.956159 0.540085 -0.094003
C13   C     C_R   0.679951 0.365152 0.091103 0.078009
C14   C     C_2   0.520147 0.960033 0.628393 -0.113990
C15   C     C_2   0.868874 0.500912 0.486770 -0.193587
C16   C     C_2   0.071632 0.501726 0.629745 -0.194669
C17   C     C_2   0.368759 0.000922 0.486839 -0.194773
C18   C     C_2   0.571563 0.001857 0.630891 -0.192547
C19   C     C_R   0.229864 0.726728 0.908347 -0.173657
C20   C     C_R   0.719898 0.761687 0.105748 -0.174811
C21   C     C_R   0.767769 0.254965 0.892931 -0.170924
C22   C     C_R   0.219645 0.261773 0.105695 -0.172584
C23   C     C_R   0.713438 0.294175 0.894652 -0.147480
C24   C     C_R   0.820100 0.864608 0.910635 0.061479
C25   C     C_R   0.273041 0.303302 0.105211 -0.160983
C26   C     C_R   0.176934 0.764964 0.913087 -0.175576
C27   C     C_R   0.773190 0.803283 0.105285 -0.160908
C28   C     C_R   0.741547 0.316486 0.994823 0.152396
C29   C     C_R   0.249755 0.323384 0.005001 0.148384
C30   C     C_R   0.222265 0.803908 0.995616 0.164113
C31   C     C_R   0.749795 0.823442 0.005082 0.148543
C32   C     C_R   0.833493 0.306955 0.089178 -0.157599
C33   C     C_R   0.161223 0.310626 0.907899 -0.156831
C34   C     C_R   0.320899 0.806203 0.071626 -0.152165
C35   C     C_R   0.176298 0.862509 0.091196 0.068546
C36   C     C_R   0.661273 0.810671 0.907987 -0.157110
C37   C     C_R   0.374408 0.766461 0.068813 -0.187875
C38   C     C_R   0.608799 0.767961 0.908076 -0.167761
C39   C     C_R   0.886985 0.266089 0.088215 -0.176028
C40   C     C_R   0.108645 0.267985 0.908016 -0.167329
C41   C     C_R   0.438284 0.649654 0.088841 -0.129476
C42   C     C_R   0.557572 0.651615 0.911040 -0.130307
C43   C     C_R   0.940975 0.150598 0.089035 -0.125317
C44   C     C_R   0.057439 0.151656 0.911057 -0.133894
C45   C     C_R   0.327803 0.726473 0.988314 0.151324
C46   C     C_R   0.375547 0.679051 0.995236 0.047908
C47   C     C_R   0.644455 0.739579 0.005995 0.137584
C48   C     C_R   0.849160 0.236578 0.991776 0.140803
C49   C     C_R   0.144223 0.239645 0.005958 0.138483
C50   C     C_R   0.506211 0.542939 0.552094 -0.187101
C51   C     C_R   0.508700 0.541675 0.463935 -0.188370
C52   C     C_R   0.023258 0.046809 0.564344 -0.184139
C53   C     C_R   0.026171 0.045852 0.476410 -0.187751
C54   C     C_R   0.565391 0.503694 0.460094 0.062535
C55   C     C_R   0.560229 0.506100 0.637761 0.065617
C56   C     C_R   0.073925 0.004180 0.465890 0.062885
C57   C     C_R   0.618320 0.682892 0.003233 0.048158
C58   C     C_R   0.067198 0.005736 0.643318 0.066312
C59   C     C_R   0.626774 0.469136 0.549584 -0.008300
C60   C     C_R   0.624064 0.470443 0.640335 -0.015877
C61   C     C_R   0.128515 0.965999 0.550976 -0.005748
C62   C     C_R   0.124390 0.966518 0.640999 -0.014530
C63   C     C_R   0.543045 0.454519 0.300639 -0.137294
C64   C     C_R   0.508390 0.455671 0.738510 -0.116495
C65   C     C_R   0.044947 0.954632 0.301782 -0.137789
C66   C     C_R   0.010088 0.955444 0.740370 -0.114565
C67   C     C_R   0.231392 0.545836 0.734763 -0.140315
C68   C     C_R   0.880286 0.181653 0.996282 0.049417
C69   C     C_R   0.752636 0.545017 0.304329 -0.138809
C70   C     C_R   0.731449 0.045890 0.735472 -0.139345
C71   C     C_R   0.252653 0.045000 0.304335 -0.139436
C72   C     C_R   0.540930 0.545778 0.296772 -0.142555
C73   C     C_R   0.516533 0.546940 0.750330 -0.140468
C74   C     C_R   0.043684 0.045736 0.298216 -0.138513
C75   C     C_R   0.018080 0.046685 0.751875 -0.138650
C76   C     C_R   0.230055 0.454534 0.731195 -0.135580
C77   C     C_R   0.750133 0.454504 0.305485 -0.108827
C78   C     C_R   0.729990 0.954577 0.731663 -0.135436
C79   C     C_R   0.118142 0.182946 0.003232 0.048921
C80   C     C_R   0.250272 0.954471 0.305401 -0.109754
C81   C     C_R   0.349726 0.649361 0.905688 -0.149648
C82   C     C_R   0.649247 0.650538 0.093455 -0.122208
C83   C     C_R   0.851507 0.150321 0.906393 -0.135930
C84   C     C_R   0.149176 0.150563 0.093451 -0.122413
C85   C     C_R   0.406362 0.371969 0.093107 -0.146316
C86   C     C_R   0.586736 0.364853 0.907993 -0.141308
C87   C     C_R   0.906317 0.872095 0.093151 -0.146953
C88   C     C_R   0.082601 0.862288 0.907399 -0.146106
C89   C     C_R   0.320909 0.353060 0.001915 -0.008014
C90   C     C_R   0.552665 0.500751 0.357776 0.074336
C91   C     C_R   0.673570 0.347849 0.999222 -0.014161
C92   C     C_R   0.820897 0.853141 0.001970 -0.007781
C93   C     C_R   0.165060 0.842635 0.999162 -0.014923
C94   C     C_1   0.276476 0.330595 0.814790 -0.014541
C95   C     C_1   0.738036 0.341423 0.199047 -0.013927
C96   C     C_1   0.776544 0.830547 0.814904 -0.016014
C97   C     C_1   0.235942 0.839706 0.199875 -0.003239
C98   C     C_1   0.691960 0.433390 0.548901 0.043512
C99   C     C_1   0.686430 0.436352 0.735367 0.048720
C100  C     C_1   0.188682 0.927448 0.546954 0.041735
H1    H     H_    0.893275 0.540772 0.524756 0.130753
H2    H     H_    0.337018 0.315102 0.183083 0.108842
H3    H     H_    0.100479 0.762499 0.855021 0.116443
H4    H     H_    0.837202 0.815065 0.183145 0.109268
H5    H     H_    0.862305 0.328307 0.164975 0.128414
H6    H     H_    0.136335 0.330025 0.830770 0.115973
H7    H     H_    0.355621 0.837713 0.133499 0.124304
H8    H     H_    0.636341 0.830109 0.830875 0.116245
H9    H     H_    0.450547 0.765780 0.130268 0.117765
H10   H     H_    0.546182 0.754341 0.830484 0.111170
H11   H     H_    0.953545 0.255049 0.164242 0.111451
H12   H     H_    0.039202 0.537040 0.576682 0.131920
H13   H     H_    0.046024 0.254365 0.830426 0.110305
H14   H     H_    0.456405 0.570277 0.549173 0.127584
H15   H     H_    0.461259 0.568375 0.395335 0.131711
H16   H     H_    0.978829 0.077228 0.564458 0.124809
H17   H     H_    0.984149 0.075695 0.412201 0.128852
H18   H     H_    0.476972 0.662865 0.173104 0.091682
H19   H     H_    0.511599 0.665693 0.827181 0.085656
H20   H     H_    0.984296 0.163992 0.173339 0.085537
H21   H     H_    0.011389 0.165741 0.827206 0.085314
H22   H     H_    0.557050 0.412953 0.330284 0.098905
H23   H     H_    0.393043 0.040806 0.524719 0.131486
H24   H     H_    0.503678 0.415517 0.707459 0.092574
H25   H     H_    0.058818 0.912985 0.330829 0.100502
H26   H     H_    0.007244 0.914956 0.711743 0.096148
H27   H     H_    0.210071 0.588042 0.719673 0.095011
H28   H     H_    0.762218 0.586562 0.332735 0.090282
H29   H     H_    0.710338 0.088149 0.720976 0.097788
H30   H     H_    0.262177 0.086531 0.332793 0.090226
H31   H     H_    0.553728 0.587990 0.322233 0.096088
H32   H     H_    0.525645 0.589532 0.739422 0.104496
H33   H     H_    0.058416 0.087914 0.323890 0.092925
H34   H     H_    0.539204 0.037308 0.578254 0.131663
H35   H     H_    0.029114 0.089254 0.743241 0.103176
H36   H     H_    0.204859 0.413671 0.704796 0.111943
H37   H     H_    0.753939 0.414254 0.336835 0.109100
H38   H     H_    0.704684 0.913722 0.705349 0.111969
H39   H     H_    0.254263 0.914175 0.336658 0.108734
H40   H     H_    0.309216 0.662820 0.821192 0.093222
H41   H     H_    0.687034 0.663097 0.177857 0.082881
H42   H     H_    0.815514 0.163733 0.822487 0.084662
H43   H     H_    0.186969 0.163117 0.177856 0.082696
H44   H     H_    0.433562 0.368543 0.178008 0.102785
H45   H     H_    0.193087 0.694934 0.847294 0.117067
H46   H     H_    0.551930 0.353024 0.824291 0.096102
H47   H     H_    0.933459 0.868850 0.178077 0.103256
H48   H     H_    0.047963 0.849776 0.823711 0.101605
H49   H     H_    0.892485 0.415837 0.505396 0.125910
H50   H     H_    0.054957 0.424490 0.679740 0.122405
H51   H     H_    0.392221 0.915853 0.505908 0.126390
H52   H     H_    0.554754 0.924396 0.679966 0.122129
H53   H     H_    0.745731 0.743169 0.183797 0.107702
H54   H     H_    0.738888 0.235137 0.815554 0.107533
H55   H     H_    0.245386 0.243306 0.183757 0.107284
H56   H     H_    0.646617 0.303223 0.817794 0.107458
N1    N     N_R   0.395440 0.396300 0.944370 -0.057495
N2    N     N_R   0.474910 0.470990 0.794360 -0.041708
N3    N     N_R   0.025090 0.970990 0.205640 -0.040237
N4    N     N_R   0.974910 0.970990 0.794360 -0.042121
N5    N     N_R   0.320240 0.527820 0.794510 -0.043342
N6    N     N_R   0.679760 0.527820 0.205490 -0.041987
N7    N     N_R   0.820240 0.027820 0.794510 -0.043779
N8    N     N_R   0.179760 0.027820 0.205490 -0.041931
N9    N     N_R   0.524580 0.527810 0.205160 -0.038439
N10   N     N_R   0.475420 0.527810 0.794840 -0.043114
N11   N     N_R   0.024580 0.027810 0.205160 -0.038406
N12   N     N_R   0.604560 0.396300 0.055630 -0.061111
N13   N     N_R   0.975420 0.027810 0.794840 -0.043182
N14   N     N_R   0.320750 0.470990 0.794990 -0.046464
N15   N     N_R   0.679250 0.470990 0.205010 -0.048881
N16   N     N_R   0.820750 0.970990 0.794990 -0.046312
N17   N     N_R   0.179250 0.970990 0.205010 -0.048615
N18   N     N_R   0.393580 0.602500 0.942610 -0.035916
N19   N     N_R   0.606420 0.602500 0.057390 -0.038242
N20   N     N_R   0.893580 0.102500 0.942610 -0.037417
N21   N     N_R   0.106420 0.102500 0.057390 -0.038241
N22   N     N_R   0.451750 0.396300 0.057540 -0.049156
N23   N     N_R   0.895440 0.896300 0.944370 -0.057452
N24   N     N_R   0.548250 0.396300 0.942460 -0.048380
N25   N     N_R   0.951750 0.896300 0.057540 -0.049192
N26   N     N_R   0.048250 0.896300 0.942460 -0.047725
N27   N     N_1   0.241762 0.303110 0.738169 -0.092712
N28   N     N_1   0.784637 0.321548 0.285155 -0.101840
N29   N     N_1   0.741873 0.803027 0.738336 -0.092894
N30   N     N_1   0.284002 0.820561 0.286528 -0.099165
N31   N     N_1   0.743988 0.404762 0.548500 -0.096131
N32   N     N_1   0.736581 0.409347 0.811450 -0.077471
N33   N     N_1   0.236874 0.896674 0.543967 -0.096770
N34   N     N_R   0.104560 0.896300 0.055630 -0.060524
N35   N     N_1   0.219765 0.895949 0.799839 -0.078194
N36   N     N_R   0.449890 0.602500 0.055780 -0.037895
N37   N     N_R   0.550110 0.602500 0.944220 -0.038393
N38   N     N_R   0.949890 0.102500 0.055780 -0.038569
N39   N     N_R   0.050110 0.102500 0.944220 -0.038561
N40   N     N_R   0.525090 0.470990 0.205640 -0.040119
Ni1   Ni    Ni4+2 0.435420 0.434250 0.870220 0.222031
Ni2   Ni    Ni4+2 0.564580 0.434250 0.129780 0.217327
Ni3   Ni    Ni4+2 0.935420 0.934250 0.870220 0.221126
Ni4   Ni    Ni4+2 0.064580 0.934250 0.129780 0.216933
Ni5   Ni    Ni4+2 0.563400 0.564580 0.128670 0.207004
Ni6   Ni    Ni4+2 0.436600 0.564580 0.871330 0.209371
Ni7   Ni    Ni4+2 0.063400 0.064580 0.128670 0.206465
Ni8   Ni    Ni4+2 0.936600 0.064580 0.871330 0.208445

loop_
_geom_bond_atom_site_label_1
_geom_bond_atom_site_label_2
_ccdc_geom_bond_type
C58   C62   A    
C81   H40   S    
C31   C92   S    
C33   H6    S    
C36   H8    S    
C34   C37   A    
C72   N9    A    
N20   Ni8   S    
C100  N33   T    
C65   N3    A    
C60   C99   S    
C70   N7    A    
C66   N4    A    
C95   N28   T    
C76   H36   S    
N34   Ni4   S    
C45   C46   S    
C16   H12   S    
C19   H45   S    
C41   C46   A    
C87   H47   S    
C5    C58   S    
C13   C95   S    
C43   N38   A    
C34   H7    S    
C77   H37   S    
C80   N17   A    
C54   C90   S    
C30   C93   S    
C67   H27   S    
C2    C55   S    
C24   C96   S    
C10   H49   S    
C4    C65   A    
C75   H35   S    
C42   H19   S    
C53   C56   A    
N1    Ni1   S    
C40   C49   A    
C57   C82   A    
C74   H33   S    
C29   C33   A    
C44   H21   S    
N18   Ni6   S    
N2    Ni1   S    
C85   H44   S    
N16   Ni3   S    
N10   Ni6   S    
C32   C39   A    
C19   C26   A    
N9    Ni5   S    
C74   N11   A    
N24   Ni1   S    
C17   H23   S    
N6    N15   A    
C69   H28   S    
C1    C94   S    
C22   C25   A    
C12   C17   D    
C75   N13   A    
N4    N13   A    
N21   Ni7   S    
N11   Ni7   S    
C41   H18   S    
C38   H10   S    
C37   H9    S    
C77   N15   A    
C43   H20   S    
C7    C77   A    
C21   C48   A    
C39   H11   S    
N22   Ni2   S    
C73   H32   S    
C59   C60   A    
C14   H52   S    
C83   N20   A    
C4    C56   S    
N17   Ni4   S    
C8    C78   A    
C12   H51   S    
C35   C97   S    
C61   C62   A    
C82   H41   S    
C78   H38   S    
C42   C57   A    
C29   C89   S    
C99   N32   T    
C2    C64   A    
N4    Ni3   S    
C54   C59   A    
C35   C93   A    
C25   C29   A    
C97   N30   T    
C52   C58   A    
N7    Ni8   S    
C33   C40   A    
C71   N8    A    
C30   C34   A    
N6    Ni5   S    
C27   C31   A    
N5    Ni6   S    
C28   C32   A    
C69   N6    A    
N19   Ni5   S    
N40   Ni2   S    
C20   H53   S    
N36   Ni5   S    
C85   C89   A    
C43   C68   A    
C13   N12   A    
N39   Ni8   S    
C15   H1    S    
C84   H43   S    
N12   N24   A    
C70   H29   S    
C51   H15   S    
N37   Ni6   S    
C49   C79   S    
C50   H14   S    
C9    C80   A    
C65   H25   S    
C5    C75   A    
C42   N37   A    
C7    C69   A    
C98   N31   T    
N8    Ni7   S    
C3    N35   T    
C26   H3    S    
C47   C57   S    
C46   C81   A    
C72   C90   A    
C11   C16   D    
C67   N5    A    
C11   H50   S    
C88   N26   A    
C40   H13   S    
C21   H54   S    
C24   N23   A    
C78   N16   A    
C50   C51   A    
C88   H48   S    
N8    N17   A    
C56   C61   A    
C23   C28   A    
C48   C68   S    
C76   N14   A    
N7    N16   A    
C38   C47   A    
C2    C73   A    
N12   Ni2   S    
C22   C49   A    
N5    N14   A    
C9    C17   S    
C6    C67   A    
C12   C14   S    
C26   C30   A    
C35   N34   A    
C32   H5    S    
C21   C23   A    
C24   C92   A    
C61   C100  S    
C94   N27   T    
C37   C45   A    
N9    N40   A    
C86   H46   S    
C63   H22   S    
C87   C92   A    
C52   C53   A    
N2    N10   A    
C72   H31   S    
C3    C62   S    
C52   H16   S    
C88   C93   A    
N3    Ni4   S    
C44   N39   A    
C1    C89   A    
N21   N39   A    
C41   N36   A    
C63   N40   A    
C68   C83   A    
C4    C74   A    
C96   N29   T    
C44   C79   A    
N26   Ni3   S    
C9    C71   A    
C73   N10   A    
C87   N25   A    
C83   H42   S    
C19   C45   A    
C6    C76   A    
C20   C27   A    
N15   Ni2   S    
C80   H39   S    
C8    C70   A    
C50   C55   A    
C27   H4    S    
C10   C15   D    
C51   C54   A    
C81   N18   A    
C36   C38   A    
C86   N24   A    
C85   N22   A    
C1    N1    A    
C64   H24   S    
C5    C66   A    
C71   H30   S    
C79   C84   A    
N23   Ni3   S    
N38   Ni7   S    
C63   C90   A    
C7    C15   S    
N3    N11   A    
C14   C18   D    
C18   H34   S    
C28   C91   S    
C53   H17   S    
N1    N22   A    
C84   N21   A    
C25   H2    S    
C8    C18   S    
C20   C47   A    
C10   C11   S    
C6    C16   S    
C22   H55   S    
C66   H26   S    
C23   H56   S    
C82   N19   A    
C86   C91   A    
C64   N2    A    
C59   C98   S    
C31   C36   A    
N23   N25   A    
N26   N34   A    
N20   N38   A    
C55   C60   A    
N25   Ni4   S    
N19   N37   A    
N14   Ni1   S    
C13   C91   A    
N18   N36   A    
C39   C48   A    
N13   Ni8   S    
