data_mof_unit_33357.cif
_audit_creation_date              2012-12-10T19:27:36-0500
_audit_creation_method            fapswitch 2.2
_symmetry_space_group_name_H-M    P1
_symmetry_Int_Tables_number       1
_space_group_crystal_system       triclinic
_cell_length_a                    22.767919
_cell_length_b                    10.507305
_cell_length_c                    9.872028
_cell_angle_alpha                 89.76586
_cell_angle_beta                  90.689625
_cell_angle_gamma                 89.325822
_cell_volume                      2361.32436008

loop_
_atom_site_label
_atom_site_type_symbol
_atom_type_description
_atom_site_fract_x
_atom_site_fract_y
_atom_site_fract_z
_atom_type_partial_charge
C1    C     C_R   0.498192 0.258138 0.499955 0.899103
C2    C     C_R   0.688502 0.654878 0.467252 0.627704
C3    C     C_R   0.242127 0.453331 0.336629 -0.157192
C4    C     C_R   0.746371 0.685818 0.442111 -0.159844
C5    C     C_R   0.203511 0.516919 0.422423 -0.022089
C6    C     C_R   0.790882 0.596966 0.469573 0.003944
C7    C     C_3   0.546445 0.041854 0.563388 -0.281894
C8    C     C_3   0.448776 0.957922 0.436193 -0.285142
C9    C     C_3   0.545879 0.958234 0.434686 -0.226401
C10   C     C_3   0.449289 0.042378 0.564650 -0.278911
C11   C     C_3   0.498392 0.877082 0.499948 -0.236438
C12   C     C_R   0.499705 0.742022 0.499943 1.018158
C13   C     C_3   0.497067 0.123114 0.499625 -0.222616
C14   C     C_3   0.498771 0.959418 0.626720 0.776518
C15   C     C_3   0.496376 0.040852 0.372875 0.768415
C16   C     C_R   0.388521 0.501811 0.498504 1.016744
C17   C     C_R   0.611196 0.499798 0.500596 0.970272
C18   C     C_3   0.499808 0.385263 0.049904 -0.282137
C19   C     C_3   0.500179 0.614999 0.950039 -0.294193
C20   C     C_3   0.545236 0.441808 0.954469 0.347218
C21   C     C_3   0.454490 0.558592 0.046002 0.370524
C22   C     C_3   0.454293 0.444770 0.951854 0.370360
C23   C     C_R   0.224042 0.555416 0.551556 0.362244
C24   C     C_3   0.545525 0.555327 0.047894 0.353310
C25   C     C_R   0.882562 0.711917 0.468694 0.665745
C26   C     C_R   0.109626 0.464135 0.314731 0.663522
C27   C     C_R   0.868414 0.536505 0.320185 0.654817
C28   C     C_R   0.125414 0.674194 0.394212 0.674326
C29   C     C_R   0.928964 0.524560 0.294262 -0.148322
C30   C     C_R   0.064587 0.701052 0.389854 -0.163609
C31   C     C_R   0.966078 0.616587 0.356011 -0.078211
C32   C     C_R   0.027087 0.604783 0.342820 -0.073129
C33   C     C_R   0.943084 0.715267 0.439471 -0.165587
C34   C     C_R   0.777248 0.479219 0.529611 0.359291
C35   C     C_R   0.051171 0.496384 0.281916 -0.140347
C36   C     C_R   0.954082 0.426083 0.210685 0.281462
C37   C     C_R   0.039774 0.814389 0.441785 0.335664
C38   C     C_R   0.016044 0.421347 0.196417 0.214479
C39   C     C_R   0.981770 0.810954 0.490357 0.258483
C40   C     C_R   0.285147 0.568270 0.573270 0.274361
C41   C     C_R   0.718618 0.437627 0.524905 0.228634
C42   C     C_R   0.323833 0.499034 0.487940 -0.378014
C43   C     C_R   0.673732 0.529329 0.500125 -0.289164
C44   C     C_R   0.300067 0.433399 0.375860 0.618145
F1    F     F_    0.334256 0.358708 0.296265 -0.572885
F2    F     F_    0.646217 0.745266 0.450000 -0.644719
F3    F     F_    0.500157 0.915410 0.758829 -0.598588
F4    F     F_    0.495002 0.085049 0.240836 -0.587537
H1    H     H_    0.499918 0.288250 0.094438 0.282406
H2    H     H_    0.143457 0.066214 0.530240 0.412032
H3    H     H_    0.672975 0.234365 0.002932 0.421655
H4    H     H_    0.350809 0.824859 0.023028 0.407096
H5    H     H_    0.331619 0.229221 0.995288 0.403930
H6    H     H_    0.674513 0.751925 0.002910 0.403882
H7    H     H_    0.057261 0.181300 0.173311 0.395178
H8    H     H_    0.044171 0.902624 0.748265 0.370053
H9    H     H_    0.132440 0.734858 0.788953 0.384373
H10   H     H_    0.911329 0.291430 0.569175 0.411852
H11   H     H_    0.384694 0.815237 0.705520 0.403447
H12   H     H_    0.500724 0.711914 0.905366 0.284001
H13   H     H_    0.614261 0.238169 0.455418 0.328508
H14   H     H_    0.227736 0.419573 0.238425 0.253601
H15   H     H_    0.756510 0.778069 0.399697 0.227917
H16   H     H_    0.584917 0.925835 0.378153 0.285235
H17   H     H_    0.409644 0.078196 0.617040 0.237432
H18   H     H_    0.586177 0.076288 0.617051 0.255752
H19   H     H_    0.409097 0.921255 0.383831 0.245632
H20   H     H_    0.889297 0.171064 0.296897 0.393662
N1    N     N_R   0.848789 0.616811 0.418424 -0.338821
N2    N     N_R   0.145258 0.551949 0.374859 -0.323651
N3    N     N_3   0.499960 0.500030 0.863290 -0.207955
N4    N     N_3   0.500040 0.499970 0.136710 -0.208375
O1    O     O_R   0.500000 0.313960 0.616610 -0.557304
O2    O     O_2   0.129086 0.343990 0.295364 -0.495422
O3    O     O_2   0.828390 0.471054 0.248385 -0.406665
O4    O     O_2   0.164173 0.765236 0.426820 -0.411617
O5    O     O_2   0.874169 0.358341 0.021722 -0.109102
O6    O     O_2   0.946793 0.194680 0.079656 -0.216401
O7    O     O_3   0.865433 0.237728 0.250096 -0.409950
O8    O     O_2   0.108033 0.964217 0.290833 -0.228497
O9    O     O_2   0.031877 0.070987 0.422203 -0.260716
O10   O     O_3   0.124425 0.984123 0.550483 -0.418481
O11   O     O_2   0.587570 0.251754 0.804216 -0.260584
O12   O     O_R   0.500000 0.686040 0.383390 -0.554523
O13   O     O_2   0.651332 0.437607 0.836360 -0.219814
O14   O     O_3   0.638531 0.281521 0.038285 -0.447846
O15   O     O_2   0.339001 0.572175 0.104739 -0.190990
O16   O     O_2   0.404053 0.712292 0.233710 -0.305755
O17   O     O_3   0.382137 0.770310 0.984417 -0.486251
O18   O     O_2   0.346996 0.433910 0.831824 -0.218017
O19   O     O_2   0.414322 0.253387 0.797202 -0.296470
O20   O     O_3   0.365551 0.277082 0.031440 -0.435218
O21   O     O_2   0.591655 0.739685 0.201837 -0.243500
O22   O     O_2   0.652998 0.548271 0.166198 -0.220435
O23   O     O_R   0.500030 0.313950 0.383350 -0.585468
O24   O     O_3   0.639351 0.708220 0.966924 -0.483243
O25   O     O_2   0.009457 0.363883 0.929820 -0.144760
O26   O     O_2   0.105459 0.422601 0.019164 -0.201696
O27   O     O_3   0.067211 0.198369 0.077699 -0.385771
O28   O     O_2   0.923376 0.016643 0.583102 -0.151439
O29   O     O_2   0.933152 0.834494 0.737834 -0.197156
O30   O     O_3   0.023414 0.974864 0.703171 -0.408815
O31   O     O_2   0.116359 0.514089 0.653891 -0.279773
O32   O     O_2   0.199208 0.516061 0.813154 -0.173790
O33   O     O_3   0.161679 0.732233 0.715514 -0.440918
O34   O     O_R   0.499970 0.686050 0.616650 -0.577783
O35   O     O_2   0.871864 0.490844 0.692271 -0.252391
O36   O     O_2   0.805902 0.312487 0.729403 -0.131041
O37   O     O_3   0.873661 0.305781 0.519918 -0.497033
O38   O     O_2   0.273323 0.814072 0.632317 -0.207229
O39   O     O_2   0.295749 0.671027 0.821215 -0.137628
O40   O     O_3   0.379713 0.732614 0.659135 -0.559866
O41   O     O_2   0.757738 0.199525 0.472839 -0.120122
O42   O     O_2   0.686444 0.223760 0.653318 -0.225481
O43   O     O_3   0.650469 0.244747 0.402178 -0.495669
O44   O     O_R   0.416140 0.499970 0.616650 -0.538045
O45   O     O_R   0.583860 0.500030 0.383350 -0.546449
O46   O     O_R   0.416170 0.499960 0.383400 -0.540010
O47   O     O_R   0.583830 0.500040 0.616600 -0.571751
O48   O     O_2   0.856615 0.802619 0.543674 -0.426380
S1    S     S_3+6 0.910554 0.302126 0.135572 0.175905
S2    S     S_3+6 0.832781 0.395891 0.623388 0.158448
S3    S     S_3+6 0.308369 0.698336 0.675237 0.140512
S4    S     S_3+6 0.704036 0.272115 0.516659 0.148386
S5    S     S_3+6 0.075871 0.963141 0.422959 0.133787
S6    S     S_3+6 0.607411 0.352017 0.901667 0.157158
S7    S     S_3+6 0.392899 0.652858 0.098323 0.140404
S8    S     S_3+6 0.393697 0.351416 0.896345 0.137724
S9    S     S_3+6 0.609095 0.638841 0.102598 0.138562
S10   S     S_3+6 0.049992 0.352736 0.050733 0.189239
S11   S     S_3+6 0.963567 0.910706 0.630724 0.178490
S12   S     S_3+6 0.173822 0.576579 0.686942 0.136040
Zn1   Zn    Zn3+2 0.499980 0.500010 0.655740 1.136007
Zn2   Zn    Zn3+2 0.500020 0.499990 0.344260 1.147295

loop_
_geom_bond_atom_site_label_1
_geom_bond_atom_site_label_2
_ccdc_geom_bond_type
C6    N1    S    
H9    O33   S    
C27   C29   A    
C9    H16   S    
C19   N3    S    
O15   S7    D    
H4    O17   S    
O28   S11   D    
C2    F2    S    
O7    S1    S    
C29   C36   A    
O12   Zn2   S    
O47   Zn1   S    
C38   S10   S    
C41   S4    S    
C19   C21   S    
O25   S10   D    
O16   S7    D    
C11   C14   S    
O21   S9    D    
O37   S2    S    
C10   H17   S    
O14   S6    S    
O8    S5    D    
C23   C40   A    
H10   O37   S    
O20   S8    S    
C12   O12   A    
O6    S1    D    
C22   S8    S    
C24   S9    S    
O34   Zn1   S    
C20   C24   S    
H13   O43   S    
C31   C33   A    
C20   N3    S    
C21   S7    S    
O31   S12   D    
H6    O24   S    
O46   Zn2   S    
C17   O45   A    
O42   S4    D    
H20   O7    S    
C40   C42   A    
C34   S2    S    
C21   C22   S    
C41   C43   A    
O13   S6    D    
C34   C41   A    
C42   C44   A    
C15   F4    S    
C27   O3    S    
O45   Zn2   S    
C16   O44   A    
H3    O14   S    
O33   S12   S    
C37   S5    S    
C7    C14   S    
C24   N4    S    
C18   N4    S    
C3    C44   A    
O22   S9    D    
O19   S8    D    
C21   N4    S    
O39   S3    D    
C30   C32   A    
C32   C35   A    
C35   C38   A    
O30   S11   S    
O40   S3    S    
C4    C6    A    
C10   C14   S    
O44   Zn1   S    
O23   Zn2   S    
C6    C34   A    
C30   C37   A    
C2    C4    A    
C17   C43   S    
O10   S5    S    
C20   S6    S    
C5    N2    S    
C16   O46   A    
O38   S3    D    
N4    Zn2   S    
C31   C32   A    
C5    C23   A    
C2    C43   A    
C1    O23   A    
O26   S10   D    
H5    O20   S    
H11   O40   S    
C33   C39   A    
C9    C11   S    
O29   S11   D    
C4    H15   S    
O1    Zn1   S    
C8    C15   S    
C13   C15   S    
C26   N2    A    
C1    C13   S    
O11   S6    D    
C28   O4    S    
C25   O48   S    
C16   C42   S    
C22   N3    S    
C44   F1    S    
H2    O10   S    
O17   S7    S    
C3    H14   S    
C7    C9    S    
C40   S3    S    
O43   S4    S    
O27   S10   S    
O9    S5    D    
C18   C22   S    
C8    C10   S    
C28   N2    A    
O36   S2    D    
C3    C5    A    
C10   C13   S    
C27   N1    A    
N3    Zn1   S    
C11   C12   S    
C14   F3    S    
C19   H12   S    
C1    O1    A    
C28   C30   A    
C19   C24   S    
C9    C15   S    
H8    O30   S    
C29   C31   A    
C7    H18   S    
C12   O34   A    
O41   S4    D    
C39   S11   S    
C8    C11   S    
C36   C38   A    
C26   O2    S    
C23   S12   S    
C36   S1    S    
C18   C20   S    
O5    S1    D    
C17   O47   A    
C26   C35   A    
C7    C13   S    
C25   N1    A    
C8    H19   S    
C37   C39   A    
O32   S12   D    
H7    O27   S    
O18   S8    D    
O35   S2    D    
C18   H1    S    
C25   C33   A    
O24   S9    S    
