data_mof_unit_11046.cif
_audit_creation_date              2012-12-10T18:53:27-0500
_audit_creation_method            fapswitch 2.2
_symmetry_space_group_name_H-M    P1
_symmetry_Int_Tables_number       1
_space_group_crystal_system       triclinic
_cell_length_a                    30.223758
_cell_length_b                    30.223667
_cell_length_c                    21.887351
_cell_angle_alpha                 89.998672
_cell_angle_beta                  89.997026
_cell_angle_gamma                 90.00268
_cell_volume                      19993.4996889

loop_
_atom_site_label
_atom_site_type_symbol
_atom_type_description
_atom_site_fract_x
_atom_site_fract_y
_atom_site_fract_z
_atom_type_partial_charge
C1    C     C_R   0.500051 0.086187 0.999816 1.033866
C2    C     C_R   0.226072 0.497283 0.000903 -0.189930
C3    C     C_R   0.074341 0.595472 0.228087 0.339783
C4    C     C_R   0.402080 0.928899 0.771419 0.337537
C5    C     C_R   0.071129 0.402110 0.771418 0.337577
C6    C     C_R   0.597936 0.071073 0.771394 0.337480
C7    C     C_R   0.928871 0.597892 0.771421 0.337597
C8    C     C_R   0.095489 0.425689 0.728097 0.339792
C9    C     C_R   0.425649 0.904531 0.728098 0.339800
C10   C     C_R   0.904510 0.574315 0.728103 0.339819
C11   C     C_R   0.574370 0.095448 0.728081 0.339757
C12   C     C_R   0.902095 0.428880 0.271423 0.337559
C13   C     C_R   0.497256 0.773927 0.000920 -0.189838
C14   C     C_R   0.571097 0.902089 0.271409 0.337527
C15   C     C_R   0.097914 0.571105 0.271403 0.337529
C16   C     C_R   0.428882 0.097902 0.271420 0.337595
C17   C     C_R   0.521944 0.965914 0.279695 -0.076831
C18   C     C_R   0.965916 0.478044 0.279699 -0.076821
C19   C     C_R   0.478047 0.034085 0.279697 -0.076825
C20   C     C_R   0.034088 0.521946 0.279693 -0.076831
C21   C     C_R   0.477032 0.966591 0.720162 -0.078146
C22   C     C_R   0.033411 0.477044 0.720161 -0.078120
C23   C     C_R   0.522974 0.033400 0.720159 -0.078143
C24   C     C_R   0.773927 0.502698 0.000888 -0.189990
C25   C     C_R   0.966585 0.522957 0.720164 -0.078125
C26   C     C_R   0.021953 0.465919 0.779696 -0.076836
C27   C     C_R   0.465912 0.978050 0.779698 -0.076815
C28   C     C_R   0.978043 0.534082 0.779697 -0.076832
C29   C     C_R   0.534094 0.021936 0.779692 -0.076822
C30   C     C_R   0.977038 0.466587 0.220163 -0.078141
C31   C     C_R   0.533404 0.977037 0.220161 -0.078135
C32   C     C_R   0.022966 0.533406 0.220160 -0.078135
C33   C     C_R   0.466588 0.022962 0.220163 -0.078120
C34   C     C_R   0.499996 0.000000 0.313242 -0.034404
C35   C     C_R   0.002741 0.726073 0.500923 -0.189792
C36   C     C_R   0.000002 0.499995 0.313242 -0.034397
C37   C     C_R   0.500001 0.999997 0.686663 -0.035661
C38   C     C_R   0.999998 0.500000 0.686664 -0.035644
C39   C     C_R   0.999999 0.500001 0.813242 -0.034405
C40   C     C_R   0.500003 0.999994 0.813241 -0.034395
C41   C     C_R   0.000001 0.499998 0.186664 -0.035654
C42   C     C_R   0.499997 0.000000 0.186664 -0.035648
C43   C     C_R   0.518486 0.202673 0.949247 0.382796
C44   C     C_R   0.202670 0.481566 0.949213 0.382635
C45   C     C_R   0.481541 0.797331 0.949230 0.382679
C46   C     C_R   0.726073 0.997250 0.500920 -0.189740
C47   C     C_R   0.797336 0.518421 0.949202 0.382613
C48   C     C_R   0.486356 0.202737 0.052292 0.389899
C49   C     C_R   0.797256 0.486292 0.052246 0.389787
C50   C     C_R   0.513668 0.797260 0.052271 0.389820
C51   C     C_R   0.202738 0.513691 0.052258 0.389795
C52   C     C_R   0.018457 0.702671 0.449230 0.382715
C53   C     C_R   0.702671 0.981536 0.449228 0.382723
C54   C     C_R   0.981559 0.297331 0.449223 0.382631
C55   C     C_R   0.297335 0.018434 0.449208 0.382620
C56   C     C_R   0.986327 0.702737 0.552275 0.389846
C57   C     C_R   0.997274 0.273927 0.500913 -0.189940
C58   C     C_R   0.297256 0.986303 0.552251 0.389786
C59   C     C_R   0.013680 0.297260 0.552268 0.389807
C60   C     C_R   0.702739 0.013667 0.552269 0.389836
C61   C     C_R   0.522109 0.156848 0.952485 0.371127
C62   C     C_R   0.156849 0.477913 0.952474 0.371072
C63   C     C_R   0.477900 0.843153 0.952482 0.371100
C64   C     C_R   0.843155 0.522082 0.952470 0.371070
C65   C     C_R   0.480307 0.157224 0.047903 0.368664
C66   C     C_R   0.842773 0.480268 0.047875 0.368680
C67   C     C_R   0.519707 0.842775 0.047890 0.368662
C68   C     C_R   0.273927 0.002712 0.500895 -0.189960
C69   C     C_R   0.157223 0.519723 0.047880 0.368673
C70   C     C_R   0.022098 0.656849 0.452481 0.371093
C71   C     C_R   0.656848 0.977901 0.452477 0.371100
C72   C     C_R   0.977908 0.343152 0.452481 0.371084
C73   C     C_R   0.343156 0.022088 0.452472 0.371082
C74   C     C_R   0.980290 0.657222 0.547894 0.368679
C75   C     C_R   0.342772 0.980274 0.547877 0.368667
C76   C     C_R   0.019712 0.342777 0.547891 0.368672
C77   C     C_R   0.657225 0.019711 0.547884 0.368659
C78   C     C_R   0.500452 0.134065 0.999784 -0.442848
C79   C     C_R   0.462022 0.296769 0.009679 0.444363
C80   C     C_R   0.134065 0.499560 0.999776 -0.442847
C81   C     C_R   0.499551 0.865935 0.999782 -0.442851
C82   C     C_R   0.865936 0.500437 0.999776 -0.442841
C83   C     C_R   0.000447 0.634065 0.499783 -0.442844
C84   C     C_R   0.634065 0.999555 0.499776 -0.442846
C85   C     C_R   0.999554 0.365936 0.499783 -0.442853
C86   C     C_R   0.365935 0.000440 0.499775 -0.442845
C87   C     C_3   0.588507 0.128068 0.922177 0.125520
C88   C     C_3   0.617823 0.162997 0.891697 -0.272736
C89   C     C_3   0.666798 0.153190 0.902143 -0.938793
C90   C     C_R   0.296785 0.538011 0.009679 0.444475
C91   C     C_3   0.128098 0.411491 0.922213 0.125484
C92   C     C_3   0.163082 0.382194 0.891821 -0.272608
C93   C     C_3   0.153279 0.333214 0.902242 -0.939008
C94   C     C_3   0.411488 0.871915 0.922210 0.125479
C95   C     C_3   0.382183 0.836952 0.891789 -0.272678
C96   C     C_3   0.333205 0.846755 0.902223 -0.938913
C97   C     C_3   0.871901 0.588510 0.922217 0.125461
C98   C     C_3   0.836913 0.617803 0.891834 -0.272601
C99   C     C_3   0.846712 0.666785 0.902249 -0.939025
C100  C     C_3   0.412588 0.131583 0.077866 0.125056
C101  C     C_R   0.537997 0.703224 0.009668 0.444448
C102  C     C_3   0.385299 0.167502 0.109811 -0.271647
C103  C     C_3   0.335813 0.160800 0.099270 -0.942150
C104  C     C_3   0.868415 0.412554 0.077842 0.125136
C105  C     C_3   0.832500 0.385259 0.109795 -0.271643
C106  C     C_3   0.839212 0.335774 0.099268 -0.942164
C107  C     C_3   0.587423 0.868419 0.077847 0.125110
C108  C     C_3   0.614714 0.832500 0.109786 -0.271619
C109  C     C_3   0.664199 0.839207 0.099241 -0.942204
C110  C     C_3   0.131583 0.587440 0.077837 0.125124
C111  C     C_3   0.167502 0.614732 0.109779 -0.271619
C112  C     C_R   0.086186 0.499951 0.999816 1.033856
C113  C     C_R   0.703211 0.461975 0.009669 0.444486
C114  C     C_3   0.160797 0.664217 0.099242 -0.942208
C115  C     C_3   0.088509 0.628087 0.422193 0.125498
C116  C     C_3   0.117814 0.663045 0.391756 -0.272668
C117  C     C_3   0.166792 0.653243 0.402186 -0.938902
C118  C     C_3   0.628078 0.911490 0.422199 0.125516
C119  C     C_3   0.663031 0.882184 0.391761 -0.272675
C120  C     C_3   0.653223 0.833206 0.402200 -0.938901
C121  C     C_3   0.911490 0.371903 0.422216 0.125459
C122  C     C_3   0.882191 0.336922 0.391820 -0.272638
C123  C     C_3   0.833212 0.346722 0.402245 -0.938978
C124  C     C_R   0.541611 0.298034 0.991223 0.447875
C125  C     C_3   0.371908 0.088513 0.422216 0.125464
C126  C     C_3   0.336926 0.117810 0.391825 -0.272618
C127  C     C_3   0.346728 0.166791 0.402244 -0.938996
C128  C     C_3   0.912574 0.631576 0.577859 0.125081
C129  C     C_3   0.885282 0.667489 0.609811 -0.271662
C130  C     C_3   0.835797 0.660781 0.599277 -0.942132
C131  C     C_3   0.368410 0.912557 0.577839 0.125146
C132  C     C_3   0.332490 0.885264 0.609783 -0.271612
C133  C     C_3   0.339199 0.835779 0.599251 -0.942215
C134  C     C_3   0.087422 0.368430 0.577859 0.125075
C135  C     C_R   0.701986 0.541556 0.991135 0.448320
C136  C     C_3   0.114717 0.332518 0.609808 -0.271674
C137  C     C_3   0.164201 0.339230 0.599262 -0.942139
C138  C     C_3   0.631595 0.087433 0.577831 0.125142
C139  C     C_3   0.667523 0.114720 0.609761 -0.271565
C140  C     C_3   0.660825 0.164206 0.599222 -0.942269
C141  C     C_3   0.400018 0.272177 0.962227 0.117212
C142  C     C_3   0.360881 0.240577 0.968323 -0.356404
C143  C     C_3   0.332580 0.240337 0.910612 -0.942108
C144  C     C_3   0.272234 0.600042 0.962251 0.117162
C145  C     C_3   0.240668 0.639201 0.968363 -0.356399
C146  C     C_R   0.458412 0.701972 0.991186 0.448124
C147  C     C_3   0.240460 0.667523 0.910669 -0.942127
C148  C     C_3   0.600011 0.727810 0.962222 0.117269
C149  C     C_3   0.639138 0.759422 0.968314 -0.356407
C150  C     C_3   0.667446 0.759664 0.910606 -0.942103
C151  C     C_3   0.727754 0.399938 0.962253 0.116982
C152  C     C_3   0.759259 0.360733 0.968399 -0.356345
C153  C     C_3   0.759458 0.332410 0.910706 -0.942210
C154  C     C_3   0.602278 0.271567 0.041825 0.149881
C155  C     C_3   0.651077 0.284678 0.037006 -0.297241
C156  C     C_3   0.676850 0.253708 0.995046 -0.829956
C157  C     C_R   0.298018 0.458430 0.991156 0.448253
C158  C     C_3   0.728807 0.602096 0.041698 0.149019
C159  C     C_3   0.715455 0.650848 0.037281 -0.297534
C160  C     C_3   0.746043 0.676860 0.995062 -0.829318
C161  C     C_3   0.397830 0.728659 0.041780 0.149380
C162  C     C_3   0.349054 0.715416 0.037225 -0.297452
C163  C     C_3   0.323141 0.746160 0.995113 -0.829569
C164  C     C_3   0.271240 0.397865 0.041711 0.149129
C165  C     C_3   0.284571 0.349110 0.037233 -0.297497
C166  C     C_3   0.253945 0.323130 0.995034 -0.829364
C167  C     C_3   0.899982 0.772205 0.462245 0.117088
C168  C     C_R   0.962001 0.796776 0.509681 0.444426
C169  C     C_3   0.860808 0.740655 0.468368 -0.356366
C170  C     C_3   0.832499 0.740434 0.410665 -0.942168
C171  C     C_3   0.772214 0.100009 0.462221 0.117215
C172  C     C_3   0.740622 0.139149 0.468310 -0.356427
C173  C     C_3   0.740406 0.167461 0.410607 -0.942080
C174  C     C_3   0.100030 0.227801 0.462250 0.117263
C175  C     C_3   0.139163 0.259404 0.468356 -0.356389
C176  C     C_3   0.167478 0.259646 0.410655 -0.942127
C177  C     C_3   0.227771 0.899957 0.462237 0.117115
C178  C     C_3   0.259325 0.860787 0.468357 -0.356380
C179  C     C_R   0.796778 0.037992 0.509671 0.444419
C180  C     C_3   0.259539 0.832471 0.410660 -0.942152
C181  C     C_3   0.102191 0.771394 0.541773 0.149485
C182  C     C_3   0.150970 0.784613 0.537144 -0.297382
C183  C     C_3   0.176852 0.753818 0.495066 -0.829674
C184  C     C_3   0.228785 0.102109 0.541722 0.149095
C185  C     C_3   0.215459 0.150867 0.537289 -0.297532
C186  C     C_3   0.246080 0.176861 0.495092 -0.829369
C187  C     C_3   0.897870 0.228750 0.541739 0.149152
C188  C     C_3   0.849108 0.215438 0.537277 -0.297523
C189  C     C_3   0.823135 0.246081 0.495093 -0.829395
C190  C     C_R   0.038007 0.203220 0.509678 0.444472
C191  C     C_3   0.771415 0.897782 0.541770 0.149539
C192  C     C_3   0.784631 0.849004 0.537103 -0.297351
C193  C     C_3   0.753821 0.823136 0.495029 -0.829675
C194  C     C_R   0.203214 0.961984 0.509665 0.444485
C195  C     C_R   0.041586 0.798027 0.491186 0.448083
C196  C     C_R   0.499949 0.913813 0.999817 1.033860
C197  C     C_R   0.201983 0.041567 0.491148 0.448272
C198  C     C_R   0.958425 0.201976 0.491165 0.448247
C199  C     C_R   0.798025 0.958406 0.491191 0.448038
C200  C     C_R   0.461761 0.342642 0.014812 0.293233
C201  C     C_R   0.342656 0.538252 0.014830 0.293208
C202  C     C_R   0.538249 0.657351 0.014805 0.293243
C203  C     C_R   0.657339 0.461741 0.014827 0.293187
C204  C     C_R   0.540358 0.343815 0.985643 0.309758
C205  C     C_R   0.656205 0.540326 0.985591 0.310101
C206  C     C_R   0.459655 0.656192 0.985625 0.309983
C207  C     C_R   0.913814 0.500048 0.999817 1.033856
C208  C     C_R   0.343800 0.459665 0.985608 0.310052
C209  C     C_R   0.961752 0.842649 0.514824 0.293205
C210  C     C_R   0.842650 0.038244 0.514816 0.293218
C211  C     C_R   0.038253 0.157348 0.514817 0.293243
C212  C     C_R   0.157342 0.961743 0.514816 0.293214
C213  C     C_R   0.040344 0.843808 0.485621 0.309926
C214  C     C_R   0.156202 0.040333 0.485601 0.310089
C215  C     C_R   0.959663 0.156196 0.485611 0.310065
C216  C     C_R   0.843807 0.959650 0.485630 0.309885
C217  C     C_R   0.500668 0.366414 0.000023 -0.397319
C218  C     C_R   0.000051 0.586186 0.499817 1.033867
C219  C     C_R   0.366414 0.499343 0.000025 -0.397462
C220  C     C_R   0.499339 0.633586 0.000018 -0.397423
C221  C     C_R   0.633586 0.500652 0.000017 -0.397486
C222  C     C_R   0.000660 0.866414 0.500023 -0.397401
C223  C     C_R   0.866414 0.999336 0.500025 -0.397379
C224  C     C_R   0.999343 0.133586 0.500018 -0.397469
C225  C     C_R   0.133586 0.000655 0.500016 -0.397476
C226  C     C_R   0.502228 0.274431 0.000762 -0.297548
C227  C     C_R   0.274430 0.497818 0.000723 -0.297773
C228  C     C_R   0.497797 0.725569 0.000738 -0.297730
C229  C     C_R   0.586187 0.999951 0.499814 1.033853
C230  C     C_R   0.725570 0.502166 0.000707 -0.297815
C231  C     C_R   0.002200 0.774430 0.500742 -0.297682
C232  C     C_R   0.774430 0.997792 0.500739 -0.297637
C233  C     C_R   0.997811 0.225570 0.500732 -0.297799
C234  C     C_R   0.225570 0.002178 0.500713 -0.297806
C235  C     C_R   0.585869 0.500000 0.000000 0.893029
C236  C     C_R   0.500000 0.414131 0.000002 0.893043
C237  C     C_R   0.414131 0.499999 0.000003 0.893025
C238  C     C_R   0.499999 0.585869 0.000001 0.893036
C239  C     C_R   0.085869 0.000001 0.500000 0.893028
C240  C     C_R   0.999949 0.413814 0.499818 1.033864
C241  C     C_R   1.000000 0.914131 0.500002 0.893037
C242  C     C_R   0.914131 0.999999 0.500003 0.893037
C243  C     C_R   0.999999 0.085869 0.500001 0.893025
C244  C     C_R   0.499999 0.000000 0.120346 0.946973
C245  C     C_R   0.000000 0.499999 0.120346 0.946954
C246  C     C_R   0.500001 0.999998 0.879620 0.946790
C247  C     C_R   0.999999 0.500000 0.879620 0.946782
C248  C     C_R   0.999999 0.500000 0.620346 0.946971
C249  C     C_R   0.500000 0.999999 0.620346 0.946953
C250  C     C_R   0.000001 0.499998 0.379620 0.946787
C251  C     C_R   0.413813 0.000049 0.499816 1.033851
C252  C     C_R   0.499998 0.000000 0.379620 0.946784
C253  C     C_R   0.575523 0.962697 0.199039 0.284911
C254  C     C_R   0.962699 0.424467 0.199045 0.284882
C255  C     C_R   0.424469 0.037299 0.199046 0.284865
C256  C     C_R   0.037307 0.575525 0.199039 0.284922
C257  C     C_R   0.423271 0.965182 0.800632 0.281690
C258  C     C_R   0.034835 0.423284 0.800629 0.281741
C259  C     C_R   0.576739 0.034796 0.800616 0.281678
C260  C     C_R   0.965162 0.576717 0.800630 0.281745
C261  C     C_R   0.075534 0.462715 0.699041 0.284848
C262  C     C_R   0.502776 0.226073 0.000944 -0.189605
C263  C     C_R   0.462685 0.924474 0.699043 0.284919
C264  C     C_R   0.924465 0.537288 0.699047 0.284855
C265  C     C_R   0.537327 0.075514 0.699037 0.284981
C266  C     C_R   0.923278 0.465168 0.300634 0.281705
C267  C     C_R   0.534813 0.923274 0.300625 0.281717
C268  C     C_R   0.076728 0.534819 0.300620 0.281705
C269  C     C_R   0.465171 0.076722 0.300629 0.281739
C270  C     C_R   0.595466 0.925662 0.228090 0.339772
C271  C     C_R   0.925667 0.404517 0.228102 0.339822
C272  C     C_R   0.404519 0.074328 0.228102 0.339803
H1    H     H_    0.343922 0.063765 0.203151 0.337363
H2    H     H_    0.563833 0.156051 0.703139 0.337336
H3    H     H_    0.166969 0.607808 0.159620 0.299285
H4    H     H_    0.200493 0.605453 0.091704 0.264242
H5    H     H_    0.162101 0.671956 0.049685 0.247761
H6    H     H_    0.187399 0.682984 0.122744 0.278752
H7    H     H_    0.128355 0.675076 0.117657 0.295150
H8    H     H_    0.098609 0.594992 0.405510 0.169303
H9    H     H_    0.094745 0.627965 0.472546 0.117929
H10   H     H_    0.111008 0.663966 0.341886 0.295875
H11   H     H_    0.110330 0.696061 0.411327 0.259496
H12   H     H_    0.174202 0.652119 0.451831 0.247993
H13   H     H_    0.156084 0.436262 0.703134 0.337369
H14   H     H_    0.187166 0.679610 0.380822 0.278684
H15   H     H_    0.176006 0.620989 0.381632 0.296690
H16   H     H_    0.594981 0.901391 0.405520 0.169297
H17   H     H_    0.627957 0.905254 0.472552 0.117934
H18   H     H_    0.663951 0.888989 0.341890 0.295878
H19   H     H_    0.696049 0.889667 0.411327 0.259498
H20   H     H_    0.652105 0.825797 0.451846 0.247996
H21   H     H_    0.679585 0.812831 0.380831 0.278689
H22   H     H_    0.620965 0.823993 0.381655 0.296677
H23   H     H_    0.901375 0.404988 0.405512 0.169345
H24   H     H_    0.436196 0.843932 0.703149 0.337345
H25   H     H_    0.905262 0.372042 0.472571 0.117887
H26   H     H_    0.888998 0.335976 0.341950 0.295876
H27   H     H_    0.889680 0.303918 0.411427 0.259492
H28   H     H_    0.825804 0.347887 0.451890 0.247946
H29   H     H_    0.812843 0.320331 0.380931 0.278674
H30   H     H_    0.823989 0.378956 0.381638 0.296742
H31   H     H_    0.404992 0.098635 0.405512 0.169354
H32   H     H_    0.372046 0.094736 0.472572 0.117870
H33   H     H_    0.335975 0.111005 0.341955 0.295893
H34   H     H_    0.303923 0.110319 0.411439 0.259489
H35   H     H_    0.158151 0.558377 0.295991 0.337753
H36   H     H_    0.347901 0.174197 0.451888 0.247941
H37   H     H_    0.320334 0.187158 0.380937 0.278672
H38   H     H_    0.378959 0.176016 0.381625 0.296747
H39   H     H_    0.900796 0.598784 0.593548 0.169757
H40   H     H_    0.906186 0.632555 0.527559 0.112323
H41   H     H_    0.892205 0.666952 0.659652 0.299241
H42   H     H_    0.894560 0.700483 0.591742 0.264256
H43   H     H_    0.828057 0.662090 0.549721 0.247746
H44   H     H_    0.817029 0.687378 0.622789 0.278756
H45   H     H_    0.824937 0.628335 0.617684 0.295157
H46   H     H_    0.441601 0.158141 0.296016 0.337731
H47   H     H_    0.401199 0.900779 0.593530 0.169759
H48   H     H_    0.367438 0.906171 0.527537 0.112299
H49   H     H_    0.333018 0.892189 0.659623 0.299277
H50   H     H_    0.299500 0.894540 0.591705 0.264239
H51   H     H_    0.337899 0.828038 0.549695 0.247763
H52   H     H_    0.312596 0.817011 0.622755 0.278754
H53   H     H_    0.371640 0.824922 0.617668 0.295139
H54   H     H_    0.099195 0.401222 0.593548 0.169756
H55   H     H_    0.093814 0.367455 0.527558 0.112323
H56   H     H_    0.107796 0.333056 0.659650 0.299237
H57   H     H_    0.841857 0.441599 0.296025 0.337732
H58   H     H_    0.105440 0.299523 0.591745 0.264261
H59   H     H_    0.171939 0.337917 0.549705 0.247755
H60   H     H_    0.182971 0.312635 0.622775 0.278765
H61   H     H_    0.175059 0.371677 0.617660 0.295152
H62   H     H_    0.598811 0.099221 0.593526 0.169783
H63   H     H_    0.632567 0.093815 0.527528 0.112273
H64   H     H_    0.666997 0.107799 0.659602 0.299322
H65   H     H_    0.700511 0.105435 0.591677 0.264240
H66   H     H_    0.662121 0.171943 0.549664 0.247774
H67   H     H_    0.687435 0.182969 0.622713 0.278749
H68   H     H_    0.558364 0.841851 0.296002 0.337753
H69   H     H_    0.628389 0.175072 0.617649 0.295145
H70   H     H_    0.421558 0.260111 0.924276 0.120377
H71   H     H_    0.387357 0.305798 0.950828 0.195107
H72   H     H_    0.373503 0.206593 0.976733 0.218938
H73   H     H_    0.340104 0.250667 0.007848 0.240345
H74   H     H_    0.319325 0.273963 0.901399 0.275160
H75   H     H_    0.304348 0.217252 0.916745 0.267757
H76   H     H_    0.352494 0.229205 0.870820 0.274681
H77   H     H_    0.260153 0.578523 0.924288 0.120404
H78   H     H_    0.305867 0.612681 0.950862 0.195068
H79   H     H_    0.619649 0.970105 0.135375 0.320977
H80   H     H_    0.206672 0.626602 0.976759 0.218965
H81   H     H_    0.250770 0.659956 0.007903 0.240343
H82   H     H_    0.274099 0.680756 0.901471 0.275212
H83   H     H_    0.217399 0.695771 0.916813 0.267746
H84   H     H_    0.229317 0.647632 0.870863 0.274669
H85   H     H_    0.578474 0.739866 0.924264 0.120358
H86   H     H_    0.612682 0.694191 0.950835 0.195134
H87   H     H_    0.626505 0.793403 0.976715 0.218938
H88   H     H_    0.659912 0.749342 0.007844 0.240341
H89   H     H_    0.680711 0.726041 0.901401 0.275151
H90   H     H_    0.970104 0.380346 0.135378 0.320977
H91   H     H_    0.695672 0.782756 0.916737 0.267761
H92   H     H_    0.647535 0.770788 0.870810 0.274680
H93   H     H_    0.739887 0.421442 0.924303 0.120493
H94   H     H_    0.694110 0.387346 0.950829 0.194890
H95   H     H_    0.793269 0.373283 0.976824 0.219007
H96   H     H_    0.749105 0.339992 0.007930 0.240335
H97   H     H_    0.725805 0.319225 0.901481 0.275271
H98   H     H_    0.782476 0.304130 0.916872 0.267732
H99   H     H_    0.770651 0.352285 0.870909 0.274668
H100  H     H_    0.599663 0.236462 0.056565 0.128079
H101  H     H_    0.380347 0.029892 0.135382 0.320977
H102  H     H_    0.587332 0.292185 0.078933 0.082065
H103  H     H_    0.653743 0.319142 0.019648 0.275945
H104  H     H_    0.666193 0.283607 0.083278 0.172334
H105  H     H_    0.674301 0.219158 0.011837 0.245440
H106  H     H_    0.712281 0.263344 0.994718 0.243005
H107  H     H_    0.663950 0.255718 0.947630 0.294672
H108  H     H_    0.764033 0.599602 0.055916 0.128339
H109  H     H_    0.708542 0.586968 0.079040 0.081507
H110  H     H_    0.680868 0.653406 0.020365 0.276271
H111  H     H_    0.716762 0.665853 0.083611 0.172289
H112  H     H_    0.063786 0.656071 0.203138 0.337351
H113  H     H_    0.029899 0.619652 0.135378 0.320979
H114  H     H_    0.780696 0.674488 0.011483 0.245329
H115  H     H_    0.736207 0.712235 0.994942 0.242921
H116  H     H_    0.743852 0.664017 0.947630 0.294718
H117  H     H_    0.400387 0.763838 0.056199 0.128232
H118  H     H_    0.412884 0.708251 0.079027 0.081735
H119  H     H_    0.346440 0.680876 0.020139 0.276104
H120  H     H_    0.334013 0.716637 0.083538 0.172308
H121  H     H_    0.325597 0.780773 0.011676 0.245370
H122  H     H_    0.287741 0.736413 0.994926 0.242955
H123  H     H_    0.335999 0.744034 0.947683 0.294694
H124  H     H_    0.379299 0.974043 0.864137 0.320969
H125  H     H_    0.236028 0.400365 0.055993 0.128309
H126  H     H_    0.291543 0.412968 0.079029 0.081569
H127  H     H_    0.319145 0.346548 0.020266 0.276249
H128  H     H_    0.283289 0.334083 0.083552 0.172287
H129  H     H_    0.219302 0.325513 0.011498 0.245342
H130  H     H_    0.263764 0.287750 0.994879 0.242925
H131  H     H_    0.256117 0.335989 0.947608 0.294719
H132  H     H_    0.921504 0.760103 0.424297 0.120440
H133  H     H_    0.887359 0.805838 0.450829 0.194981
H134  H     H_    0.873391 0.706658 0.476791 0.218973
H135  H     H_    0.025982 0.379306 0.864130 0.320970
H136  H     H_    0.840049 0.750779 0.507894 0.240340
H137  H     H_    0.819282 0.774074 0.401441 0.275217
H138  H     H_    0.804240 0.717384 0.416816 0.267744
H139  H     H_    0.852394 0.729270 0.370873 0.274675
H140  H     H_    0.760153 0.078477 0.424260 0.120374
H141  H     H_    0.805841 0.112667 0.450839 0.195140
H142  H     H_    0.706632 0.126530 0.476699 0.218943
H143  H     H_    0.750704 0.159916 0.507847 0.240347
H144  H     H_    0.774037 0.180714 0.401416 0.275178
H145  H     H_    0.717325 0.195695 0.416735 0.267751
H146  H     H_    0.620708 0.025931 0.864117 0.320966
H147  H     H_    0.729282 0.147557 0.370804 0.274672
H148  H     H_    0.078501 0.239864 0.424288 0.120363
H149  H     H_    0.112696 0.194180 0.450863 0.195115
H150  H     H_    0.126536 0.293387 0.476760 0.218947
H151  H     H_    0.159930 0.249317 0.507890 0.240338
H152  H     H_    0.180737 0.226021 0.401447 0.275166
H153  H     H_    0.195708 0.282732 0.416796 0.267759
H154  H     H_    0.147574 0.270778 0.370856 0.274677
H155  H     H_    0.239869 0.921475 0.424281 0.120430
H156  H     H_    0.194138 0.887328 0.450834 0.195009
H157  H     H_    0.974016 0.620695 0.864126 0.320970
H158  H     H_    0.293322 0.873376 0.476767 0.218975
H159  H     H_    0.249206 0.840032 0.507891 0.240339
H160  H     H_    0.225900 0.819248 0.401449 0.275219
H161  H     H_    0.282591 0.804216 0.416809 0.267743
H162  H     H_    0.270699 0.852362 0.370861 0.274672
H163  H     H_    0.099626 0.736232 0.556270 0.128199
H164  H     H_    0.087162 0.791849 0.578989 0.081806
H165  H     H_    0.153591 0.819134 0.519990 0.276086
H166  H     H_    0.166031 0.783430 0.583445 0.172315
H167  H     H_    0.174379 0.719219 0.511684 0.245390
H168  H     H_    0.119653 0.470130 0.635370 0.320976
H169  H     H_    0.212258 0.763543 0.494838 0.242968
H170  H     H_    0.163983 0.755915 0.447641 0.294690
H171  H     H_    0.264002 0.099597 0.555974 0.128317
H172  H     H_    0.208492 0.086994 0.579045 0.081554
H173  H     H_    0.180882 0.153442 0.520343 0.276220
H174  H     H_    0.216754 0.165874 0.583618 0.172295
H175  H     H_    0.280726 0.174469 0.511538 0.245335
H176  H     H_    0.236265 0.212242 0.494965 0.242932
H177  H     H_    0.243899 0.164020 0.447659 0.294712
H178  H     H_    0.900390 0.263960 0.556025 0.128303
H179  H     H_    0.470086 0.880347 0.635382 0.320975
H180  H     H_    0.912969 0.208435 0.579047 0.081590
H181  H     H_    0.846527 0.180867 0.520304 0.276203
H182  H     H_    0.834090 0.216719 0.583601 0.172294
H183  H     H_    0.825540 0.280721 0.511562 0.245342
H184  H     H_    0.787751 0.236277 0.494951 0.242930
H185  H     H_    0.835985 0.243910 0.447662 0.294710
H186  H     H_    0.736260 0.900339 0.556301 0.128183
H187  H     H_    0.791888 0.912799 0.578976 0.081833
H188  H     H_    0.819146 0.846391 0.519924 0.276097
H189  H     H_    0.783463 0.833925 0.583395 0.172309
H190  H     H_    0.880346 0.529877 0.635381 0.320978
H191  H     H_    0.719228 0.825603 0.511669 0.245395
H192  H     H_    0.763544 0.787729 0.494775 0.242966
H193  H     H_    0.755905 0.836022 0.447609 0.294696
H194  H     H_    0.428234 0.393324 0.045599 0.350602
H195  H     H_    0.393347 0.571752 0.045653 0.350652
H196  H     H_    0.571767 0.606662 0.045591 0.350611
H197  H     H_    0.606644 0.428249 0.045664 0.350672
H198  H     H_    0.572686 0.395524 0.955600 0.346623
H199  H     H_    0.604503 0.572675 0.955585 0.346581
H200  H     H_    0.427317 0.604485 0.955605 0.346592
H201  H     H_    0.529927 0.119649 0.635383 0.320979
H202  H     H_    0.395506 0.427321 0.955598 0.346590
H203  H     H_    0.928242 0.893335 0.545636 0.350635
H204  H     H_    0.893336 0.071759 0.545621 0.350626
H205  H     H_    0.071762 0.106656 0.545612 0.350627
H206  H     H_    0.106648 0.928242 0.545636 0.350647
H207  H     H_    0.072681 0.895515 0.455592 0.346605
H208  H     H_    0.104499 0.072680 0.455593 0.346576
H209  H     H_    0.927322 0.104489 0.455593 0.346588
H210  H     H_    0.895514 0.927315 0.455608 0.346608
H211  H     H_    0.879303 0.474024 0.364138 0.320969
H212  H     H_    0.656065 0.936217 0.203135 0.337353
H213  H     H_    0.525951 0.879299 0.364127 0.320967
H214  H     H_    0.120701 0.525963 0.364119 0.320969
H215  H     H_    0.474029 0.120697 0.364129 0.320970
H216  H     H_    0.516380 0.252387 0.892500 0.340009
H217  H     H_    0.252371 0.483704 0.892449 0.340018
H218  H     H_    0.483664 0.747627 0.892471 0.340013
H219  H     H_    0.747643 0.516278 0.892432 0.340013
H220  H     H_    0.490514 0.251970 0.109564 0.339069
H221  H     H_    0.748018 0.490451 0.109514 0.339086
H222  H     H_    0.509509 0.748023 0.109541 0.339074
H223  H     H_    0.936225 0.343920 0.203146 0.337354
H224  H     H_    0.251969 0.509527 0.109530 0.339082
H225  H     H_    0.016334 0.752378 0.392473 0.340008
H226  H     H_    0.752380 0.983654 0.392473 0.340019
H227  H     H_    0.983697 0.247632 0.392459 0.340012
H228  H     H_    0.247640 0.016299 0.392441 0.340016
H229  H     H_    0.990485 0.751971 0.609546 0.339077
H230  H     H_    0.248018 0.990462 0.609519 0.339082
H231  H     H_    0.009518 0.248024 0.609537 0.339081
H232  H     H_    0.751969 0.009505 0.609542 0.339073
H233  H     H_    0.598588 0.094960 0.905518 0.169250
H234  H     H_    0.658170 0.058322 0.795978 0.337782
H235  H     H_    0.594756 0.127966 0.972527 0.117988
H236  H     H_    0.611018 0.163886 0.841825 0.295855
H237  H     H_    0.610345 0.196028 0.911222 0.259505
H238  H     H_    0.674209 0.152120 0.951790 0.248039
H239  H     H_    0.687180 0.179527 0.880721 0.278700
H240  H     H_    0.676001 0.120909 0.881658 0.296634
H241  H     H_    0.095015 0.401371 0.905508 0.169351
H242  H     H_    0.127955 0.405265 0.972569 0.117877
H243  H     H_    0.164034 0.389001 0.841951 0.295895
H244  H     H_    0.196084 0.389685 0.911432 0.259492
H245  H     H_    0.941582 0.658133 0.796014 0.337723
H246  H     H_    0.152107 0.325806 0.951887 0.247946
H247  H     H_    0.179672 0.312847 0.880931 0.278674
H248  H     H_    0.121048 0.323989 0.881629 0.296737
H249  H     H_    0.401384 0.905008 0.905521 0.169315
H250  H     H_    0.405254 0.872041 0.972564 0.117916
H251  H     H_    0.388989 0.836024 0.841918 0.295866
H252  H     H_    0.389667 0.803938 0.911370 0.259494
H253  H     H_    0.325796 0.847891 0.951869 0.247974
H254  H     H_    0.312831 0.820381 0.880877 0.278683
H255  H     H_    0.323989 0.879004 0.881653 0.296710
H256  H     H_    0.341845 0.941632 0.796019 0.337748
H257  H     H_    0.904983 0.598637 0.905509 0.169365
H258  H     H_    0.872043 0.594731 0.972573 0.117862
H259  H     H_    0.835956 0.610997 0.841965 0.295900
H260  H     H_    0.803913 0.610309 0.911456 0.259490
H261  H     H_    0.847894 0.674191 0.951893 0.247933
H262  H     H_    0.820312 0.687149 0.880953 0.278669
H263  H     H_    0.878938 0.676013 0.881618 0.296757
H264  H     H_    0.400805 0.098794 0.093557 0.169772
H265  H     H_    0.406202 0.132558 0.027565 0.112310
H266  H     H_    0.392218 0.166966 0.159652 0.299248
H267  H     H_    0.058419 0.341869 0.796017 0.337726
H268  H     H_    0.394584 0.200493 0.091740 0.264266
H269  H     H_    0.328078 0.162108 0.049713 0.247756
H270  H     H_    0.317048 0.187401 0.122776 0.278759
H271  H     H_    0.324948 0.128357 0.117679 0.295157
H272  H     H_    0.901206 0.400779 0.093530 0.169747
H273  H     H_    0.867438 0.406165 0.027542 0.112320
H274  H     H_    0.833031 0.392187 0.159634 0.299252
H275  H     H_    0.799507 0.394531 0.091721 0.264238
H276  H     H_    0.837908 0.328030 0.049713 0.247748
H277  H     H_    0.812613 0.317005 0.122780 0.278749
H278  H     H_    0.843915 0.563745 0.703150 0.337366
H279  H     H_    0.871656 0.324921 0.117680 0.295147
H280  H     H_    0.599202 0.901208 0.093540 0.169770
H281  H     H_    0.593810 0.867448 0.027545 0.112299
H282  H     H_    0.607793 0.833030 0.159628 0.299276
H283  H     H_    0.605433 0.799509 0.091713 0.264254
H284  H     H_    0.671935 0.837904 0.049683 0.247767
H285  H     H_    0.682966 0.812606 0.122743 0.278759
H286  H     H_    0.675061 0.871650 0.117652 0.295145
H287  H     H_    0.098794 0.599219 0.093528 0.169764
H288  H     H_    0.132559 0.593826 0.027535 0.112300
O1    O     O_R   0.463050 0.065470 0.999990 -0.633904
O2    O     O_R   0.565470 0.036950 0.499990 -0.633891
O3    O     O_3   0.865844 0.543431 0.906118 -0.603778
O4    O     O_3   0.457975 0.135008 0.093790 -0.604516
O5    O     O_3   0.864987 0.457942 0.093765 -0.604523
O6    O     O_3   0.542035 0.864990 0.093777 -0.604511
O7    O     O_3   0.135006 0.542052 0.093766 -0.604517
O8    O     O_3   0.043429 0.634164 0.406114 -0.603813
O9    O     O_3   0.634160 0.956570 0.406114 -0.603814
O10   O     O_3   0.956569 0.365837 0.406122 -0.603785
O11   O     O_3   0.365845 0.043434 0.406118 -0.603782
O12   O     O_3   0.957961 0.635004 0.593783 -0.604524
O13   O     O_R   0.036950 0.434530 0.499990 -0.633916
O14   O     O_3   0.364984 0.957945 0.593765 -0.604516
O15   O     O_3   0.042034 0.364994 0.593782 -0.604521
O16   O     O_3   0.635011 0.042046 0.593766 -0.604505
O17   O     O_3   0.423261 0.273231 0.018159 -0.588705
O18   O     O_3   0.273263 0.576778 0.018171 -0.588649
O19   O     O_3   0.576761 0.726756 0.018152 -0.588670
O20   O     O_3   0.726727 0.423206 0.018168 -0.588618
O21   O     O_3   0.581518 0.276237 0.984098 -0.565356
O22   O     O_3   0.723798 0.581451 0.983945 -0.565252
O23   O     O_3   0.418510 0.723773 0.984030 -0.565275
O24   O     O_R   0.434530 0.963050 0.499990 -0.633894
O25   O     O_3   0.276209 0.418534 0.983966 -0.565267
O26   O     O_3   0.923236 0.773246 0.518170 -0.588661
O27   O     O_3   0.773249 0.076756 0.518149 -0.588700
O28   O     O_3   0.076772 0.226749 0.518174 -0.588636
O29   O     O_3   0.226734 0.923216 0.518158 -0.588639
O30   O     O_3   0.081488 0.776225 0.484032 -0.565300
O31   O     O_3   0.223792 0.081464 0.483967 -0.565251
O32   O     O_3   0.918527 0.223779 0.483986 -0.565249
O33   O     O_3   0.776220 0.918505 0.484036 -0.565323
O34   O     O_3   0.422710 0.362413 0.033141 -0.720032
O35   O     O_R   0.036950 0.565470 0.500010 -0.639334
O36   O     O_3   0.362439 0.577289 0.033195 -0.719975
O37   O     O_3   0.577294 0.637574 0.033139 -0.720026
O38   O     O_3   0.637552 0.422708 0.033205 -0.719969
O39   O     O_3   0.578958 0.364736 0.967948 -0.713072
O40   O     O_3   0.635302 0.578932 0.967894 -0.712888
O41   O     O_3   0.421052 0.635277 0.967938 -0.712929
O42   O     O_3   0.364708 0.421061 0.967912 -0.712919
O43   O     O_3   0.922710 0.862425 0.533177 -0.720006
O44   O     O_3   0.862428 0.077288 0.533160 -0.720002
O45   O     O_3   0.077293 0.137568 0.533165 -0.719998
O46   O     O_R   0.434530 0.036950 0.500010 -0.639336
O47   O     O_3   0.137557 0.922706 0.533179 -0.719984
O48   O     O_3   0.078946 0.864722 0.467923 -0.712972
O49   O     O_3   0.135296 0.078939 0.467910 -0.712886
O50   O     O_3   0.921060 0.135284 0.467916 -0.712885
O51   O     O_3   0.864721 0.921049 0.467939 -0.713014
O52   O     O_R   0.963050 0.434530 0.500010 -0.639328
O53   O     O_R   0.565470 0.963050 0.500010 -0.639344
O54   O     O_R   0.463050 0.999990 0.091600 -0.578228
O55   O     O_R   0.999990 0.536950 0.091600 -0.578228
O56   O     O_R   0.536950 0.000010 0.091600 -0.578227
O57   O     O_R   0.065470 0.536950 0.999990 -0.633902
O58   O     O_R   0.000010 0.463050 0.091600 -0.578232
O59   O     O_R   0.536950 0.999990 0.908400 -0.579995
O60   O     O_R   0.000010 0.536950 0.908400 -0.579952
O61   O     O_R   0.463050 0.000010 0.908400 -0.579964
O62   O     O_R   0.999990 0.463050 0.908400 -0.579963
O63   O     O_R   0.963050 0.499990 0.591600 -0.578236
O64   O     O_R   0.499990 0.036950 0.591600 -0.578215
O65   O     O_R   0.036950 0.500010 0.591600 -0.578243
O66   O     O_R   0.500010 0.963050 0.591600 -0.578220
O67   O     O_R   0.036950 0.499990 0.408400 -0.579974
O68   O     O_R   0.536950 0.934530 0.999990 -0.633901
O69   O     O_R   0.500010 0.036950 0.408400 -0.579958
O70   O     O_R   0.963050 0.500010 0.408400 -0.579956
O71   O     O_R   0.499990 0.963050 0.408400 -0.579984
O72   O     O_R   0.565470 0.500020 0.051710 -0.618497
O73   O     O_R   0.500020 0.434530 0.051710 -0.618509
O74   O     O_R   0.434530 0.499980 0.051710 -0.618496
O75   O     O_R   0.499980 0.565470 0.051710 -0.618486
O76   O     O_R   0.434530 0.500020 0.948290 -0.619944
O77   O     O_R   0.499980 0.434530 0.948290 -0.619940
O78   O     O_R   0.565470 0.499980 0.948290 -0.619954
O79   O     O_R   0.934530 0.463050 0.999990 -0.633901
O80   O     O_R   0.500020 0.565470 0.948290 -0.619942
O81   O     O_R   0.065470 0.000020 0.551710 -0.618489
O82   O     O_R   0.000020 0.934530 0.551710 -0.618507
O83   O     O_R   0.934530 0.999980 0.551710 -0.618504
O84   O     O_R   0.999980 0.065470 0.551710 -0.618482
O85   O     O_R   0.934530 0.000020 0.448290 -0.619941
O86   O     O_R   0.999980 0.934530 0.448290 -0.619946
O87   O     O_R   0.065470 0.999980 0.448290 -0.619949
O88   O     O_R   0.000020 0.065470 0.448290 -0.619945
O89   O     O_3   0.362689 0.089403 0.213996 -0.744757
O90   O     O_R   0.536950 0.065470 0.000010 -0.639349
O91   O     O_3   0.089422 0.637301 0.213976 -0.744815
O92   O     O_3   0.637293 0.910582 0.213978 -0.744809
O93   O     O_3   0.910589 0.362687 0.213993 -0.744764
O94   O     O_3   0.640317 0.084629 0.785245 -0.744583
O95   O     O_3   0.915286 0.640259 0.785292 -0.744637
O96   O     O_3   0.359706 0.915330 0.785287 -0.744591
O97   O     O_3   0.084715 0.359744 0.785291 -0.744634
O98   O     O_3   0.862679 0.589385 0.713997 -0.744744
O99   O     O_3   0.589463 0.137272 0.713968 -0.744883
O100  O     O_3   0.137322 0.410622 0.713987 -0.744743
O101  O     O_R   0.934530 0.536950 0.000010 -0.639327
O102  O     O_3   0.410562 0.862705 0.713989 -0.744800
O103  O     O_3   0.140287 0.584678 0.285263 -0.744610
O104  O     O_3   0.415303 0.140271 0.285292 -0.744629
O105  O     O_3   0.859724 0.415301 0.285296 -0.744610
O106  O     O_3   0.584666 0.859715 0.285272 -0.744604
O107  O     O_3   0.599148 0.988929 0.159147 -0.720433
O108  O     O_3   0.988929 0.400847 0.159148 -0.720437
O109  O     O_3   0.400848 0.011069 0.159151 -0.720439
O110  O     O_3   0.011076 0.599149 0.159149 -0.720446
O111  O     O_3   0.400514 0.992178 0.840520 -0.720213
O112  O     O_R   0.463050 0.934530 0.000010 -0.639338
O113  O     O_3   0.007844 0.400515 0.840516 -0.720212
O114  O     O_3   0.599490 0.007798 0.840507 -0.720214
O115  O     O_3   0.992153 0.599484 0.840513 -0.720215
O116  O     O_3   0.099152 0.488951 0.659146 -0.720430
O117  O     O_3   0.488912 0.900849 0.659148 -0.720438
O118  O     O_3   0.900847 0.511055 0.659153 -0.720438
O119  O     O_3   0.511101 0.099145 0.659150 -0.720451
O120  O     O_3   0.900515 0.492160 0.340520 -0.720213
O121  O     O_3   0.507817 0.900513 0.340514 -0.720213
O122  O     O_3   0.099487 0.507826 0.340508 -0.720214
O123  O     O_R   0.065470 0.463050 0.000010 -0.639328
O124  O     O_3   0.492164 0.099486 0.340513 -0.720212
O125  O     O_3   0.530694 0.223023 0.895244 -0.710974
O126  O     O_3   0.223016 0.469371 0.895204 -0.710844
O127  O     O_3   0.469339 0.776985 0.895224 -0.710898
O128  O     O_3   0.776996 0.530616 0.895191 -0.710832
O129  O     O_3   0.475303 0.223045 0.106795 -0.710317
O130  O     O_3   0.776941 0.475239 0.106746 -0.710300
O131  O     O_3   0.524720 0.776948 0.106772 -0.710302
O132  O     O_3   0.223047 0.524742 0.106759 -0.710290
O133  O     O_3   0.030659 0.723020 0.395224 -0.710906
O134  O     O_R   0.963050 0.565470 0.499990 -0.633907
O135  O     O_3   0.723018 0.969333 0.395223 -0.710915
O136  O     O_3   0.969364 0.276986 0.395214 -0.710856
O137  O     O_3   0.276995 0.030633 0.395199 -0.710851
O138  O     O_3   0.975274 0.723046 0.606777 -0.710314
O139  O     O_3   0.276941 0.975249 0.606751 -0.710297
O140  O     O_3   0.024729 0.276949 0.606770 -0.710298
O141  O     O_3   0.723047 0.024719 0.606770 -0.710295
O142  O     O_3   0.543428 0.134160 0.906109 -0.603845
O143  O     O_3   0.134164 0.456570 0.906118 -0.603780
O144  O     O_3   0.456567 0.865840 0.906120 -0.603804
Zn1   Zn    Zn3+2 0.450650 0.000000 0.000000 0.992453
Zn2   Zn    Zn3+2 0.500000 0.500000 0.930940 0.977918
Zn3   Zn    Zn3+2 1.000000 0.000000 0.569060 0.979488
Zn4   Zn    Zn3+2 1.000000 0.000000 0.430940 0.977919
Zn5   Zn    Zn3+2 0.000000 0.549350 0.000000 0.992467
Zn6   Zn    Zn3+2 0.549350 0.000000 0.000000 0.992433
Zn7   Zn    Zn3+2 0.000000 0.450650 0.000000 0.992460
Zn8   Zn    Zn3+2 0.950650 0.500000 0.500000 0.992454
Zn9   Zn    Zn3+2 0.500000 0.049350 0.500000 0.992474
Zn10  Zn    Zn3+2 0.049350 0.500000 0.500000 0.992437
Zn11  Zn    Zn3+2 0.500000 0.950650 0.500000 0.992452
Zn12  Zn    Zn3+2 0.500000 0.500000 0.069060 0.979482

loop_
_geom_bond_atom_site_label_1
_geom_bond_atom_site_label_2
_ccdc_geom_bond_type
H218  O127  S    
C182  H166  S    
C126  C127  S    
C31   C42   A    
C106  H276  S    
C236  O77   A    
C180  H160  S    
C109  H284  S    
C74   C83   A    
C87   C88   S    
C7    O95   S    
C16   C269  A    
C260  O115  S    
C113  C230  A    
C174  H148  S    
C129  H42   S    
C143  H74   S    
C132  H50   S    
C103  H271  S    
C195  O30   S    
C264  O118  S    
C104  H272  S    
C246  O61   A    
C123  H29   S    
O88   Zn4   S    
H90   O108  S    
C89   H238  S    
C45   O127  S    
C154  H100  S    
C124  C226  A    
C57   C59   A    
C112  O123  A    
C22   C38   A    
C106  H277  S    
C186  H175  S    
C75   O14   S    
C108  C109  S    
O55   Zn5   S    
C108  H283  S    
C119  H19   S    
C104  H273  S    
C87   H233  S    
C110  C111  S    
C137  H59   S    
C159  H110  S    
H224  O132  S    
C125  H32   S    
C193  H193  S    
C21   C263  A    
C253  O107  S    
C60   O141  S    
C212  O47   S    
C36   C250  S    
C164  H125  S    
C166  H129  S    
C185  H173  S    
C250  O67   A    
C148  H85   S    
C48   C65   A    
C249  O64   A    
C242  O83   A    
C184  H171  S    
H217  O126  S    
C244  O54   A    
C138  H62   S    
C131  H48   S    
C14   O106  S    
C209  C222  A    
C99   H261  S    
C220  C238  S    
O64   Zn9   S    
C194  C234  A    
C124  O21   S    
C104  C105  S    
C104  O5    S    
C127  H37   S    
C156  H106  S    
C5    O97   S    
C145  C147  S    
C191  C192  S    
C33   C255  A    
C201  C219  A    
C15   C268  A    
C243  O88   A    
H57   O105  S    
C47   C64   A    
C18   C266  A    
C83   C218  S    
C229  O53   A    
H135  O113  S    
C23   C37   A    
C6    C259  A    
C177  H156  S    
C193  H191  S    
C187  H180  S    
C5    C8    A    
O68   Zn6   S    
C213  C222  A    
C167  H133  S    
C75   C86   A    
C40   C246  S    
C175  C176  S    
C253  C270  A    
C207  O101  A    
C239  O87   A    
C80   C112  S    
C170  H139  S    
C158  H109  S    
O46   Zn9   S    
C173  H144  S    
C154  C155  S    
H46   O104  S    
C162  H119  S    
C87   O142  S    
C212  C225  A    
C73   O11   S    
H112  O91   S    
C168  O26   S    
C243  O84   A    
C183  H169  S    
O53   Zn11  S    
C134  H55   S    
C225  C239  S    
C180  H162  S    
C17   C34   A    
C107  O6    S    
C51   O132  S    
C53   C71   A    
O54   Zn1   S    
C43   C61   A    
O2    Zn9   S    
C86   C251  S    
H198  O39   S    
C103  H269  S    
C79   C200  A    
C46   C60   A    
C271  O93   S    
C240  O13   A    
O56   Zn6   S    
C246  O59   A    
C242  O85   A    
C160  H115  S    
C101  O19   S    
C44   O126  S    
C144  C145  S    
C89   H240  S    
C43   C262  A    
C133  H53   S    
C139  C140  S    
C247  O62   A    
C62   O143  S    
C191  H186  S    
C97   H258  S    
C184  H172  S    
C88   H236  S    
C141  H71   S    
C135  O22   S    
C136  H58   S    
C50   O131  S    
C120  H22   S    
C145  H80   S    
C137  H61   S    
C110  H287  S    
C100  H264  S    
C13   C45   A    
C219  C237  S    
C184  O31   S    
O77   Zn2   S    
C127  H36   S    
C46   C53   A    
C66   O5    S    
C45   C63   A    
H229  O138  S    
C113  C203  A    
C163  H122  S    
C249  O66   A    
C213  O48   S    
C12   C266  A    
C97   O3    S    
C194  C212  A    
C211  O45   S    
C257  O111  S    
C210  O44   S    
C88   C89   S    
C98   C99   S    
O76   Zn2   S    
C155  C156  S    
C151  H94   S    
C107  H280  S    
C116  H11   S    
H205  O45   S    
H212  O92   S    
C122  H26   S    
C1    O1    A    
C76   C85   A    
H225  O133  S    
C197  C214  A    
C167  H132  S    
C65   O4    S    
C144  H78   S    
C12   C271  A    
C128  C129  S    
H179  O117  S    
C15   O103  S    
C72   C85   A    
C142  H72   S    
C19   C269  A    
C153  H98   S    
C205  C221  A    
C29   C259  A    
C98   H260  S    
O75   Zn12  S    
C71   O9    S    
C33   C42   A    
C23   C29   A    
C189  H184  S    
C62   C80   A    
C53   O135  S    
C206  O41   S    
C218  O35   A    
O63   Zn8   S    
H190  O118  S    
C143  H75   S    
C115  C116  S    
C254  C271  A    
C170  H137  S    
C184  C185  S    
H231  O140  S    
C177  H155  S    
H210  O51   S    
H228  O137  S    
C202  C220  A    
O60   Zn5   S    
C175  H150  S    
C255  O109  S    
C174  C175  S    
H278  O98   S    
C169  H134  S    
C92   H244  S    
O87   Zn4   S    
C182  C183  S    
C2    C44   A    
C135  C230  A    
C134  O15   S    
C32   C41   A    
C118  H17   S    
C108  H282  S    
C238  O75   A    
C50   C67   A    
H207  O48   S    
C152  H96   S    
C125  O11   S    
C241  O86   A    
C208  C219  A    
C115  O8    S    
C91   H242  S    
C155  H104  S    
C95   H252  S    
C245  O58   A    
O35   Zn10  S    
C176  H154  S    
C94   O144  S    
C255  C272  A    
C11   C265  A    
C251  O46   A    
C130  H44   S    
C9    O102  S    
C144  O18   S    
C49   C66   A    
C150  H91   S    
C100  O4    S    
C181  H164  S    
C251  O24   A    
C52   O133  S    
C126  H33   S    
C266  O120  S    
C19   C33   A    
C91   C92   S    
C190  C233  A    
C25   C264  A    
H1    O89   S    
C77   C84   A    
C111  H4    S    
C149  H88   S    
C23   C265  A    
H194  O34   S    
C240  O52   A    
C25   C38   A    
H168  O116  S    
C272  O89   S    
C130  H45   S    
C27   C40   A    
C178  H158  S    
C38   C248  S    
C181  O30   S    
H157  O115  S    
C16   O104  S    
C76   O15   S    
H232  O141  S    
C114  H7    S    
C133  H52   S    
O90   Zn6   S    
C203  C221  A    
H220  O129  S    
C67   C81   A    
C107  H281  S    
C61   O142  S    
C121  H23   S    
C183  H170  S    
C241  O82   A    
C161  O23   S    
C209  O43   S    
C161  H117  S    
C14   C267  A    
C129  C130  S    
C20   C32   A    
C154  O21   S    
C259  O114  S    
C35   C56   A    
C142  C143  S    
C46   C232  S    
C140  H67   S    
C238  O80   A    
C136  C137  S    
C198  C233  A    
H214  O122  S    
C224  C243  S    
C174  H149  S    
C129  H41   S    
C51   C69   A    
C148  O19   S    
C85   C240  S    
C189  H185  S    
C117  H12   S    
C160  H114  S    
H227  O136  S    
C117  H14   S    
C169  H136  S    
C141  O17   S    
C122  H27   S    
C11   O99   S    
C191  H187  S    
C69   O7    S    
C258  O113  S    
O57   Zn5   S    
H113  O110  S    
C102  C103  S    
C237  O74   A    
C157  O25   S    
C1    O90   A    
H226  O135  S    
C125  H31   S    
C265  O119  S    
C152  C153  S    
C164  H126  S    
O66   Zn11  S    
C166  H130  S    
C163  H123  S    
C96   H253  S    
C59   C76   A    
C139  H65   S    
C154  H102  S    
O101  Zn5   S    
O112  Zn1   S    
C54   C57   A    
C115  H8    S    
C7    C10   A    
C138  H63   S    
C105  H275  S    
H213  O121  S    
C4    C257  A    
C1    C78   S    
C131  H47   S    
C150  H89   S    
C201  O36   S    
C116  H10   S    
C188  H182  S    
C12   O105  S    
C72   O10   S    
C215  C224  A    
C20   C268  A    
C55   C68   A    
C181  C182  S    
C115  H9    S    
C25   C28   A    
C179  C210  A    
C128  H39   S    
C188  H181  S    
C121  O10   S    
C164  C165  S    
H256  O96   S    
C118  O9    S    
C270  O92   S    
C71   C84   A    
C24   C230  S    
C26   C39   A    
H245  O95   S    
C139  H64   S    
C63   O144  S    
O74   Zn12  S    
H204  O44   S    
C214  C225  A    
C109  H286  S    
C168  C209  A    
C147  H83   S    
C114  H5    S    
C16   C272  A    
C130  H43   S    
C145  H81   S    
C95   C96   S    
C28   C260  A    
C254  O108  S    
C151  O20   S    
C110  O7    S    
O84   Zn3   S    
C121  H25   S    
C151  C152  S    
C30   C254  A    
C67   O6    S    
C117  H15   S    
C175  H151  S    
C79   C226  A    
C118  H16   S    
C176  H152  S    
C162  H120  S    
C135  C205  A    
O86   Zn4   S    
C21   C27   A    
C182  H165  S    
C256  O110  S    
C221  C235  S    
C200  C217  A    
C204  O39   S    
C7    C260  A    
C132  H49   S    
C140  H69   S    
C27   C257  A    
C198  C215  A    
C48   O129  S    
O81   Zn3   S    
C222  C241  S    
C2    C227  S    
C97   C98   S    
H79   O107  S    
C186  H176  S    
H215  O124  S    
C197  O31   S    
C148  H86   S    
C31   C253  A    
C171  H140  S    
C90   C227  A    
C160  H116  S    
C123  H30   S    
C56   C74   A    
O73   Zn12  S    
C167  C169  S    
C89   H239  S    
C131  O14   S    
C28   C39   A    
C206  C220  A    
C97   H257  S    
C138  O16   S    
C218  O134  A    
C235  O78   A    
C141  H70   S    
C190  C211  A    
C237  O76   A    
C4    O96   S    
H216  O125  S    
C137  H60   S    
C110  H288  S    
O78   Zn2   S    
C186  H177  S    
C159  C160  S    
C26   C258  A    
H267  O97   S    
C32   C256  A    
C173  H147  S    
O71   Zn11  S    
C185  H174  S    
O65   Zn10  S    
C163  H121  S    
C96   H255  S    
C70   C83   A    
C121  C122  S    
C68   C234  S    
C10   O98   S    
C39   C247  S    
C58   C68   A    
C165  H128  S    
C147  H82   S    
C177  O29   S    
O82   Zn3   S    
C74   O12   S    
C8    C261  A    
H124  O111  S    
C125  C126  S    
C17   C31   A    
C99   H262  S    
C136  H56   S    
C3    O91   S    
C120  H20   S    
C131  C132  S    
C6    C11   A    
H196  O37   S    
C162  C163  S    
C172  H143  S    
C156  H105  S    
C65   C78   A    
C41   C245  S    
C58   O139  S    
H68   O106  S    
C269  O124  S    
C200  O34   S    
O80   Zn2   S    
C199  O33   S    
O59   Zn6   S    
C178  C180  S    
C119  C120  S    
C14   C270  A    
C142  H73   S    
C267  O121  S    
C153  H97   S    
C105  C106  S    
C90   O18   S    
C236  O73   A    
C210  C223  A    
C189  H183  S    
C263  O117  S    
C216  C223  A    
H35   O103  S    
C187  C188  S    
C187  H178  S    
C193  H192  S    
C149  C150  S    
C192  C193  S    
C168  C231  A    
C18   C36   A    
C185  C186  S    
C161  C162  S    
O85   Zn4   S    
C211  C224  A    
C48   C262  A    
C92   C93   S    
C170  H138  S    
C158  H108  S    
C111  C114  S    
C35   C231  S    
C248  O65   A    
C55   O137  S    
C94   C95   S    
C94   H250  S    
C195  C213  A    
C2    C51   A    
C157  C227  A    
C248  O63   A    
C20   C36   A    
C247  O60   A    
C21   C37   A    
C17   C267  A    
C177  C178  S    
C22   C26   A    
C167  O26   S    
C35   C52   A    
C134  H54   S    
C180  H161  S    
C22   C261  A    
C179  C232  A    
C128  O12   S    
C77   O16   S    
C198  O32   S    
H221  O130  S    
H222  O131  S    
C205  O40   S    
C171  C172  S    
C103  H270  S    
C165  C166  S    
C91   H241  S    
C155  H103  S    
C169  C170  S    
C95   H251  S    
C123  H28   S    
H199  O40   S    
C215  O50   S    
O70   Zn8   S    
C92   H243  S    
C13   C228  S    
C192  H188  S    
H24   O102  S    
H200  O41   S    
C190  O28   S    
C146  C228  A    
C124  C204  A    
C101  C228  A    
C150  H92   S    
C181  H163  S    
C119  H18   S    
C158  O22   S    
C191  O33   S    
C120  H21   S    
C126  H34   S    
C93   H247  S    
C101  C202  A    
C171  O27   S    
H206  O47   S    
C37   C249  S    
C140  H66   S    
C66   C82   A    
C223  C242  S    
C149  H87   S    
O67   Zn10  S    
C116  C117  S    
C29   C40   A    
C93   H246  S    
C70   O8    S    
C252  O69   A    
C94   H249  S    
C199  C232  A    
C102  H266  S    
C118  C119  S    
O123  Zn7   S    
C10   C264  A    
C178  H159  S    
C34   C252  S    
O61   Zn1   S    
C88   H237  S    
C18   C30   A    
C111  H3    S    
C6    O94   S    
C226  C262  S    
C203  O38   S    
C229  O2    A    
C90   C201  A    
H209  O50   S    
C156  H107  S    
C127  H38   S    
C196  O112  A    
C244  O56   A    
C144  H77   S    
C8    O100  S    
C157  C208  A    
C196  O68   A    
O69   Zn9   S    
C217  C236  S    
C82   C207  S    
C58   C75   A    
C153  H99   S    
H203  O43   S    
C113  O20   S    
C60   C77   A    
H202  O42   S    
C98   H259  S    
H234  O94   S    
C199  C216  A    
C235  O72   A    
C59   O140  S    
C148  C149  S    
H211  O120  S    
O83   Zn3   S    
C146  O23   S    
C194  O29   S    
C207  O79   A    
C132  C133  S    
C134  C136  S    
C165  H127  S    
C44   C62   A    
C143  H76   S    
C91   O143  S    
C239  O81   A    
C13   C50   A    
C188  C189  S    
C171  H141  S    
C55   C73   A    
C187  O32   S    
H230  O139  S    
C84   C229  S    
O13   Zn10  S    
C192  H189  S    
C79   O17   S    
C61   C78   A    
C107  C108  S    
C106  H279  S    
H13   O100  S    
C100  C102  S    
C147  H84   S    
C195  C231  A    
C146  C206  A    
C30   C41   A    
C87   H235  S    
C64   C82   A    
C152  H95   S    
O52   Zn8   S    
C56   O138  S    
O24   Zn11  S    
O72   Zn12  S    
C54   O136  S    
C166  H131  S    
C216  O51   S    
C164  O25   S    
C96   H254  S    
C176  H153  S    
C3    C15   A    
C172  C173  S    
C49   O130  S    
C24   C49   A    
C64   O3    S    
C183  H167  S    
C105  H274  S    
C173  H145  S    
C63   C81   A    
O62   Zn7   S    
C24   C47   A    
C99   H263  S    
H201  O119  S    
C47   O128  S    
C19   C34   A    
O79   Zn7   S    
C100  H265  S    
C57   C233  S    
C197  C234  A    
C159  H111  S    
C172  H142  S    
H195  O36   S    
C128  H40   S    
O134  Zn8   S    
C133  H51   S    
C204  C217  A    
C250  O70   A    
C93   H248  S    
H208  O49   S    
C252  O71   A    
C174  O28   S    
C4    C9    A    
H146  O114  S    
C202  O37   S    
C141  C142  S    
C81   C196  S    
C208  O42   S    
C43   O125  S    
C158  C159  S    
O1    Zn1   S    
C151  H93   S    
C9    C263  A    
C42   C244  S    
C5    C258  A    
C179  O27   S    
C3    C256  A    
C109  H285  S    
C73   C86   A    
C52   C70   A    
H219  O128  S    
C114  H6    S    
H101  O109  S    
C112  O57   A    
C261  O116  S    
C102  H268  S    
C54   C72   A    
H2    O99   S    
C214  O49   S    
H223  O93   S    
C69   C80   A    
C268  O122  S    
C122  C123  S    
H197  O38   S    
C161  H118  S    
C245  O55   A    
C138  C139  S    
O58   Zn7   S    
