data_mof_unit_53310.cif
_audit_creation_date              2013-03-05T15:40:44-0500
_audit_creation_method            fapswitch 2.2
_symmetry_space_group_name_H-M    P1
_symmetry_Int_Tables_number       1
_space_group_crystal_system       triclinic
_cell_length_a                    15.251733
_cell_length_b                    14.877913
_cell_length_c                    14.955798
_cell_angle_alpha                 109.10692
_cell_angle_beta                  109.363536
_cell_angle_gamma                 110.131569
_cell_volume                      2606.19534115

loop_
_atom_site_label
_atom_site_type_symbol
_atom_site_description
_atom_site_fract_x
_atom_site_fract_y
_atom_site_fract_z
_atom_type_partial_charge
C1    C     C_R   0.960401 0.776250 0.050553 0.575689
N1    N     N_R   0.993980 0.704500 0.053430 -0.097758
C2    C     C_R   0.794172 0.199739 0.699792 -0.112334
H1    H     H_    0.826233 0.172769 0.648499 0.102241
N2    N     N_R   0.850110 0.295520 0.792970 -0.047725
C3    C     C_R   0.089441 0.592832 0.790867 -0.077107
H2    H     H_    0.145129 0.677914 0.820137 0.132818
N3    N     N_R   0.053690 0.556380 0.849240 -0.040860
C4    C     C_R   0.699634 0.407594 0.000955 0.209272
N4    N     N_R   0.790390 0.443640 0.997160 -0.071932
C5    C     C_R   0.004112 0.409668 0.701846 -0.088931
H3    H     H_    0.983757 0.326184 0.652157 0.087538
N5    N     N_R   0.998260 0.443670 0.792970 -0.048702
C6    C     C_R   0.792594 0.590103 0.096219 -0.069291
H4    H     H_    0.825764 0.673424 0.158711 0.160441
N6    N     N_R   0.845830 0.556350 0.053430 -0.052880
C7    C     C_R   0.703885 0.195092 0.789568 -0.093187
H5    H     H_    0.655022 0.159631 0.819383 0.138139
N7    N     N_R   0.792820 0.295510 0.849240 -0.046291
C8    C     C_R   0.048351 0.770999 0.956068 -0.133135
H6    H     H_    0.088857 0.789327 0.911811 0.158105
N8    N     N_R   0.051260 0.704510 0.997160 -0.075815
C9    C     C_R   0.988013 0.813751 0.983681 -0.030748
C10   C     C_R   0.703867 0.134100 0.697301 0.121675
C11   C     C_R   0.064442 0.502754 0.701108 0.123280
C12   C     C_R   0.695978 0.499457 0.057507 0.035694
C13   C     C_R   0.036458 0.591951 0.313197 -0.135380
H7    H     H_    0.073756 0.675996 0.376467 0.124009
N9    N     N_R   0.001740 0.556330 0.207030 -0.062665
C14   C     C_R   0.214763 0.409481 0.918985 -0.092470
H8    H     H_    0.187524 0.323345 0.872152 0.189917
N10   N     N_R   0.154170 0.443650 0.946570 -0.071641
C15   C     C_R   0.312597 0.765503 0.223099 -0.082116
H9    H     H_    0.376617 0.782956 0.204130 0.172484
N11   N     N_R   0.207180 0.704490 0.150760 -0.050673
C16   C     C_R   0.901885 0.193094 0.987262 -0.110847
H10   H     H_    0.832118 0.157716 0.994807 0.153993
N12   N     N_R   0.948740 0.295490 0.002840 -0.047173
C17   C     C_R   0.997188 0.196653 0.902895 -0.073475
H11   H     H_    0.020251 0.169844 0.842558 0.095542
N13   N     N_R   0.006020 0.295500 0.946570 -0.051323
C18   C     C_R   0.221406 0.769351 0.313799 -0.099527
H12   H     H_    0.203277 0.796338 0.378007 0.116758
N14   N     N_R   0.149890 0.704480 0.207030 -0.058650
C19   C     C_R   0.946923 0.407804 0.222418 0.211640
N15   N     N_R   0.946310 0.443620 0.150760 -0.069254
C20   C     C_R   0.301399 0.593847 0.002398 0.193703
N16   N     N_R   0.209610 0.556360 0.002840 -0.064927
Ni1   Ni    Ni4+2 0.997880 0.629240 0.129060 0.236258
Ni2   Ni    Ni4+2 0.002120 0.370760 0.870940 0.210288
Ni3   Ni    Ni4+2 0.129260 0.629260 0.000000 0.250868
Ni4   Ni    Ni4+2 0.870740 0.370740 0.000000 0.258555
C21   C     C_R   0.009059 0.500297 0.324963 0.066768
C22   C     C_R   0.311743 0.502588 0.958964 0.019424
C23   C     C_R   0.322956 0.802979 0.325536 0.154974
C24   C     C_R   0.929559 0.130192 0.925075 0.110151
C25   C     C_3   0.503778 0.408953 0.916279 -0.456383
H13   H     H_    0.475116 0.328559 0.913637 0.251788
H14   H     H_    0.531994 0.403221 0.855992 0.170291
C26   C     C_3   0.407757 0.426540 0.880477 0.431057
H15   H     H_    0.415732 0.472152 0.834585 0.057934
C27   C     C_3   0.561885 0.494294 0.120870 0.036860
C28   C     C_3   0.610839 0.615357 0.040372 -0.030094
C29   C     C_3   0.595947 0.503293 0.034930 0.044715
H16   H     H_    0.682273 0.686441 0.118455 0.161051
C30   C     C_3   0.414781 0.503308 0.986640 -0.004602
C31   C     C_3   0.442570 0.465441 0.075155 0.063952
C32   C     C_3   0.511727 0.622904 0.035722 -0.126819
H17   H     H_    0.490923 0.656026 0.980854 0.207506
H18   H     H_    0.611499 0.578089 0.193731 0.130946
H19   H     H_    0.434090 0.512282 0.143715 0.143367
C33   C     C_2   0.446865 0.866089 0.516100 0.281437
C34   C     C_2   0.423731 0.877577 0.426835 -0.272921
H20   H     H_    0.479649 0.947637 0.428070 0.149564
C35   C     C_2   0.544003 0.956739 0.619068 -0.137933
C36   C     C_2   0.631701 0.017188 0.618225 -0.213160
H21   H     H_    0.535657 0.983308 0.690930 0.159438
H22   H     H_    0.641420 0.984986 0.547805 0.161565
C37   C     C_2   0.077528 0.421059 0.540663 -0.127385
C38   C     C_2   0.111004 0.510187 0.632094 -0.171344
H23   H     H_    0.036837 0.338383 0.527882 0.135560
H24   H     H_    0.157451 0.592265 0.645455 0.164994
C39   C     C_2   0.067239 0.431188 0.444637 -0.053351
C40   C     C_2   0.037546 0.501789 0.427294 -0.108561
H25   H     H_    0.069525 0.371106 0.381646 0.144953
H26   H     H_    0.032705 0.561292 0.488120 0.147973
C41   C     C_2   0.915644 0.954502 0.826941 -0.149461
C42   C     C_2   0.881322 0.011612 0.880801 -0.203697
H27   H     H_    0.959596 0.985498 0.789650 0.145716
H28   H     H_    0.834320 0.975742 0.913779 0.160772
C43   C     C_2   0.922678 0.866470 0.846367 0.309124
C44   C     C_2   0.965122 0.887960 0.950751 -0.254704
H29   H     H_    0.991871 0.967882 0.016121 0.114436
O1    O     O_3   0.903552 0.799078 0.101445 -0.643664
C45   C     C_3   0.937463 0.912366 0.153104 0.242093
H30   H     H_    0.889609 0.930207 0.094459 0.145913
H31   H     H_    0.025568 0.966396 0.187207 0.075581
C46   C     C_3   0.915119 0.939948 0.247517 -0.835693
H32   H     H_    0.960399 0.921853 0.307696 0.239425
H33   H     H_    0.940929 0.028920 0.288864 0.220788
H34   H     H_    0.827492 0.890148 0.216664 0.279667
I1    I     I_    0.838815 0.250702 0.190601 -0.369181
I2    I     I_    0.356285 0.738484 0.987213 -0.399821
O2    O     O_3   0.311196 0.322186 0.814566 -0.619010
C47   C     C_3   0.275793 0.283722 0.702292 0.263785
H35   H     H_    0.339098 0.277722 0.683578 0.111606
H36   H     H_    0.254341 0.339550 0.677575 0.099754
C48   C     C_3   0.175362 0.169614 0.635794 -0.862163
H37   H     H_    0.110371 0.173808 0.651885 0.241502
H38   H     H_    0.146695 0.138302 0.547240 0.208769
H39   H     H_    0.193960 0.111603 0.658327 0.272616
I3    I     I_    0.614383 0.418765 0.212910 -0.226130
I4    I     I_    0.336072 0.293374 0.021687 -0.294378
I5    I     I_    0.641710 0.641951 0.916219 -0.363308
I6    I     I_    0.561154 0.745592 0.200514 -0.440007
I7    I     I_    0.344239 0.731007 0.521611 -0.388429
I8    I     I_    0.872012 0.717066 0.709525 -0.336417
I9    I     I_    0.609275 0.246608 0.973832 -0.341288

loop_
_geom_bond_atom_site_label_1
_geom_bond_atom_site_label_2
_geom_bond_distance
_ccdc_geom_bond_type
N14   Ni1   1.885246 S    
C15   C23   1.379351 A    
C30   C32   1.582822 S    
C41   C42   1.335126 D    
C28   H16   1.106278 S    
N3    N5    1.365065 A    
C41   C43   1.461653 S    
C13   N9    1.334468 A    
C11   C38   1.445197 S    
C34   H20   1.085906 S    
C45   H30   1.110712 S    
N4    Ni4   1.894867 S    
C45   C46   1.521292 S    
C17   N13   1.335666 A    
N9    Ni1   1.834798 S    
C19   N15   1.342852 A    
C14   C22   1.387483 A    
C27   C31   1.551884 S    
C21   C40   1.435863 S    
C16   H10   1.074700 S    
C36   H22   1.087563 S    
C14   H8    1.076288 S    
C24   C42   1.452901 S    
C3    C11   1.369164 A    
N12   Ni4   1.893379 S    
C5    C11   1.379998 A    
N15   Ni4   1.844962 S    
C48   H37   1.111414 S    
C27   H18   1.108485 S    
C1    N1    1.339951 A    
C12   C29   1.475059 S    
C27   C29   1.564402 S    
C7    N7    1.340836 A    
C28   I5    2.181392 S    
N7    Ni4   1.845071 S    
N16   Ni3   1.894868 S    
C20   N16   1.319859 A    
C32   H17   1.102985 S    
N1    N8    1.399628 A    
C43   I8    2.125397 S    
C14   N10   1.312103 A    
C4    N4    1.329598 A    
C30   C31   1.590618 S    
C26   C30   1.566107 S    
C4    I9    2.126396 S    
N10   N16   1.365063 A    
C2    C10   1.366887 A    
C18   N14   1.335096 A    
C33   C35   1.461974 S    
O2    C47   1.412637 S    
C4    C12   1.383249 A    
C7    H5    1.065962 S    
C47   C48   1.520513 S    
C7    C10   1.381111 A    
C20   I2    2.142208 S    
N6    Ni1   1.886730 S    
N12   N13   1.399629 A    
C38   H24   1.088060 S    
C17   H11   1.080998 S    
C37   H23   1.084728 S    
C10   C36   1.451861 S    
C25   C26   1.528209 S    
C3    N3    1.332533 A    
C28   C29   1.573623 S    
N5    Ni2   1.834798 S    
C26   H15   1.117963 S    
C35   C36   1.337376 D    
C16   C24   1.371637 A    
N1    Ni1   1.834957 S    
C18   C23   1.381577 A    
C47   H36   1.114209 S    
C17   C24   1.375215 A    
C8    C9    1.380204 A    
C45   H31   1.116036 S    
C15   H9    1.076426 S    
C6    C12   1.371319 A    
N11   N14   1.399756 A    
C35   H21   1.083875 S    
N3    Ni3   1.844964 S    
N10   Ni2   1.886730 S    
C20   C22   1.388641 A    
N2    N7    1.399756 A    
C39   H25   1.086138 S    
C42   H28   1.088753 S    
C1    C9    1.404198 A    
C46   H33   1.110666 S    
C41   H27   1.084691 S    
N11   Ni3   1.845070 S    
C6    N6    1.317498 A    
N2    Ni2   1.885246 S    
C39   C40   1.342988 D    
C18   H12   1.076979 S    
C2    H1    1.082060 S    
N13   Ni2   1.834957 S    
C43   C44   1.348733 D    
C25   C29   1.565940 S    
C28   C32   1.534501 S    
C9    C44   1.445921 S    
C8    N8    1.329782 A    
C33   C34   1.347049 D    
C2    N2    1.332376 A    
C1    O1    1.384738 S    
C5    H3    1.081055 S    
C13   C21   1.370642 A    
C3    H2    1.079807 S    
C22   C30   1.481635 S    
C46   H34   1.110701 S    
C47   H35   1.113864 S    
C33   I7    2.127064 S    
C48   H39   1.111080 S    
N9    N15   1.365065 A    
C16   N12   1.339275 A    
C31   I4    2.183480 S    
N4    N6    1.365062 A    
C37   C39   1.455459 S    
C5    N5    1.334752 A    
C25   H13   1.104985 S    
C44   H29   1.084760 S    
C15   N11   1.333589 A    
C48   H38   1.110903 S    
C31   H19   1.111727 S    
O1    C45   1.409868 S    
C25   H14   1.112497 S    
C19   I1    2.122973 S    
C32   I6    2.202280 S    
C19   C21   1.378661 A    
C37   C38   1.331477 D    
C23   C34   1.438843 S    
C27   I3    2.167903 S    
C8    H6    1.080509 S    
C46   H32   1.110807 S    
C13   H7    1.077666 S    
C6    H4    1.078163 S    
C40   H26   1.085835 S    
C26   O2    1.418644 S    
N8    Ni3   1.893378 S    
