data_mof_unit_15214.cif
_audit_creation_date              2012-12-11T14:04:10-0500
_audit_creation_method            fapswitch 2.2
_symmetry_space_group_name_H-M    P1
_symmetry_Int_Tables_number       1
_space_group_crystal_system       triclinic
_cell_length_a                    19.005975
_cell_length_b                    10.953156
_cell_length_c                    18.719951
_cell_angle_alpha                 89.914143
_cell_angle_beta                  89.757782
_cell_angle_gamma                 89.81642
_cell_volume                      3896.97433439

loop_
_atom_site_label
_atom_site_type_symbol
_atom_type_description
_atom_site_fract_x
_atom_site_fract_y
_atom_site_fract_z
_atom_type_partial_charge
C1    C     C_R   0.238980 0.468530 0.645796 0.561451
C2    C     C_R   0.760208 0.466825 0.353248 0.551642
C3    C     C_R   0.739902 0.966993 0.646809 0.557194
C4    C     C_R   0.273166 0.014095 0.362282 0.568458
C5    C     C_2   0.309109 0.898235 0.549054 -0.162291
C6    C     C_2   0.715396 0.834071 0.465230 -0.160944
C7    C     C_2   0.785923 0.335878 0.535338 -0.162784
C8    C     C_2   0.203509 0.357454 0.460113 -0.168346
C9    C     C_R   0.004886 0.656828 0.425812 -0.017971
C10   C     C_R   0.993256 0.670839 0.575551 -0.028906
C11   C     C_R   0.507843 0.170518 0.423678 -0.028131
C12   C     C_R   0.496428 0.157057 0.573444 -0.019043
C13   C     C_R   0.039051 0.871868 0.420765 -0.131333
C14   C     C_R   0.011876 0.895302 0.566298 -0.122404
C15   C     C_R   0.490089 0.395211 0.432283 -0.123416
C16   C     C_R   0.462246 0.372684 0.577758 -0.143084
C17   C     C_R   0.052066 0.983616 0.454716 0.277148
C18   C     C_R   0.037966 0.995666 0.527672 0.286760
C19   C     C_R   0.464325 0.496288 0.470558 0.288744
C20   C     C_R   0.449671 0.484614 0.543434 0.274435
C21   C     C_R   0.006237 0.778752 0.534604 -0.035109
C22   C     C_R   0.015512 0.769671 0.459803 -0.035967
C23   C     C_R   0.485825 0.269963 0.539130 -0.039421
C24   C     C_R   0.495237 0.278695 0.464348 -0.034251
C25   C     C_R   0.978311 0.561125 0.539856 0.015128
C26   C     C_R   0.998526 0.549608 0.468229 0.024059
C27   C     C_R   0.503546 0.049581 0.531245 0.017540
C28   C     C_R   0.523331 0.060981 0.459470 0.011348
C29   C     C_R   0.951226 0.458120 0.576231 -0.077597
C30   C     C_R   0.009044 0.430499 0.440745 -0.085233
C31   C     C_R   0.493727 0.930273 0.558871 -0.092597
C32   C     C_R   0.550416 0.958025 0.422961 -0.077749
C33   C     C_R   0.955995 0.342497 0.545923 -0.104709
C34   C     C_R   0.986712 0.328457 0.478955 -0.099111
C35   C     C_R   0.516077 0.828253 0.520589 -0.097433
C36   C     C_R   0.546254 0.842375 0.453397 -0.100427
C37   C     C_2   0.222934 0.847541 0.935396 -0.096023
C38   C     C_2   0.761295 0.897813 0.071183 -0.092080
C39   C     C_2   0.722932 0.347532 0.935396 -0.096688
C40   C     C_2   0.261300 0.397799 0.071178 -0.091884
C41   C     C_2   0.243815 0.888262 0.088573 -0.105715
C42   C     C_2   0.752167 0.895901 0.914779 -0.104607
C43   C     C_2   0.743816 0.388259 0.088571 -0.106649
C44   C     C_2   0.252171 0.395888 0.914773 -0.104330
C45   C     C_R   0.228673 0.879260 0.650048 0.573354
C46   C     C_R   0.772811 0.874023 0.352626 0.551519
C47   C     C_R   0.727226 0.374331 0.647419 0.563398
C48   C     C_R   0.272280 0.375815 0.351797 0.552358
C49   C     C_2   0.181638 0.901787 0.055559 -0.150884
C50   C     C_2   0.811553 0.914694 0.950585 -0.158707
C51   C     C_2   0.681638 0.401777 0.055560 -0.150654
C52   C     C_2   0.311558 0.414674 0.950578 -0.158666
C53   C     C_2   0.169905 0.866368 0.981216 -0.166490
C54   C     C_2   0.816669 0.889370 0.026353 -0.147496
C55   C     C_2   0.669904 0.366353 0.981218 -0.166577
C56   C     C_2   0.316674 0.389353 0.026349 -0.147829
C57   C     C_2   0.042400 0.654290 0.933218 -0.107513
C58   C     C_2   0.017609 0.664222 0.087474 -0.111230
C59   C     C_2   0.542397 0.154288 0.933218 -0.107530
C60   C     C_2   0.517610 0.164223 0.087476 -0.112600
C61   C     C_2   0.041595 0.564897 0.053261 -0.149963
C62   C     C_2   0.065697 0.569147 0.978850 -0.163835
C63   C     C_2   0.541599 0.064900 0.053264 -0.150808
C64   C     C_2   0.565699 0.069150 0.978852 -0.163673
C65   C     C_R   0.026794 0.656716 0.646513 0.546643
C66   C     C_R   0.973064 0.653839 0.353708 0.533974
C67   C     C_R   0.527218 0.154057 0.646041 0.547513
C68   C     C_R   0.473427 0.156457 0.353245 0.523635
C69   C     C_R   0.239366 0.463071 0.849547 0.537697
C70   C     C_R   0.760109 0.462179 0.150817 0.555493
C71   C     C_R   0.739363 0.963079 0.849552 0.539379
C72   C     C_R   0.260105 0.962167 0.150827 0.564072
C73   C     C_R   0.208806 0.826167 0.860598 0.548935
C74   C     C_R   0.774024 0.870732 0.145531 0.551497
C75   C     C_R   0.708805 0.326164 0.860598 0.549885
C76   C     C_R   0.274027 0.370725 0.145528 0.554721
C77   C     C_R   0.061699 0.647534 0.858519 0.547916
C78   C     C_R   0.973161 0.652623 0.150619 0.550509
C79   C     C_R   0.561698 0.147534 0.858520 0.548055
C80   C     C_R   0.473162 0.152622 0.150620 0.549950
C81   C     C_2   0.256455 0.944058 0.588578 -0.123566
C82   C     C_2   0.751385 0.912533 0.423583 -0.110909
C83   C     C_2   0.748733 0.413433 0.576585 -0.111596
C84   C     C_2   0.249110 0.422194 0.420508 -0.121592
C85   C     C_2   0.264591 0.973527 0.435422 -0.105197
C86   C     C_2   0.755836 0.906943 0.579807 -0.116105
C87   C     C_2   0.744741 0.406805 0.420397 -0.117386
C88   C     C_2   0.250601 0.412853 0.576484 -0.112231
C89   C     C_2   0.319833 0.940020 0.475420 -0.153054
C90   C     C_2   0.704775 0.857020 0.541125 -0.162103
C91   C     C_2   0.796401 0.358724 0.459422 -0.162141
C92   C     C_2   0.195314 0.380740 0.536292 -0.143419
Cr1   Cr    Cr6+3 0.113970 0.508630 0.747920 1.022434
Cr2   Cr    Cr6+3 0.886030 0.508630 0.252080 1.020405
Cr3   Cr    Cr6+3 0.613970 0.008630 0.747920 1.015345
Cr4   Cr    Cr6+3 0.386030 0.008630 0.252080 1.028833
Cr5   Cr    Cr6+3 0.269200 0.666740 0.749850 1.021601
Cr6   Cr    Cr6+3 0.730800 0.666740 0.250150 1.011293
Cr7   Cr    Cr6+3 0.769200 0.166740 0.749850 1.010158
Cr8   Cr    Cr6+3 0.230800 0.166740 0.250150 1.015644
Cr9   Cr    Cr6+3 0.112300 0.820070 0.749800 1.010996
Cr10  Cr    Cr6+3 0.887700 0.820070 0.250200 1.017734
Cr11  Cr    Cr6+3 0.612300 0.320070 0.749800 1.017422
Cr12  Cr    Cr6+3 0.387700 0.320070 0.250200 1.007627
H1    H     H_    0.372365 0.935023 0.452521 0.183503
H2    H     H_    0.653768 0.837238 0.564446 0.161614
H3    H     H_    0.847789 0.340501 0.436379 0.162104
H4    H     H_    0.142542 0.374921 0.558578 0.193374
H5    H     H_    0.116149 0.869044 0.961875 0.131899
H6    H     H_    0.869339 0.871599 0.046442 0.152464
H7    H     H_    0.616147 0.369027 0.961878 0.131692
H8    H     H_    0.369344 0.371584 0.046439 0.152486
H9    H     H_    0.285599 0.832072 0.066480 0.102613
H10   H     H_    0.708965 0.844750 0.938285 0.105164
H11   H     H_    0.785600 0.332065 0.066481 0.102929
H12   H     H_    0.208968 0.344740 0.938280 0.105090
H13   H     H_    0.277458 0.847536 0.952151 0.115699
H14   H     H_    0.708024 0.914805 0.052901 0.085355
H15   H     H_    0.777457 0.347530 0.952151 0.115801
H16   H     H_    0.208029 0.414788 0.052894 0.085586
H17   H     H_    0.038165 0.475252 0.077913 0.153310
H18   H     H_    0.097599 0.493555 0.959418 0.132611
H19   H     H_    0.538175 0.975256 0.077918 0.153060
H20   H     H_    0.597604 0.993562 0.959420 0.132682
H21   H     H_    0.024873 0.755021 0.065371 0.091430
H22   H     H_    0.008681 0.729028 0.950208 0.101656
H23   H     H_    0.524870 0.255021 0.065371 0.091693
H24   H     H_    0.508674 0.229022 0.950208 0.101575
H25   H     H_    0.340744 0.822147 0.568021 0.197631
H26   H     H_    0.693639 0.750229 0.443844 0.153289
H27   H     H_    0.808623 0.252663 0.557015 0.152754
H28   H     H_    0.173289 0.283116 0.437399 0.204987
H29   H     H_    0.211471 0.972576 0.457028 0.148635
H30   H     H_    0.807984 0.920258 0.556953 0.111427
H31   H     H_    0.692376 0.418922 0.443054 0.111065
H32   H     H_    0.303374 0.414724 0.554102 0.131544
H33   H     H_    0.227169 0.023707 0.570586 0.136792
H34   H     H_    0.772924 0.996544 0.445083 0.106531
H35   H     H_    0.726327 0.496879 0.554772 0.106932
H36   H     H_    0.277427 0.498873 0.443241 0.147621
H37   H     H_    0.051401 0.863191 0.364470 0.117051
H38   H     H_    0.995978 0.909801 0.621136 0.124694
H39   H     H_    0.506020 0.408951 0.377362 0.122280
H40   H     H_    0.449451 0.364350 0.633972 0.116720
H41   H     H_    0.034041 0.415623 0.389409 0.142225
H42   H     H_    0.928874 0.466596 0.629344 0.130696
H43   H     H_    0.572239 0.966588 0.369625 0.125432
H44   H     H_    0.468704 0.914973 0.610134 0.144625
H45   H     H_    0.937137 0.263586 0.574999 0.129724
H46   H     H_    0.990881 0.238919 0.455487 0.195768
H47   H     H_    0.512185 0.738606 0.544097 0.194404
H48   H     H_    0.565116 0.763508 0.424228 0.129406
H49   H     H_    0.139001 0.951965 0.081014 0.152134
H50   H     H_    0.856395 0.959265 0.925655 0.156404
H51   H     H_    0.639002 0.451958 0.081014 0.152369
H52   H     H_    0.356401 0.459240 0.925647 0.156117
O1    O     O_R   0.043230 0.549300 0.667990 -0.507914
O2    O     O_R   0.956770 0.549300 0.332010 -0.527417
O3    O     O_R   0.543230 0.049300 0.667990 -0.520110
O4    O     O_R   0.456770 0.049300 0.332010 -0.523207
O5    O     O_R   0.262920 0.788600 0.824420 -0.494623
O6    O     O_R   0.737080 0.788600 0.175580 -0.494765
O7    O     O_R   0.762920 0.288600 0.824420 -0.492680
O8    O     O_R   0.237080 0.288600 0.175580 -0.494357
O9    O     O_R   0.167530 0.905110 0.830340 -0.505878
O10   O     O_R   0.832470 0.905110 0.169660 -0.515736
O11   O     O_R   0.667530 0.405110 0.830340 -0.503928
O12   O     O_R   0.332470 0.405110 0.169660 -0.513688
O13   O     O_R   0.054010 0.748440 0.822860 -0.516053
O14   O     O_R   0.945990 0.748440 0.177140 -0.507284
O15   O     O_R   0.554010 0.248440 0.822860 -0.516020
O16   O     O_R   0.445990 0.248440 0.177140 -0.506095
O17   O     O_3   0.165160 0.665150 0.749190 -0.285292
O18   O     O_3   0.834840 0.665150 0.250810 -0.240944
O19   O     O_3   0.665160 0.165150 0.749190 -0.283581
O20   O     O_3   0.334840 0.165150 0.250810 -0.261559
O21   O     O_R   0.178620 0.457600 0.674100 -0.491612
O22   O     O_R   0.821380 0.457600 0.325900 -0.493249
O23   O     O_R   0.678620 0.957600 0.674100 -0.489059
O24   O     O_R   0.321380 0.957600 0.325900 -0.485510
O25   O     O_R   0.284680 0.542100 0.669460 -0.505358
O26   O     O_R   0.715320 0.542100 0.330540 -0.528174
O27   O     O_R   0.784680 0.042100 0.669460 -0.524331
O28   O     O_R   0.215320 0.042100 0.330540 -0.514536
O29   O     O_R   0.262860 0.790390 0.676650 -0.483334
O30   O     O_R   0.737140 0.790390 0.323350 -0.503669
O31   O     O_R   0.762860 0.290390 0.676650 -0.495567
O32   O     O_R   0.237140 0.290390 0.323350 -0.509788
O33   O     O_R   0.167460 0.907030 0.670940 -0.503572
O34   O     O_R   0.832540 0.907030 0.329060 -0.507404
O35   O     O_R   0.667460 0.407030 0.670940 -0.503226
O36   O     O_R   0.332540 0.407030 0.329060 -0.501119
O37   O     O_R   0.053950 0.750220 0.675100 -0.501526
O38   O     O_R   0.946050 0.750220 0.324900 -0.496896
O39   O     O_R   0.553950 0.250220 0.675100 -0.491329
O40   O     O_R   0.446050 0.250220 0.324900 -0.509279
O41   O     O_R   0.043300 0.547370 0.827390 -0.493530
O42   O     O_R   0.956700 0.547370 0.172610 -0.511598
O43   O     O_R   0.543300 0.047370 0.827390 -0.492423
O44   O     O_R   0.456700 0.047370 0.172610 -0.511728
O45   O     O_R   0.178690 0.455820 0.821860 -0.519671
O46   O     O_R   0.821310 0.455820 0.178140 -0.495916
O47   O     O_R   0.678690 0.955820 0.821860 -0.519874
O48   O     O_R   0.321310 0.955820 0.178140 -0.490051
O49   O     O_R   0.284750 0.540170 0.828860 -0.521680
O50   O     O_R   0.715250 0.540170 0.171140 -0.515063
O51   O     O_R   0.784750 0.040170 0.828860 -0.518306
O52   O     O_R   0.215250 0.040170 0.171140 -0.514102
O53   O     O_3   0.078957 0.082259 0.417847 -0.705258
H53   H     H_    0.081517 0.061841 0.366331 0.321419
O54   O     O_3   0.051543 0.105874 0.560358 -0.691946
H54   H     H_    0.040371 0.099104 0.612000 0.308016
O55   O     O_3   0.451434 0.606789 0.437564 -0.680516
H55   H     H_    0.463060 0.599776 0.386041 0.306969
O56   O     O_3   0.422341 0.583614 0.579769 -0.693493
H56   H     H_    0.418750 0.563014 0.631232 0.319858

loop_
_geom_bond_atom_site_label_1
_geom_bond_atom_site_label_2
_ccdc_geom_bond_type
C70   O46   A    
C17   O53   S    
C7    C83   D    
C14   H38   S    
Cr10  O14   S    
Cr1   O17   S    
C6    C82   D    
C87   C91   D    
C14   C18   A    
Cr9   O17   S    
C35   C36   A    
C74   O10   A    
C6    H26   S    
C43   C51   D    
Cr7   O31   S    
Cr8   O52   S    
C57   C62   D    
Cr12  O20   S    
C32   H43   S    
O55   H55   S    
C15   C19   A    
C75   O11   A    
C12   C23   A    
C51   H51   S    
C59   C64   D    
C50   C54   S    
Cr11  O39   S    
C60   C63   D    
Cr3   O3    S    
C32   C36   A    
C14   C21   A    
C75   O7    A    
C16   H40   S    
C46   O34   A    
C48   O32   A    
Cr9   O33   S    
C2    O26   A    
Cr6   O18   S    
C49   C53   S    
C9    C22   A    
Cr5   O29   S    
Cr3   O47   S    
C80   O44   A    
C29   C33   A    
C11   C24   A    
C78   O14   A    
C54   H6    S    
C61   H17   S    
Cr2   O22   S    
C79   O15   A    
C3    O23   A    
C9    C66   S    
Cr3   O19   S    
C82   H34   S    
C43   H11   S    
C46   C82   S    
C1    O21   A    
C92   H4    S    
C39   C55   D    
C88   C92   D    
C40   C56   D    
C86   H30   S    
C17   C18   A    
Cr8   O20   S    
C73   O5    A    
C23   C24   A    
C29   H42   S    
Cr9   O13   S    
C8    C92   S    
C39   C75   S    
Cr1   O45   S    
Cr7   O27   S    
C72   O48   A    
C37   C53   D    
C44   C52   D    
C1    C88   S    
C5    H25   S    
Cr10  O10   S    
C21   C22   A    
C3    C86   S    
Cr11  O15   S    
Cr8   O32   S    
C61   C62   S    
C35   H47   S    
C4    O24   A    
C67   O39   A    
Cr10  O38   S    
C41   C49   D    
Cr6   O6    S    
Cr9   O37   S    
C9    C26   A    
Cr4   O48   S    
C65   O37   A    
C10   C21   A    
C25   C29   A    
C69   O45   A    
C12   C67   S    
C45   C81   S    
C79   O43   A    
C30   C34   A    
C12   C27   A    
C27   C31   A    
C20   O56   S    
C87   H31   S    
C28   C32   A    
Cr5   O17   S    
C88   H32   S    
C72   O52   A    
C86   C90   D    
C59   C79   S    
C57   H22   S    
C74   O6    A    
Cr1   O21   S    
Cr3   O23   S    
C4    C85   S    
C51   C55   S    
C59   H24   S    
C64   H20   S    
C4    O28   A    
C48   C84   S    
Cr7   O51   S    
C19   O55   S    
Cr6   O26   S    
C71   O47   A    
O56   H56   S    
Cr8   O8    S    
C8    H28   S    
C15   H39   S    
C57   C77   S    
Cr12  O12   S    
C5    C81   D    
O54   H54   S    
C38   C54   D    
C16   C20   A    
C7    C91   S    
Cr11  O19   S    
O53   H53   S    
Cr12  O40   S    
Cr7   O19   S    
C2    C87   S    
C68   O40   A    
C85   C89   D    
Cr11  O11   S    
C46   O30   A    
Cr1   O1    S    
C66   O2    A    
C90   H2    S    
C42   C50   D    
C41   C72   S    
Cr2   O46   S    
C31   H44   S    
C50   H50   S    
C10   C25   A    
C65   O1    A    
C15   C24   A    
Cr4   O4    S    
C73   O9    A    
Cr2   O18   S    
C26   C30   A    
C16   C23   A    
Cr5   O5    S    
C83   H35   S    
Cr7   O7    S    
C42   H10   S    
C76   O8    A    
C55   H7    S    
Cr11  O35   S    
C80   O16   A    
C47   O31   A    
C68   O4    A    
Cr12  O16   S    
C62   H18   S    
C11   C68   S    
C30   H41   S    
C67   O3    A    
C38   C74   S    
C10   C65   S    
C49   H49   S    
Cr4   O44   S    
C77   O13   A    
C37   C73   S    
C60   C80   S    
C1    O25   A    
Cr4   O20   S    
C40   H16   S    
C8    C84   D    
C7    H27   S    
C13   H37   S    
C60   H23   S    
C36   H48   S    
C41   H9    S    
C47   C83   S    
Cr2   O2    S    
C63   H19   S    
Cr5   O25   S    
Cr10  O18   S    
C70   O50   A    
C43   C70   S    
C78   O42   A    
C69   O49   A    
C13   C17   A    
Cr5   O49   S    
Cr4   O24   S    
C19   C20   A    
C18   O54   S    
C25   C26   A    
Cr6   O30   S    
C6    C90   S    
Cr9   O9    S    
C45   O29   A    
C3    O27   A    
C11   C28   A    
C58   C61   D    
C39   H15   S    
Cr1   O41   S    
C71   O51   A    
C42   C71   S    
Cr10  O34   S    
C33   H45   S    
C33   C34   A    
C13   C22   A    
C76   O12   A    
C31   C35   A    
C34   H46   S    
C47   O35   A    
C52   H52   S    
Cr8   O28   S    
C48   O36   A    
C58   C78   S    
C63   C64   S    
C38   H14   S    
C40   C76   S    
C37   H13   S    
C44   H12   S    
C58   H21   S    
Cr3   O43   S    
C89   H1    S    
C84   H36   S    
C81   H33   S    
C45   O33   A    
C44   C69   S    
Cr6   O50   S    
C53   H5    S    
C2    O22   A    
Cr2   O42   S    
C66   O38   A    
C77   O41   A    
C56   H8    S    
C5    C89   S    
C52   C56   S    
C85   H29   S    
C27   C28   A    
C91   H3    S    
Cr12  O36   S    
