data_mof_unit_23285.cif
_audit_creation_date              2012-12-11T16:28:12-0500
_audit_creation_method            fapswitch 2.2
_symmetry_space_group_name_H-M    P1
_symmetry_Int_Tables_number       1
_space_group_crystal_system       triclinic
_cell_length_a                    30.446682
_cell_length_b                    22.615683
_cell_length_c                    17.976256
_cell_angle_alpha                 90.000227
_cell_angle_beta                  122.545562
_cell_angle_gamma                 89.999765
_cell_volume                      10434.169984

loop_
_atom_site_label
_atom_site_type_symbol
_atom_type_description
_atom_site_fract_x
_atom_site_fract_y
_atom_site_fract_z
_atom_type_partial_charge
C1    C     C_R   0.532616 0.609359 0.704765 0.570146
C2    C     C_R   0.453679 0.417315 0.255503 0.644928
C3    C     C_R   0.467383 0.609359 0.295235 0.570143
C4    C     C_R   0.546321 0.417316 0.744497 0.644934
C5    C     C_R   0.032616 0.109359 0.704766 0.570144
C6    C     C_R   0.953680 0.917314 0.255504 0.644918
C7    C     C_R   0.967383 0.109359 0.295235 0.570142
C8    C     C_R   0.046321 0.917315 0.744497 0.644929
C9    C     C_R   0.321950 0.652190 0.578037 -0.378483
C10   C     C_R   0.646179 0.292081 0.432788 -0.374918
C11   C     C_R   0.678040 0.652215 0.421976 -0.378413
C12   C     C_R   0.353828 0.292076 0.567215 -0.374960
C13   C     C_R   0.821958 0.152213 0.578025 -0.378413
C14   C     C_R   0.146193 0.792092 0.432792 -0.374832
C15   C     C_R   0.178037 0.152225 0.421980 -0.378365
C16   C     C_R   0.853821 0.792082 0.567212 -0.374916
C17   C     C_R   0.281074 0.674947 0.582530 0.621850
C18   C     C_R   0.670678 0.240624 0.431702 0.621477
C19   C     C_R   0.718912 0.674977 0.417478 0.621865
C20   C     C_R   0.329326 0.240620 0.568298 0.621473
C21   C     C_R   0.781086 0.174975 0.582523 0.621864
C22   C     C_R   0.170686 0.740631 0.431698 0.621472
C23   C     C_R   0.218907 0.174988 0.417480 0.621866
C24   C     C_R   0.829321 0.740626 0.568298 0.621475
C25   C     C_R   0.229631 0.659457 0.516765 -0.047380
C26   C     C_R   0.688477 0.200017 0.501577 -0.038528
C27   C     C_R   0.770356 0.659471 0.483218 -0.047368
C28   C     C_R   0.311519 0.200019 0.498414 -0.038550
C29   C     C_R   0.729642 0.159469 0.516782 -0.047367
C30   C     C_R   0.188471 0.700015 0.501559 -0.038482
C31   C     C_R   0.270352 0.159475 0.483210 -0.047369
C32   C     C_R   0.811521 0.700019 0.498422 -0.038527
C33   C     C_R   0.412291 0.706676 0.243164 0.016306
C34   C     C_R   0.623593 0.363614 0.871262 0.004373
C35   C     C_R   0.587709 0.706676 0.756837 0.016315
C36   C     C_R   0.376407 0.363614 0.128737 0.004372
C37   C     C_R   0.912291 0.206676 0.243165 0.016301
C38   C     C_R   0.123592 0.863612 0.871261 0.004373
C39   C     C_R   0.087709 0.206675 0.756838 0.016304
C40   C     C_R   0.876408 0.863612 0.128739 0.004375
C41   C     C_R   0.420353 0.787218 0.162451 -0.207686
C42   C     C_R   0.622229 0.286698 0.962738 -0.209861
C43   C     C_R   0.579648 0.787218 0.837552 -0.207687
C44   C     C_R   0.377771 0.286699 0.037260 -0.209862
C45   C     C_R   0.920353 0.287219 0.162453 -0.207677
C46   C     C_R   0.122228 0.786696 0.962735 -0.209857
C47   C     C_R   0.079648 0.287218 0.837553 -0.207678
C48   C     C_R   0.877772 0.786696 0.037262 -0.209858
C49   C     C_R   0.440814 0.736814 0.214602 -0.254079
C50   C     C_R   0.596756 0.320203 0.886361 -0.174672
C51   C     C_R   0.559186 0.736814 0.785400 -0.254092
C52   C     C_R   0.403244 0.320204 0.113637 -0.174671
C53   C     C_R   0.940814 0.236815 0.214604 -0.254076
C54   C     C_R   0.096756 0.820202 0.886359 -0.174673
C55   C     C_R   0.059186 0.236813 0.785401 -0.254080
C56   C     C_R   0.903244 0.820202 0.113639 -0.174673
C57   C     C_R   0.369101 0.735802 0.234690 0.553888
C58   C     C_R   0.676416 0.374213 0.934383 0.540236
C59   C     C_R   0.630899 0.735801 0.765312 0.553883
C60   C     C_R   0.323584 0.374213 0.065617 0.540233
C61   C     C_R   0.869101 0.235802 0.234691 0.553888
C62   C     C_R   0.176415 0.874211 0.934382 0.540234
C63   C     C_R   0.130899 0.235801 0.765312 0.553886
C64   C     C_R   0.823585 0.874211 0.065618 0.540235
C65   C     C_R   0.341524 0.777404 0.165510 -0.115860
C66   C     C_R   0.705241 0.332913 0.004189 -0.112386
C67   C     C_R   0.658476 0.777404 0.834491 -0.115860
C68   C     C_R   0.294758 0.332913 0.995811 -0.112384
C69   C     C_R   0.841524 0.277405 0.165513 -0.115859
C70   C     C_R   0.205241 0.832911 0.004187 -0.112387
C71   C     C_R   0.158476 0.277404 0.834491 -0.115860
C72   C     C_R   0.794759 0.832911 0.995812 -0.112387
C73   C     C_R   0.369392 0.806154 0.133068 -0.037357
C74   C     C_R   0.676361 0.292141 0.022215 -0.043530
C75   C     C_R   0.630608 0.806153 0.866934 -0.037354
C76   C     C_R   0.323639 0.292141 0.977784 -0.043531
C77   C     C_R   0.869393 0.306155 0.133071 -0.037364
C78   C     C_R   0.176360 0.792139 0.022212 -0.043527
C79   C     C_R   0.130608 0.306154 0.866934 -0.037362
C80   C     C_R   0.823640 0.792139 0.977786 -0.043530
C81   C     C_R   0.286722 0.786836 0.123205 -0.000734
C82   C     C_R   0.760974 0.328278 0.052697 0.008338
C83   C     C_R   0.713278 0.786836 0.876795 -0.000736
C84   C     C_R   0.239026 0.328278 0.947304 0.008337
C85   C     C_R   0.786723 0.286838 0.123207 -0.000735
C86   C     C_R   0.260974 0.828277 0.052695 0.008341
C87   C     C_R   0.213277 0.286837 0.876795 -0.000736
C88   C     C_R   0.739026 0.828277 0.947305 0.008336
C89   C     C_R   0.644154 0.580594 0.570863 -0.172887
C90   C     C_R   0.371538 0.393668 0.425049 -0.197012
C91   C     C_R   0.355845 0.580593 0.429137 -0.172903
C92   C     C_R   0.628462 0.393668 0.574950 -0.197005
C93   C     C_R   0.144154 0.080595 0.570863 -0.172882
C94   C     C_R   0.871537 0.893669 0.425050 -0.197006
C95   C     C_R   0.855845 0.080594 0.429137 -0.172888
C96   C     C_R   0.128465 0.893670 0.574950 -0.196998
C97   C     C_R   0.791164 0.358566 0.026514 -0.205500
C98   C     C_R   0.256203 0.750750 0.142416 -0.229143
C99   C     C_R   0.208836 0.358565 0.973490 -0.205495
C100  C     C_R   0.743796 0.750751 0.857583 -0.229139
C101  C     C_R   0.291163 0.858565 0.026511 -0.205503
C102  C     C_R   0.756204 0.250753 0.142419 -0.229142
C103  C     C_R   0.708837 0.858564 0.973491 -0.205502
C104  C     C_R   0.243796 0.250752 0.857581 -0.229138
C105  C     C_R   0.844521 0.350045 0.067748 0.481643
C106  C     C_R   0.202450 0.754447 0.095755 0.482148
C107  C     C_R   0.155480 0.350044 0.932257 0.481643
C108  C     C_R   0.797550 0.754447 0.904243 0.482151
C109  C     C_R   0.344520 0.850044 0.067745 0.481638
C110  C     C_R   0.702450 0.254449 0.095758 0.482152
C111  C     C_R   0.655480 0.850044 0.932257 0.481642
C112  C     C_R   0.297549 0.254449 0.904241 0.482150
C113  C     C_R   0.595596 0.578875 0.424879 0.566438
C114  C     C_R   0.424084 0.388444 0.570409 0.475700
C115  C     C_R   0.404403 0.578872 0.575120 0.566449
C116  C     C_R   0.575918 0.388445 0.429590 0.475704
C117  C     C_R   0.095595 0.078876 0.424879 0.566433
C118  C     C_R   0.924082 0.888446 0.570409 0.475704
C119  C     C_R   0.904404 0.078875 0.575121 0.566436
C120  C     C_R   0.075922 0.888449 0.429589 0.475711
C121  C     C_R   0.395809 0.610576 0.300104 -0.164050
C122  C     C_R   0.616835 0.413338 0.738339 -0.208051
C123  C     C_R   0.604191 0.610576 0.699897 -0.164051
C124  C     C_R   0.383165 0.413338 0.261660 -0.208049
C125  C     C_R   0.895809 0.110576 0.300105 -0.164049
C126  C     C_R   0.116835 0.913337 0.738339 -0.208046
C127  C     C_R   0.104191 0.110576 0.699897 -0.164050
C128  C     C_R   0.883165 0.913337 0.261661 -0.208045
C129  C     C_R   0.574660 0.645186 0.721233 -0.085943
C130  C     C_R   0.403563 0.395677 0.213053 -0.058295
C131  C     C_R   0.425340 0.645186 0.278768 -0.085943
C132  C     C_R   0.596437 0.395677 0.786947 -0.058293
C133  C     C_R   0.074660 0.145186 0.721233 -0.085942
C134  C     C_R   0.903563 0.895675 0.213054 -0.058294
C135  C     C_R   0.925340 0.145186 0.278769 -0.085942
C136  C     C_R   0.096437 0.895676 0.786946 -0.058293
C137  C     C_R   0.643965 0.594847 0.496106 -0.103262
C138  C     C_R   0.384653 0.359191 0.497047 -0.065788
C139  C     C_R   0.356033 0.594844 0.503894 -0.103261
C140  C     C_R   0.615349 0.359192 0.502952 -0.065796
C141  C     C_R   0.143964 0.094849 0.496106 -0.103260
C142  C     C_R   0.884650 0.859193 0.497047 -0.065796
C143  C     C_R   0.856035 0.094847 0.503894 -0.103260
C144  C     C_R   0.115355 0.859197 0.502950 -0.065813
C145  C     C_R   0.220002 0.618555 0.450976 -0.145653
C146  C     C_R   0.679152 0.209964 0.568947 -0.147834
C147  C     C_R   0.779989 0.618555 0.548993 -0.145626
C148  C     C_R   0.320840 0.209969 0.431039 -0.147863
C149  C     C_R   0.720010 0.118553 0.451006 -0.145625
C150  C     C_R   0.179138 0.709958 0.568921 -0.147778
C151  C     C_R   0.279985 0.118553 0.548979 -0.145608
C152  C     C_R   0.820846 0.709966 0.431051 -0.147832
C153  C     C_R   0.261197 0.596403 0.446680 -0.144380
C154  C     C_R   0.654737 0.261806 0.569542 -0.160092
C155  C     C_R   0.738798 0.596401 0.553297 -0.144368
C156  C     C_R   0.345258 0.261808 0.430447 -0.160089
C157  C     C_R   0.761201 0.096400 0.446702 -0.144367
C158  C     C_R   0.154730 0.761803 0.569525 -0.160118
C159  C     C_R   0.238796 0.096399 0.553287 -0.144366
C160  C     C_R   0.845261 0.761807 0.430456 -0.160095
C161  C     C_R   0.312129 0.614515 0.508951 0.076047
C162  C     C_R   0.639139 0.303436 0.502265 0.078033
C163  C     C_R   0.687866 0.614525 0.491047 0.076010
C164  C     C_R   0.360863 0.303434 0.497733 0.078027
C165  C     C_R   0.812133 0.114523 0.508953 0.076010
C166  C     C_R   0.139146 0.803441 0.502262 0.078047
C167  C     C_R   0.187864 0.114528 0.491046 0.075987
C168  C     C_R   0.860860 0.803437 0.497735 0.078035
H1    H     H_    0.555929 0.311612 0.838320 0.186814
H2    H     H_    0.478419 0.721429 0.230400 0.201542
H3    H     H_    0.444072 0.311613 0.161678 0.186813
H4    H     H_    0.521581 0.721429 0.769602 0.201531
H5    H     H_    0.055928 0.811610 0.838318 0.186812
H6    H     H_    0.978419 0.221429 0.230402 0.201548
H7    H     H_    0.944072 0.811610 0.161680 0.186810
H8    H     H_    0.021581 0.221428 0.769604 0.201543
H9    H     H_    0.442978 0.807141 0.138969 0.154329
H10   H     H_    0.599584 0.253452 0.970838 0.161785
H11   H     H_    0.557022 0.807141 0.861034 0.154323
H12   H     H_    0.400415 0.253453 0.029159 0.161784
H13   H     H_    0.942979 0.307142 0.138972 0.154334
H14   H     H_    0.099584 0.753450 0.970835 0.161784
H15   H     H_    0.057022 0.307141 0.861036 0.154332
H16   H     H_    0.900416 0.753450 0.029161 0.161783
H17   H     H_    0.774376 0.386878 0.969768 0.221373
H18   H     H_    0.272456 0.715869 0.190492 0.213886
H19   H     H_    0.225625 0.386877 0.030237 0.221372
H20   H     H_    0.727544 0.715869 0.809507 0.213886
H21   H     H_    0.274375 0.886877 0.969765 0.221371
H22   H     H_    0.772456 0.215871 0.190495 0.213886
H23   H     H_    0.725625 0.886877 0.030237 0.221373
H24   H     H_    0.227543 0.215871 0.809505 0.213886
H25   H     H_    0.678068 0.578219 0.637331 0.134787
H26   H     H_    0.341558 0.384474 0.357410 0.131846
H27   H     H_    0.321932 0.578217 0.362669 0.134783
H28   H     H_    0.658443 0.384474 0.642589 0.131846
H29   H     H_    0.178068 0.078219 0.637330 0.134789
H30   H     H_    0.841557 0.884475 0.357411 0.131846
H31   H     H_    0.821932 0.078218 0.362669 0.134787
H32   H     H_    0.158445 0.884476 0.642589 0.131843
H33   H     H_    0.358951 0.621431 0.291556 0.186374
H34   H     H_    0.657458 0.412323 0.759751 0.170145
H35   H     H_    0.641049 0.621431 0.708445 0.186373
H36   H     H_    0.342542 0.412323 0.240248 0.170145
H37   H     H_    0.858951 0.121431 0.291557 0.186374
H38   H     H_    0.157457 0.912321 0.759750 0.170142
H39   H     H_    0.141049 0.121431 0.708445 0.186373
H40   H     H_    0.842543 0.912322 0.240249 0.170145
H41   H     H_    0.180412 0.607633 0.399141 0.159748
H42   H     H_    0.694076 0.179607 0.624010 0.155373
H43   H     H_    0.819580 0.607621 0.600811 0.159722
H44   H     H_    0.305908 0.179616 0.375969 0.155374
H45   H     H_    0.680420 0.107619 0.399187 0.159721
H46   H     H_    0.194051 0.679593 0.623974 0.155377
H47   H     H_    0.319576 0.107614 0.600790 0.159713
H48   H     H_    0.805920 0.679609 0.375987 0.155372
H49   H     H_    0.253188 0.566472 0.393792 0.131022
H50   H     H_    0.649066 0.270000 0.623187 0.131436
H51   H     H_    0.746808 0.566459 0.606174 0.131017
H52   H     H_    0.350924 0.270005 0.376799 0.131438
H53   H     H_    0.753192 0.066458 0.393825 0.131017
H54   H     H_    0.149053 0.769993 0.623163 0.131434
H55   H     H_    0.246807 0.066452 0.606159 0.131016
H56   H     H_    0.850931 0.770001 0.376811 0.131436
H57   H     H_    0.361410 0.665611 0.627203 0.181350
H58   H     H_    0.634107 0.324045 0.380365 0.177999
H59   H     H_    0.638580 0.665649 0.372827 0.181376
H60   H     H_    0.365904 0.324037 0.619642 0.178010
H61   H     H_    0.861418 0.165646 0.627175 0.181378
H62   H     H_    0.134128 0.824061 0.380377 0.177979
H63   H     H_    0.138577 0.165665 0.372839 0.181392
H64   H     H_    0.865893 0.824046 0.619635 0.178000
N1    N     N_R   0.532910 0.558440 0.665240 -0.122305
N2    N     N_R   0.467090 0.441560 0.334760 -0.114062
N3    N     N_R   0.467090 0.558440 0.334760 -0.122306
N4    N     N_R   0.532910 0.441560 0.665240 -0.114061
N5    N     N_R   0.032910 0.058440 0.665240 -0.122305
N6    N     N_R   0.967090 0.941560 0.334760 -0.114066
N7    N     N_R   0.967090 0.058440 0.334760 -0.122306
N8    N     N_R   0.032910 0.941560 0.665240 -0.114063
N9    N     N_R   0.597030 0.558910 0.545540 -0.066167
N10   N     N_R   0.402970 0.441090 0.454460 -0.060411
N11   N     N_R   0.402970 0.558910 0.454460 -0.066165
N12   N     N_R   0.597030 0.441090 0.545540 -0.060412
N13   N     N_R   0.097030 0.058910 0.545540 -0.066168
N14   N     N_R   0.902970 0.941090 0.454460 -0.060412
N15   N     N_R   0.902970 0.058910 0.454460 -0.066167
N16   N     N_R   0.097030 0.941090 0.545540 -0.060413
N17   N     N_R   0.566200 0.559270 0.454460 -0.091709
N18   N     N_R   0.433800 0.440730 0.545540 -0.089158
N19   N     N_R   0.433800 0.559270 0.545540 -0.091708
N20   N     N_R   0.566200 0.440730 0.454460 -0.089157
N21   N     N_R   0.066200 0.059270 0.454460 -0.091710
N22   N     N_R   0.933800 0.940730 0.545540 -0.089157
N23   N     N_R   0.933800 0.059270 0.545540 -0.091709
N24   N     N_R   0.066200 0.940730 0.454460 -0.089154
N25   N     N_R   0.421050 0.559750 0.334770 -0.077451
N26   N     N_R   0.578950 0.440250 0.665230 -0.072202
N27   N     N_R   0.578950 0.559750 0.665230 -0.077451
N28   N     N_R   0.421050 0.440250 0.334770 -0.072201
N29   N     N_R   0.921050 0.059750 0.334770 -0.077451
N30   N     N_R   0.078950 0.940250 0.665230 -0.072203
N31   N     N_R   0.078950 0.059750 0.665230 -0.077452
N32   N     N_R   0.921050 0.940250 0.334770 -0.072202
Ni1   Ni    Ni4+2 0.483090 0.500000 0.604440 0.233438
Ni2   Ni    Ni4+2 0.516910 0.500000 0.395560 0.233442
Ni3   Ni    Ni4+2 0.983090 0.000000 0.604440 0.233441
Ni4   Ni    Ni4+2 0.016910 0.000000 0.395560 0.233445
Ni5   Ni    Ni4+2 0.586780 0.500000 0.604440 0.190959
Ni6   Ni    Ni4+2 0.413220 0.500000 0.395560 0.190958
Ni7   Ni    Ni4+2 0.086780 0.000000 0.604440 0.190957
Ni8   Ni    Ni4+2 0.913220 0.000000 0.395560 0.190958
O1    O     O_3   0.502370 0.618124 0.739519 -0.601288
C169  C     C_3   0.532365 0.604719 0.830817 -0.248025
H65   H     H_    0.559298 0.641286 0.869651 0.148710
H66   H     H_    0.555607 0.563370 0.846037 0.109840
H67   H     H_    0.505532 0.598696 0.854134 0.183323
O2    O     O_3   0.480228 0.419795 0.212022 -0.629708
C170  C     C_3   0.514952 0.467459 0.237426 -0.058918
H68   H     H_    0.505603 0.504104 0.266171 0.155903
H69   H     H_    0.512835 0.484601 0.177787 0.132408
H70   H     H_    0.555627 0.452815 0.283345 0.185924
O3    O     O_3   0.497628 0.618123 0.260477 -0.601281
C171  C     C_3   0.467631 0.604718 0.169180 -0.248012
H71   H     H_    0.440696 0.641284 0.130347 0.148708
H72   H     H_    0.444389 0.563369 0.153962 0.109837
H73   H     H_    0.494463 0.598695 0.145859 0.183322
O4    O     O_3   0.519772 0.419794 0.787978 -0.629706
C172  C     C_3   0.485047 0.467458 0.762573 -0.058937
H74   H     H_    0.494397 0.504104 0.733830 0.155908
H75   H     H_    0.487163 0.484599 0.822212 0.132412
H76   H     H_    0.444373 0.452813 0.716653 0.185921
O5    O     O_3   0.002372 0.118123 0.739524 -0.601281
C173  C     C_3   0.032369 0.104717 0.830821 -0.248011
H77   H     H_    0.059304 0.141283 0.869654 0.148709
H78   H     H_    0.055611 0.063368 0.846038 0.109837
H79   H     H_    0.005538 0.098695 0.854142 0.183324
O6    O     O_3   0.980228 0.919794 0.212022 -0.629704
C174  C     C_3   0.014949 0.967461 0.237421 -0.058895
H80   H     H_    0.005601 0.004105 0.266170 0.155895
H81   H     H_    0.012827 0.984604 0.177779 0.132398
H82   H     H_    0.055625 0.952819 0.283335 0.185932
O7    O     O_3   0.997627 0.118123 0.260476 -0.601279
C175  C     C_3   0.967630 0.104719 0.169178 -0.248003
H83   H     H_    0.940695 0.141286 0.130347 0.148710
H84   H     H_    0.944387 0.063370 0.153960 0.109832
H85   H     H_    0.994460 0.098696 0.145856 0.183323
O8    O     O_3   0.019772 0.919794 0.787978 -0.629707
C176  C     C_3   0.985048 0.967459 0.762575 -0.058919
H86   H     H_    0.994397 0.004104 0.733829 0.155904
H87   H     H_    0.987166 0.984601 0.822214 0.132408
H88   H     H_    0.944374 0.952815 0.716656 0.185924
O9    O     O_3   0.697903 0.426607 0.928953 -0.647897
C177  C     C_3   0.695206 0.468476 0.984446 -0.238696
H89   H     H_    0.718596 0.454230 0.054736 0.140891
H90   H     H_    0.654099 0.477127 0.963613 0.138791
H91   H     H_    0.711829 0.510781 0.979311 0.178526
O10   O     O_3   0.356781 0.725553 0.297356 -0.652710
C178  C     C_3   0.368964 0.776280 0.350602 -0.256856
H92   H     H_    0.342834 0.813825 0.312500 0.143359
H93   H     H_    0.410529 0.789268 0.381345 0.141804
H94   H     H_    0.362881 0.765910 0.404754 0.171634
O11   O     O_3   0.302097 0.426607 0.071048 -0.647896
C179  C     C_3   0.304794 0.468477 0.015555 -0.238688
H95   H     H_    0.281405 0.454232 0.945265 0.140891
H96   H     H_    0.345902 0.477128 0.036390 0.138788
H97   H     H_    0.288172 0.510781 0.020691 0.178525
O12   O     O_3   0.643219 0.725553 0.702645 -0.652710
C180  C     C_3   0.631034 0.776280 0.649397 -0.256853
H98   H     H_    0.657163 0.813825 0.687499 0.143358
H99   H     H_    0.589468 0.789267 0.618656 0.141803
H100  H     H_    0.637116 0.765909 0.595246 0.171636
O13   O     O_3   0.197902 0.926606 0.928952 -0.647897
C181  C     C_3   0.195205 0.968475 0.984445 -0.238693
H101  H     H_    0.218595 0.954229 0.054735 0.140891
H102  H     H_    0.154098 0.977126 0.963612 0.138790
H103  H     H_    0.211827 0.010779 0.979310 0.178524
O14   O     O_3   0.856781 0.225553 0.297358 -0.652710
C182  C     C_3   0.868965 0.276280 0.350605 -0.256856
H104  H     H_    0.842835 0.313825 0.312504 0.143359
H105  H     H_    0.910531 0.289267 0.381348 0.141804
H106  H     H_    0.862883 0.265909 0.404756 0.171636
O15   O     O_3   0.802098 0.926606 0.071049 -0.647896
C183  C     C_3   0.804793 0.968474 0.015553 -0.238697
H107  H     H_    0.781401 0.954228 0.945264 0.140893
H108  H     H_    0.845900 0.977124 0.036383 0.138790
H109  H     H_    0.788172 0.010779 0.020691 0.178525
O16   O     O_3   0.143218 0.225553 0.702644 -0.652711
C184  C     C_3   0.131032 0.276280 0.649396 -0.256848
H110  H     H_    0.157161 0.313825 0.687497 0.143358
H111  H     H_    0.089466 0.289266 0.618654 0.141803
H112  H     H_    0.137114 0.265909 0.595244 0.171636
O17   O     O_3   0.585208 0.563901 0.342721 -0.774436
H113  H     H_    0.618225 0.561719 0.344561 0.308106
O18   O     O_3   0.454400 0.363409 0.652158 -0.773322
H114  H     H_    0.451870 0.319821 0.646176 0.318962
O19   O     O_3   0.414791 0.563895 0.657277 -0.774450
H115  H     H_    0.381773 0.561696 0.655430 0.308094
O20   O     O_3   0.545603 0.363411 0.347840 -0.773320
H116  H     H_    0.548136 0.319823 0.353819 0.318963
O21   O     O_3   0.085207 0.063903 0.342721 -0.774435
H117  H     H_    0.118223 0.061728 0.344558 0.308116
O22   O     O_3   0.954397 0.863411 0.652159 -0.773320
H118  H     H_    0.951864 0.819823 0.646179 0.318962
O23   O     O_3   0.914792 0.063900 0.657279 -0.774440
H119  H     H_    0.881776 0.061718 0.655439 0.308108
O24   O     O_3   0.045609 0.863415 0.347837 -0.773314
H120  H     H_    0.048149 0.819827 0.353813 0.318965
O25   O     O_3   0.791189 0.212466 0.650969 -0.615669
C185  C     C_3   0.805081 0.268796 0.636343 -0.233145
H121  H     H_    0.772740 0.288863 0.574403 0.120841
H122  H     H_    0.841304 0.267214 0.635458 0.128772
H123  H     H_    0.812718 0.298258 0.691406 0.185012
O26   O     O_3   0.176879 0.729550 0.362014 -0.607905
C186  C     C_3   0.217534 0.765031 0.370787 -0.216057
H124  H     H_    0.255298 0.754184 0.432209 0.117785
H125  H     H_    0.208832 0.812984 0.368598 0.117836
H126  H     H_    0.221898 0.755581 0.314522 0.202291
O27   O     O_3   0.208798 0.212488 0.349039 -0.615652
C187  C     C_3   0.194953 0.268828 0.363727 -0.233189
H127  H     H_    0.227347 0.288897 0.425610 0.120938
H128  H     H_    0.158778 0.267267 0.364771 0.128682
H129  H     H_    0.187249 0.298277 0.308611 0.185031
O28   O     O_3   0.823122 0.729545 0.637976 -0.607887
C188  C     C_3   0.782482 0.765047 0.629217 -0.216049
H130  H     H_    0.744719 0.754256 0.567756 0.117708
H131  H     H_    0.791223 0.812994 0.631495 0.117883
H132  H     H_    0.778086 0.755566 0.685441 0.202289
O29   O     O_3   0.291165 0.712420 0.650989 -0.615717
C189  C     C_3   0.305136 0.768735 0.636468 -0.232925
H133  H     H_    0.272903 0.788780 0.574369 0.120564
H134  H     H_    0.341483 0.767128 0.635958 0.128957
H135  H     H_    0.312600 0.798232 0.691403 0.184975
O30   O     O_3   0.676879 0.229543 0.362025 -0.607887
C190  C     C_3   0.717519 0.265046 0.370785 -0.216053
H136  H     H_    0.755281 0.254255 0.432248 0.117706
H137  H     H_    0.708776 0.312993 0.368505 0.117885
H138  H     H_    0.721916 0.255564 0.314563 0.202291
O31   O     O_3   0.708809 0.712469 0.349032 -0.615669
C191  C     C_3   0.694916 0.768798 0.363658 -0.233149
H139  H     H_    0.727254 0.788864 0.425601 0.120836
H140  H     H_    0.658691 0.767216 0.364536 0.128777
H141  H     H_    0.687282 0.798262 0.308598 0.185013
O32   O     O_3   0.323126 0.229538 0.637974 -0.607879
C192  C     C_3   0.282493 0.265050 0.629226 -0.216052
H142  H     H_    0.244731 0.254286 0.567746 0.117671
H143  H     H_    0.291255 0.312995 0.631548 0.117906
H144  H     H_    0.278084 0.255552 0.685431 0.202296
O33   O     O_3   0.870004 0.383047 0.037622 -0.748211
H145  H     H_    0.905754 0.391266 0.088064 0.311628
O34   O     O_3   0.176840 0.717904 0.121879 -0.748147
H146  H     H_    0.145617 0.738970 0.112000 0.319592
O35   O     O_3   0.129997 0.383045 0.962385 -0.748209
H147  H     H_    0.094247 0.391264 0.911944 0.311629
O36   O     O_3   0.823159 0.717905 0.878117 -0.748142
H148  H     H_    0.854382 0.738971 0.887996 0.319592
O37   O     O_3   0.370003 0.883045 0.037619 -0.748219
H149  H     H_    0.405753 0.891265 0.088060 0.311629
O38   O     O_3   0.676841 0.217907 0.121882 -0.748142
H150  H     H_    0.645617 0.238974 0.112004 0.319592
O39   O     O_3   0.629998 0.883045 0.962384 -0.748213
H151  H     H_    0.594248 0.891265 0.911943 0.311627
O40   O     O_3   0.323159 0.217908 0.878115 -0.748144
H152  H     H_    0.354381 0.238974 0.887994 0.319591

loop_
_geom_bond_atom_site_label_1
_geom_bond_atom_site_label_2
_ccdc_geom_bond_type
O19   H115  S    
C119  C143  A    
C120  C144  A    
C99   H19   S    
N1    N27   A    
O13   C181  S    
N2    N28   A    
C6    N6    A    
C3    C131  A    
C171  H71   S    
N13   Ni7   S    
N14   Ni8   S    
C148  H44   S    
N5    N31   A    
C104  H24   S    
C62   C70   A    
C169  H65   S    
C127  H39   S    
N29   Ni8   S    
C3    N3    A    
N30   Ni7   S    
C175  H85   S    
C1    N1    A    
C179  H95   S    
C110  O38   S    
C37   C135  S    
C38   C136  S    
C147  C155  A    
C81   C86   A    
C97   C105  A    
C125  C135  A    
N3    Ni2   S    
C8    N8    A    
C83   C88   A    
N24   Ni4   S    
C126  C136  A    
C10   C162  A    
C151  H47   S    
C41   C49   A    
C43   C75   A    
O11   C179  S    
C150  H46   S    
N9    N17   A    
C47   H15   S    
C48   H16   S    
C189  H134  S    
C20   C28   A    
C123  N27   A    
C177  H89   S    
N13   N21   A    
C153  C161  A    
C23   C31   A    
C97   H17   S    
C24   C32   A    
C36   C130  S    
C66   C82   A    
C91   H27   S    
O18   H114  S    
C146  C154  A    
C107  O35   S    
C43   H11   S    
C12   C20   A    
C13   C21   A    
C156  H52   S    
C108  O36   S    
C58   O9    S    
C93   N13   A    
C160  H56   S    
C63   C71   A    
C83   C100  A    
C35   C51   A    
N4    Ni1   S    
C113  C137  A    
O6    C174  S    
C104  C112  A    
C100  H20   S    
N4    N26   A    
C171  H73   S    
N18   Ni1   S    
N8    N30   A    
C92   H28   S    
C74   C110  A    
C186  H124  S    
C82   C85   A    
C101  H21   S    
C98   C106  A    
C123  H35   S    
N5    Ni3   S    
C17   C25   A    
N6    Ni4   S    
C121  H33   S    
O23   H119  S    
N15   Ni8   S    
C181  H103  S    
N16   Ni7   S    
C42   H10   S    
C179  H97   S    
C125  H37   S    
O16   C184  S    
C159  C167  A    
N7    Ni4   S    
C50   H1    S    
C160  C168  A    
C149  H45   S    
C14   H62   S    
C12   H60   S    
O30   C190  S    
C142  C168  S    
O20   H116  S    
C34   C58   A    
C128  H40   S    
O33   H145  S    
C192  H142  S    
C101  C109  A    
C187  H127  S    
C188  H131  S    
C7    O7    S    
C178  H93   S    
C67   C83   A    
O39   H151  S    
C69   C77   A    
O38   H150  S    
C43   C51   A    
C71   C79   A    
C185  H121  S    
C4    C132  A    
C5    C133  A    
C152  H48   S    
C41   H9    S    
C10   C18   A    
C49   H2    S    
C115  N19   A    
C140  C162  S    
O31   C191  S    
C66   C74   A    
C18   O30   S    
C113  N17   A    
C26   C146  A    
N26   Ni5   S    
O26   C186  S    
C19   O31   S    
C59   C67   A    
C117  N21   A    
C89   N9    A    
C14   C166  A    
N19   Ni1   S    
C153  H49   S    
C36   C52   A    
N3    N25   A    
C37   C53   A    
C44   C52   A    
N31   Ni7   S    
C45   C53   A    
C109  O37   S    
C157  H53   S    
C180  H99   S    
C15   C167  A    
C90   C138  A    
C145  H41   S    
C176  H87   S    
C116  O20   S    
C100  C108  A    
N11   N19   A    
C94   C142  A    
O32   C192  S    
C192  H144  S    
C157  C165  A    
C137  C163  S    
C181  H101  S    
C155  C163  A    
C40   C134  S    
C178  H92   S    
C151  C159  A    
C93   H29   S    
O5    C173  S    
C128  C134  A    
C31   C151  A    
C32   C152  A    
C170  H68   S    
C11   C163  A    
C172  H74   S    
C57   O10   S    
C9    C161  A    
C124  N28   A    
C23   O27   S    
C42   C50   A    
C187  H129  S    
N20   Ni2   S    
C184  H112  S    
C61   O14   S    
C90   N10   A    
C115  O19   S    
C67   C75   A    
C184  H111  S    
C120  O24   S    
C69   C85   A    
C4    N4    A    
C186  H126  S    
C9    C17   A    
C96   H32   S    
C22   C30   A    
C15   H63   S    
C154  C162  A    
C183  H108  S    
O12   C180  S    
C63   O16   S    
C2    O2    S    
C68   C76   A    
C80   C108  A    
C46   H14   S    
C171  H72   S    
N11   Ni6   S    
C72   C80   A    
N23   Ni3   S    
N9    Ni5   S    
C169  H66   S    
C114  C138  A    
N28   Ni6   S    
C174  H82   S    
C55   H8    S    
C41   C73   A    
C182  H106  S    
C103  H23   S    
C183  H107  S    
C11   H59   S    
C33   C49   A    
C125  N29   A    
O3    C171  S    
O2    C170  S    
N7    N29   A    
C9    H57   S    
C38   C62   A    
C85   C102  A    
C121  N25   A    
C95   C143  A    
O35   H147  S    
C8    C136  A    
C169  H67   S    
N6    N32   A    
C18   C26   A    
C44   H12   S    
C91   N11   A    
O17   H113  S    
C45   H13   S    
O27   C187  S    
C11   C19   A    
C184  H110  S    
C5    N5    A    
C51   H4    S    
C17   O29   S    
C173  H77   S    
C190  H138  S    
C30   C150  A    
C81   C98   A    
C177  H90   S    
C172  H76   S    
C103  C111  A    
C143  C165  S    
C2    N2    A    
C39   C55   A    
C40   C56   A    
O22   H118  S    
C155  H51   S    
N27   Ni5   S    
C177  H91   S    
C1    C129  A    
N32   Ni8   S    
C191  H141  S    
C147  H43   S    
N21   Ni4   S    
N22   Ni3   S    
C42   C74   A    
C141  C167  S    
N12   Ni5   S    
C68   C84   A    
C139  C161  S    
C173  H79   S    
C106  O34   S    
C46   C78   A    
C191  H139  S    
N14   N22   A    
C118  C142  A    
C144  C166  S    
N10   N18   A    
C117  C141  A    
C174  H80   S    
C5    O5    S    
C12   C164  A    
C62   O13   S    
C65   C81   A    
C182  H104  S    
C38   C54   A    
C183  H109  S    
C46   C54   A    
C20   O32   S    
C79   C107  A    
C94   N14   A    
C71   C87   A    
C89   C137  A    
C82   C97   A    
C102  C110  A    
C92   C140  A    
C93   C141  A    
C37   C61   A    
C158  C166  A    
C187  H128  S    
C188  H130  S    
C39   C133  S    
C25   C30   S    
C150  C158  A    
C27   C32   S    
C84   C99   A    
C28   C31   S    
C127  C133  A    
C60   O11   S    
C57   C65   A    
C119  N23   A    
C185  H122  S    
C190  H136  S    
C73   C109  A    
C189  H133  S    
C111  O39   S    
C99   C107  A    
C8    O8    S    
C75   C111  A    
C122  H34   S    
C77   C105  A    
C112  O40   S    
C98   H18   S    
C170  H69   S    
C14   C22   A    
O9    C177  S    
C21   C29   A    
C126  H38   S    
C2    C130  A    
C127  N31   A    
C78   C106  A    
C128  N32   A    
C185  H123  S    
C13   H61   S    
C87   C104  A    
C60   C68   A    
O34   H146  S    
C148  C156  A    
C95   H31   S    
C149  C157  A    
C96   N16   A    
N15   N23   A    
O15   C183  S    
C152  C160  A    
C70   C78   A    
C92   N12   A    
C180  H98   S    
C16   C24   A    
O24   H120  S    
C84   C87   A    
C47   C79   A    
O28   C188  S    
C189  H135  S    
O37   H149  S    
C176  H86   S    
C4    O4    S    
C124  H36   S    
N10   Ni6   S    
C54   H5    S    
C192  H143  S    
C181  H102  S    
N2    Ni2   S    
C96   C144  A    
C114  N18   A    
C65   C73   A    
C126  N30   A    
C44   C76   A    
C170  H70   S    
C22   O26   S    
C119  O23   S    
C118  N22   A    
C13   C165  A    
C58   C66   A    
O7    C175  S    
C90   H26   S    
C154  H50   S    
C19   C27   A    
C35   C129  S    
C1    O1    S    
C188  H132  S    
C95   N15   A    
C33   C131  S    
C15   C23   A    
C178  H94   S    
C89   H25   S    
C158  H54   S    
C123  C129  A    
C72   C88   A    
N8    Ni3   S    
C121  C131  A    
C52   H3    S    
C122  C132  A    
C146  H42   S    
C122  N26   A    
C53   H6    S    
C102  H22   S    
C186  H125  S    
C35   C59   A    
C34   C50   A    
C56   H7    S    
C124  C130  A    
C191  H140  S    
C6    O6    S    
O40   H152  S    
C24   O28   S    
C116  N20   A    
C114  O18   S    
N1    Ni1   S    
C118  O22   S    
C16   H64   S    
C94   H30   S    
N17   Ni2   S    
C105  O33   S    
C120  N24   A    
C7    C135  A    
O10   C178  S    
O36   H148  S    
C76   C112  A    
O1    C169  S    
C174  H81   S    
C179  H96   S    
C175  H83   S    
C182  H105  S    
C7    N7    A    
C180  H100  S    
C91   C139  A    
C70   C86   A    
C88   C103  A    
O8    C176  S    
C47   C55   A    
O25   C185  S    
C176  H88   S    
C61   C69   A    
C48   C56   A    
C21   O25   S    
C33   C57   A    
N12   N20   A    
C28   C148  A    
C115  C139  A    
C36   C60   A    
C25   C145  A    
N16   N24   A    
C39   C63   A    
O21   H117  S    
C64   O15   S    
C113  O17   S    
C40   C64   A    
C117  O21   S    
C59   O12   S    
O4    C172  S    
C48   C80   A    
C145  C153  A    
C6    C134  A    
C173  H78   S    
C190  H137  S    
O29   C189  S    
C16   C168  A    
C159  H55   S    
C175  H84   S    
C172  H75   S    
C64   C72   A    
C29   C149  A    
C34   C132  S    
C3    O3    S    
C156  C164  A    
C26   C29   S    
C27   C147  A    
O14   C182  S    
C10   H58   S    
C138  C164  S    
N25   Ni6   S    
C45   C77   A    
C86   C101  A    
C116  C140  A    
