data_mof_unit_64967.cif
_audit_creation_date              2012-12-10T16:42:42-0500
_audit_creation_method            fapswitch 2.2
_symmetry_space_group_name_H-M    P1
_symmetry_Int_Tables_number       1
_space_group_crystal_system       triclinic
_cell_length_a                    15.893469
_cell_length_b                    17.964846
_cell_length_c                    29.238566
_cell_angle_alpha                 90.088298
_cell_angle_beta                  89.706474
_cell_angle_gamma                 89.909116
_cell_volume                      8348.17414762

loop_
_atom_site_label
_atom_site_type_symbol
_atom_type_description
_atom_site_fract_x
_atom_site_fract_y
_atom_site_fract_z
_atom_type_partial_charge
C1    C     C_R   0.499922 0.390038 0.058940 0.718986
C2    C     C_R   0.499820 0.610133 0.058868 0.742332
C3    C     C_R   0.780784 0.999434 0.736348 0.137840
C4    C     C_R   0.392626 0.001035 0.666517 0.135399
C5    C     C_R   0.946156 0.000455 0.702838 0.055336
C6    C     C_R   0.309220 0.004451 0.582481 0.027899
C7    C     C_1   0.521318 0.932195 0.810170 -0.000735
C8    C     C_1   0.521580 0.066759 0.810418 -0.000975
C9    C     C_1   0.623804 0.999337 0.766910 -0.005522
C10   C     C_1   0.481389 0.999851 0.742734 -0.007660
C11   C     C_1   0.512983 0.875772 0.832151 -0.060772
C12   C     C_1   0.513375 0.123212 0.832508 -0.063431
C13   C     C_1   0.439486 0.000312 0.708468 -0.065606
C14   C     C_1   0.695538 0.999321 0.753196 -0.066068
C15   C     C_R   0.581851 0.029645 0.305664 -0.112597
C16   C     C_R   0.429030 0.918137 0.323598 -0.119396
C17   C     C_R   0.367336 0.016566 0.278289 -0.099189
C18   C     C_R   0.639706 0.907470 0.290041 -0.101707
C19   C     C_R   0.642389 0.040830 0.339448 -0.126689
C20   C     C_R   0.368729 0.929952 0.357631 -0.123348
C21   C     C_R   0.306663 0.027858 0.312451 -0.139819
C22   C     C_R   0.700282 0.919162 0.323673 -0.145063
C23   C     C_R   0.556456 0.063072 0.195414 0.398472
C24   C     C_R   0.446899 0.807891 0.235540 0.395055
C25   C     C_R   0.426011 0.999721 0.175297 0.335755
C26   C     C_R   0.574275 0.847896 0.195725 0.338950
C27   C     C_R   0.541755 0.113400 0.159746 -0.192083
C28   C     C_R   0.462690 0.735164 0.220388 -0.195227
C29   C     C_R   0.414558 0.050449 0.139687 -0.191960
C30   C     C_R   0.586810 0.774787 0.180697 -0.204566
C31   C     C_R   0.500207 0.610710 0.941576 0.779054
C32   C     C_R   0.500290 0.389172 0.941617 0.779723
C33   C     C_3   0.502545 0.948511 0.247497 -0.047767
C34   C     C_R   0.579650 0.963122 0.279205 0.159793
C35   C     C_R   0.428313 0.959175 0.282066 0.158178
C36   C     C_R   0.701545 0.985468 0.348555 0.142875
C37   C     C_R   0.306988 0.984302 0.351968 0.143698
C38   C     C_R   0.496004 0.005244 0.206126 -0.051507
C39   C     C_R   0.506397 0.867122 0.226303 -0.047244
C40   C     C_R   0.471286 0.107601 0.132257 -0.013868
C41   C     C_R   0.532807 0.718286 0.193964 -0.017787
C42   C     C_1   0.243136 0.993752 0.386511 -0.050908
C43   C     C_1   0.761699 0.994547 0.384693 -0.054309
C44   C     C_1   0.189230 0.998457 0.415490 -0.164666
C45   C     C_1   0.813080 0.998864 0.414725 -0.165159
C46   C     C_1   0.458597 0.159045 0.095168 0.022736
C47   C     C_1   0.548534 0.642700 0.179752 -0.005813
C48   C     C_1   0.447923 0.201917 0.064041 -0.039873
C49   C     C_1   0.561838 0.579325 0.168128 -0.022487
C50   C     C_R   0.124119 0.999821 0.449559 0.853661
C51   C     C_R   0.876037 0.999923 0.449623 0.851953
C52   C     C_R   0.582035 0.769476 0.868680 -0.151522
C53   C     C_R   0.430809 0.219169 0.873905 -0.152795
C54   C     C_R   0.430428 0.780092 0.873461 -0.150524
C55   C     C_R   0.582375 0.229634 0.868945 -0.152693
C56   C     C_R   0.892759 0.000077 0.569390 0.684269
C57   C     C_R   0.106836 0.999998 0.569398 0.695361
C58   C     C_R   0.579065 0.704597 0.894879 -0.180364
C59   C     C_R   0.427546 0.284607 0.900075 -0.183781
C60   C     C_R   0.427246 0.714890 0.899737 -0.181214
C61   C     C_R   0.579323 0.294766 0.895043 -0.181930
C62   C     C_R   0.807040 0.945577 0.704560 -0.169908
C63   C     C_R   0.352914 0.066534 0.651996 -0.158748
C64   C     C_R   0.390033 0.937142 0.638968 -0.160817
C65   C     C_R   0.837561 0.053813 0.751303 -0.158834
C66   C     C_R   0.889708 0.946161 0.687891 -0.190750
C67   C     C_R   0.311211 0.068095 0.609990 -0.178593
C68   C     C_R   0.348255 0.938959 0.597000 -0.162759
C69   C     C_R   0.920157 0.054214 0.734514 -0.157577
C70   C     C_3   0.536175 0.999503 0.782867 0.023292
C71   C     C_R   0.507977 0.807803 0.858193 0.138059
C72   C     C_R   0.508370 0.191281 0.858586 0.140285
C73   C     C_R   0.501740 0.676759 0.911113 -0.033676
C74   C     C_R   0.501970 0.322825 0.911283 -0.033105
Cu1   Cu    Cu3+1 0.415470 0.500000 0.000080 0.979214
Cu2   Cu    Cu3+1 0.584530 0.500000 0.000080 0.976439
Cu3   Cu    Cu3+1 0.000000 0.072960 0.508900 0.959735
Cu4   Cu    Cu3+1 0.000000 0.927040 0.508900 0.958875
H1    H     H_    0.637666 0.676801 0.902859 0.159459
H2    H     H_    0.367028 0.304489 0.912142 0.157526
H3    H     H_    0.366743 0.695146 0.911770 0.159112
H4    H     H_    0.637868 0.322608 0.902921 0.158148
H5    H     H_    0.910124 0.904701 0.663344 0.134749
H6    H     H_    0.280750 0.118607 0.598581 0.136735
H7    H     H_    0.346433 0.889852 0.575571 0.134623
H8    H     H_    0.964088 0.096141 0.745968 0.131672
H9    H     H_    0.642395 0.790200 0.856960 0.137327
H10   H     H_    0.373043 0.190028 0.866013 0.134842
H11   H     H_    0.372617 0.809215 0.865475 0.136543
H12   H     H_    0.642744 0.208770 0.857177 0.133104
H13   H     H_    0.763690 0.903371 0.692664 0.133794
H14   H     H_    0.354945 0.116385 0.672859 0.133674
H15   H     H_    0.420957 0.886343 0.649701 0.132631
H16   H     H_    0.817967 0.095807 0.775787 0.131690
H17   H     H_    0.642062 0.092162 0.358942 0.136389
H18   H     H_    0.370117 0.896263 0.388329 0.134077
H19   H     H_    0.259908 0.071224 0.308198 0.142327
H20   H     H_    0.744830 0.875191 0.331250 0.142982
H21   H     H_    0.587413 0.156665 0.152445 0.185991
H22   H     H_    0.418524 0.691127 0.228605 0.188305
H23   H     H_    0.360349 0.045258 0.117534 0.190510
H24   H     H_    0.640298 0.761707 0.158933 0.190874
H25   H     H_    0.535724 0.073083 0.300067 0.130649
H26   H     H_    0.476104 0.875515 0.329215 0.129233
H27   H     H_    0.366461 0.054583 0.249808 0.134197
H28   H     H_    0.639046 0.853027 0.274575 0.134664
O1    O     O_R   0.429360 0.416280 0.044700 -0.573278
O2    O     O_R   0.570640 0.583720 0.044700 -0.574569
O3    O     O_R   0.570640 0.416280 0.044700 -0.571690
O4    O     O_R   0.429360 0.583720 0.044700 -0.571439
O5    O     O_R   0.427420 0.583550 0.955440 -0.587738
O6    O     O_R   0.572580 0.416450 0.955440 -0.589916
O7    O     O_R   0.572580 0.583550 0.955440 -0.589950
O8    O     O_R   0.427420 0.416450 0.955440 -0.588326
O9    O     O_R   0.093410 0.059470 0.464300 -0.580722
O10   O     O_R   0.906590 0.940530 0.464300 -0.579575
O11   O     O_R   0.906590 0.059470 0.464300 -0.578040
O12   O     O_R   0.093410 0.940530 0.464300 -0.575412
O13   O     O_R   0.920740 0.061400 0.553530 -0.553585
O14   O     O_R   0.079260 0.938600 0.553530 -0.558760
O15   O     O_R   0.079260 0.061400 0.553530 -0.560669
O16   O     O_R   0.920740 0.938600 0.553530 -0.562393
Cl1   Cl    Cl    0.657907 0.074959 0.218883 -0.546342
Cl2   Cl    Cl    0.345712 0.816079 0.260587 -0.543724
Cl3   Cl    Cl    0.346372 0.932284 0.179055 -0.544706
Cl4   Cl    Cl    0.651312 0.910572 0.176337 -0.544822

loop_
_geom_bond_atom_site_label_1
_geom_bond_atom_site_label_2
_ccdc_geom_bond_type
Cu1   O1    S    
C22   H20   S    
C60   C73   A    
C9    C14   T    
C36   C43   S    
C7    C70   S    
C53   C59   A    
C47   C49   T    
C54   C60   A    
Cu3   Cu4   S    
C15   C19   A    
C4    C63   A    
C27   H21   S    
C33   C39   S    
C64   C68   A    
Cu4   O12   S    
C64   H15   S    
C55   H12   S    
Cu3   O11   S    
C61   H4    S    
C16   C35   A    
C32   C74   S    
C33   C35   S    
C11   C71   S    
C26   C39   A    
C31   C73   S    
C45   C51   S    
C28   C41   A    
C24   Cl2   S    
C24   C39   A    
C50   O9    A    
C26   Cl4   S    
C37   C42   S    
C25   Cl3   S    
C5    C69   A    
C1    O3    A    
C66   H5    S    
C16   H26   S    
C54   C71   A    
C4    C13   S    
Cu2   O3    S    
C63   H14   S    
C30   C41   A    
C23   C27   A    
C15   C34   A    
C55   C72   A    
C16   C20   A    
C28   H22   S    
C6    C68   A    
C12   C72   S    
C67   H6    S    
Cu2   O2    S    
C50   O12   A    
C68   H7    S    
C3    C65   A    
C42   C44   T    
C33   C34   S    
C46   C48   T    
C25   C29   A    
C63   C67   A    
C62   C66   A    
C9    C70   S    
C54   H11   S    
C23   Cl1   S    
C17   C21   A    
C56   O16   A    
Cu4   O14   S    
Cu1   Cu2   S    
C18   H28   S    
C17   H27   S    
C25   C38   A    
C21   H19   S    
C60   H3    S    
C7    C11   T    
C27   C40   A    
C8    C12   T    
C62   H13   S    
C30   H24   S    
Cu2   O7    S    
C41   C47   S    
C29   H23   S    
Cu1   O8    S    
C18   C34   A    
C59   C74   A    
C3    C14   S    
C52   C58   A    
C58   H1    S    
C1    O1    A    
C57   O14   A    
C10   C70   S    
C65   H16   S    
C26   C30   A    
C56   O13   A    
C40   C46   S    
C19   H17   S    
C3    C62   A    
C44   C50   S    
C2    O4    A    
Cu1   O4    S    
C32   O6    A    
C18   C22   A    
C8    C70   S    
C52   H9    S    
Cu4   O10   S    
C24   C28   A    
Cu2   O6    S    
C5    C66   A    
Cu3   O13   S    
C10   C13   T    
C59   H2    S    
C61   C74   A    
C23   C38   A    
C22   C36   A    
C4    C64   A    
Cu1   O5    S    
C51   O10   A    
C19   C36   A    
C15   H25   S    
C43   C45   T    
C52   C71   A    
C6    C67   A    
C20   C37   A    
C65   C69   A    
C55   C61   A    
C29   C40   A    
C2    O2    A    
C51   O11   A    
C53   H10   S    
C20   H18   S    
Cu4   O16   S    
Cu3   O15   S    
C57   O15   A    
C21   C37   A    
C31   O5    A    
C33   C38   S    
C17   C35   A    
C32   O8    A    
Cu3   O9    S    
C53   C72   A    
C31   O7    A    
C69   H8    S    
C58   C73   A    
