data_mof_unit_56640.cif
_audit_creation_date              2012-12-11T15:52:30-0500
_audit_creation_method            fapswitch 2.2
_symmetry_space_group_name_H-M    P1
_symmetry_Int_Tables_number       1
_space_group_crystal_system       triclinic
_cell_length_a                    6.92438
_cell_length_b                    14.552372
_cell_length_c                    16.031576
_cell_angle_alpha                 90.231087
_cell_angle_beta                  89.940112
_cell_angle_gamma                 90.142503
_cell_volume                      1615.42124898

loop_
_atom_site_label
_atom_site_type_symbol
_atom_type_description
_atom_site_fract_x
_atom_site_fract_y
_atom_site_fract_z
_atom_type_partial_charge
O1    O     O_R   0.494400 0.415640 0.412830 -0.510457
O2    O     O_R   0.823920 0.405510 0.586560 -0.545749
O3    O     O_R   0.994250 0.584360 0.587170 -0.536622
C1    C     C_R   0.654760 0.383374 0.615521 0.679690
O4    O     O_R   0.824110 0.404610 0.413450 -0.545403
O5    O     O_R   0.994440 0.583460 0.412820 -0.538458
C2    C     C_R   0.654865 0.383744 0.383047 0.712912
O6    O     O_R   0.494210 0.416540 0.587180 -0.542355
O7    O     O_3   0.660810 0.558680 0.500000 -0.378169
V1    V     V_3+5 0.935650 0.489110 0.500000 1.410070
O8    O     O_R   0.324150 0.594490 0.413440 -0.540629
C3    C     C_R   0.155381 0.616543 0.384483 0.714467
O9    O     O_R   0.323970 0.595390 0.586550 -0.554878
C4    C     C_R   0.154263 0.619278 0.614199 0.686937
V2    V     V_3+5 0.435660 0.510890 0.500000 1.406529
O10   O     O_3   0.160630 0.441320 0.500000 -0.361460
C5    C     C_3   0.925838 0.720906 0.700649 0.220135
H1    H     H_    0.842434 0.659293 0.720473 0.068421
C6    C     C_3   0.915335 0.789933 0.775086 -0.322313
H2    H     H_    0.824859 0.758997 0.825197 0.108834
H3    H     H_    0.842949 0.855245 0.759060 0.149946
H4    H     H_    0.217084 0.807105 0.605781 0.162686
H5    H     H_    0.189424 0.913152 0.714127 0.127297
C7    C     C_3   0.262699 0.775939 0.665679 -0.375038
C8    C     C_3   0.224141 0.647788 0.768261 -0.026426
C9    C     C_3   0.140258 0.689012 0.685287 0.079529
H6    H     H_    0.380627 0.634010 0.757816 0.139296
C10   C     C_3   0.120259 0.810771 0.810261 0.049233
C11   C     C_3   0.248546 0.847334 0.737831 -0.337031
C12   C     C_3   0.208136 0.719072 0.841095 -0.335002
H7    H     H_    0.118052 0.691935 0.893084 0.141313
H8    H     H_    0.354526 0.731890 0.867395 0.131038
H9    H     H_    0.416380 0.756243 0.657395 0.143911
H10   H     H_    0.396572 0.862436 0.761272 0.148433
C13   C     C_R   0.964163 0.746495 0.196447 0.160008
C14   C     C_R   0.978999 0.685316 0.263853 -0.153229
H11   H     H_    0.861421 0.637961 0.276215 0.117817
C15   C     C_R   0.144292 0.682852 0.314383 -0.096666
C16   C     C_R   0.297627 0.742700 0.296407 -0.164640
H12   H     H_    0.427424 0.742181 0.334049 0.128869
C17   C     C_R   0.283707 0.805486 0.230772 -0.191172
H13   H     H_    0.402922 0.852361 0.220502 0.125669
C18   C     C_R   0.117806 0.809311 0.180024 -0.062013
C19   C     C_R   0.812240 0.274546 0.716162 -0.158000
H14   H     H_    0.952993 0.293016 0.691881 0.116473
C20   C     C_R   0.801443 0.209757 0.780286 -0.156563
H15   H     H_    0.934316 0.180203 0.803371 0.117772
C21   C     C_R   0.621863 0.183451 0.813944 -0.047042
C22   C     C_R   0.453384 0.223805 0.781794 -0.161042
H16   H     H_    0.312648 0.205413 0.806135 0.117164
C23   C     C_R   0.464174 0.288601 0.717673 -0.154254
H17   H     H_    0.331316 0.318245 0.694654 0.117771
C24   C     C_R   0.643725 0.314690 0.683847 -0.043499
C25   C     C_R   0.797987 0.257534 0.295482 -0.233229
H18   H     H_    0.927171 0.260281 0.333423 0.139176
C26   C     C_R   0.788490 0.192841 0.230649 -0.158518
H19   H     H_    0.911286 0.148326 0.220021 0.127630
C27   C     C_R   0.621550 0.184345 0.181342 -0.077963
C28   C     C_R   0.465828 0.243292 0.197379 -0.226655
H20   H     H_    0.337427 0.239275 0.158931 0.125376
C29   C     C_R   0.475855 0.310616 0.260495 0.300088
C30   C     C_R   0.642427 0.316925 0.312069 -0.077704
O11   O     O_R   0.771300 0.080930 0.910090 -0.540661
O12   O     O_R   0.441270 0.092800 0.083770 -0.542509
O13   O     O_R   0.271080 0.913920 0.084380 -0.540775
C31   C     C_R   0.610411 0.115083 0.112908 0.703807
O14   O     O_R   0.441580 0.091910 0.910670 -0.543997
O15   O     O_R   0.271390 0.913020 0.910040 -0.539833
C32   C     C_R   0.610780 0.114334 0.881931 0.683818
O16   O     O_R   0.770990 0.081830 0.084440 -0.538906
O17   O     O_3   0.604750 0.938760 0.997250 -0.369148
V3    V     V_3+5 0.329850 0.008280 0.997210 1.389343
O18   O     O_R   0.941680 0.901940 0.910610 -0.546004
C33   C     C_R   0.110392 0.880303 0.881187 0.673056
O19   O     O_R   0.941370 0.902830 0.083720 -0.538473
C34   C     C_R   0.109673 0.879113 0.111727 0.694393
V4    V     V_3+5 0.829860 0.986420 0.997150 1.384655
O20   O     O_3   0.104830 0.056030 0.997180 -0.366800
N1    N     N_2   0.834462 0.753081 0.623437 -0.514353
H21   H     H_    0.724806 0.711688 0.601156 0.264939
C35   C     C_3   0.810046 0.849417 0.603491 -0.586195
H22   H     H_    0.680483 0.877109 0.635685 0.185845
H23   H     H_    0.787773 0.856454 0.535260 0.199473
H24   H     H_    0.938610 0.890449 0.620637 0.206227
C36   C     C_3   0.785876 0.740522 0.142560 -0.761669
H25   H     H_    0.691918 0.681691 0.160169 0.190256
H26   H     H_    0.698513 0.803802 0.149680 0.220268
H27   H     H_    0.827747 0.730785 0.076225 0.198934
N2    N     N_2   0.319611 0.373273 0.269423 -0.506611
H28   H     H_    0.186913 0.344849 0.255376 0.246406
C37   C     C_3   0.349288 0.459626 0.226820 -0.521165
H29   H     H_    0.367427 0.447739 0.158721 0.179459
H30   H     H_    0.478754 0.495629 0.251726 0.187931
H31   H     H_    0.221691 0.504367 0.236468 0.185178
C38   C     C_3   0.134501 0.554805 0.793421 -0.834296
H32   H     H_    0.212312 0.527235 0.848438 0.219188
H33   H     H_    0.980049 0.561932 0.810565 0.211658
H34   H     H_    0.148297 0.503497 0.742359 0.204257

loop_
_geom_bond_atom_site_label_1
_geom_bond_atom_site_label_2
_ccdc_geom_bond_type
C1    C24   S    
C17   H13   S    
C38   H32   S    
C21   C32   S    
C1    O6    A    
C10   C33   S    
C35   H22   S    
C38   H34   S    
C16   C17   A    
V4    O20   S    
O13   C34   A    
C5    C9    S    
H5    C11   S    
C14   H11   S    
C6    H3    S    
C7    C9    S    
O5    C3    A    
C12   H7    S    
O15   C33   A    
V2    O10   S    
C5    N1    S    
C26   H19   S    
O14   V3    S    
O18   C33   A    
C7    C11   S    
V3    O20   S    
C25   H18   S    
O8    V2    S    
C19   C24   A    
C27   C31   S    
O11   C32   A    
C19   C20   A    
C22   C23   A    
O1    V2    S    
N2    C37   S    
C13   C18   A    
O7    V1    S    
C28   H20   S    
O9    C4    A    
O16   V4    S    
C3    C15   S    
C17   C18   A    
C35   H23   S    
C29   N2    S    
C25   C26   A    
C36   H26   S    
C15   C16   A    
C20   C21   A    
C28   C29   A    
C23   H17   S    
C37   H29   S    
O4    C2    A    
C25   C30   A    
C27   C28   A    
C36   H25   S    
C11   H10   S    
C23   C24   A    
C13   C14   A    
O12   C31   A    
O2    C1    A    
O19   C34   A    
C2    C30   S    
C37   H30   S    
O15   V3    S    
C5    H1    S    
C4    C9    S    
C6    C10   S    
O19   V4    S    
O3    C4    A    
C21   C22   A    
C8    C38   S    
O6    V2    S    
O9    V2    S    
H4    C7    S    
O2    V1    S    
O17   V4    S    
C35   H24   S    
C19   H14   S    
N1    C35   S    
O11   V4    S    
C36   H27   S    
C8    C12   S    
C20   H15   S    
C10   C11   S    
O1    C2    A    
O5    V1    S    
O8    C3    A    
C38   H33   S    
C8    H6    S    
O13   V3    S    
C7    H9    S    
C6    H2    S    
C14   C15   A    
C8    C9    S    
O17   V3    S    
O3    V1    S    
V1    O10   S    
C37   H31   S    
C12   H8    S    
C13   C36   S    
C31   O16   A    
C10   C12   S    
C5    C6    S    
C26   C27   A    
O12   V3    S    
O7    V2    S    
C29   C30   A    
N1    H21   S    
C16   H12   S    
O4    V1    S    
C22   H16   S    
O18   V4    S    
C18   C34   S    
O14   C32   A    
N2    H28   S    
