data_mof_unit_32200.cif
_audit_creation_date              2012-12-10T20:49:43-0500
_audit_creation_method            fapswitch 2.2
_symmetry_space_group_name_H-M    P1
_symmetry_Int_Tables_number       1
_space_group_crystal_system       triclinic
_cell_length_a                    8.107837
_cell_length_b                    8.924307
_cell_length_c                    16.405533
_cell_angle_alpha                 89.984454
_cell_angle_beta                  84.711555
_cell_angle_gamma                 89.981659
_cell_volume                      1181.99929166

loop_
_atom_site_label
_atom_site_type_symbol
_atom_type_description
_atom_site_fract_x
_atom_site_fract_y
_atom_site_fract_z
_atom_type_partial_charge
C1    C     C_R   0.499982 0.782011 0.500008 0.936813
C2    C     C_R   0.500014 0.217985 0.500013 0.923984
C3    C     C_1   0.499972 0.934786 0.500020 -0.198818
C4    C     C_1   0.500019 0.065197 0.500022 -0.194375
C5    C     C_R   0.476413 0.501185 0.654556 0.837382
C6    C     C_R   0.523571 0.501807 0.345396 0.837965
C7    C     C_R   0.458576 0.544321 0.740297 -0.141123
C8    C     C_R   0.540900 0.546790 0.259802 -0.142582
C9    C     C_R   0.523748 0.683898 0.758697 -0.276181
C10   C     C_R   0.465239 0.681895 0.241500 -0.277139
C11   C     C_R   0.497771 0.744228 0.836826 0.000898
C12   C     C_R   0.488478 0.744268 0.163762 -0.001425
C13   C     C_R   0.412277 0.657882 0.899316 0.035684
C14   C     C_R   0.582305 0.664163 0.101387 0.039916
C15   C     C_R   0.340581 0.518356 0.880787 0.091949
C16   C     C_R   0.665202 0.530051 0.119888 0.095146
C17   C     C_R   0.361563 0.461611 0.800164 -0.035354
C18   C     C_R   0.646507 0.471473 0.200180 -0.033808
C19   C     C_2   0.421594 0.696401 0.985693 -0.089260
C20   C     C_2   0.570335 0.701301 0.014989 -0.089213
H1    H     H_    0.590422 0.749068 0.710421 0.145493
H2    H     H_    0.392062 0.742306 0.289577 0.148721
H3    H     H_    0.681925 0.696549 0.972936 0.135224
H4    H     H_    0.310624 0.684860 0.027726 0.135347
N1    N     N_1   0.926360 0.500000 0.499990 -0.025992
N2    N     N_1   0.073640 0.500000 0.500010 -0.025980
O1    O     O_R   0.363150 0.714660 0.500000 -0.610907
O2    O     O_R   0.636850 0.285340 0.500000 -0.612459
O3    O     O_R   0.636850 0.714660 0.500000 -0.610439
O4    O     O_R   0.363150 0.285340 0.500000 -0.611800
O5    O     O_R   0.346950 0.500000 0.615800 -0.611941
O6    O     O_R   0.653050 0.500000 0.384200 -0.614289
O7    O     O_R   0.620700 0.500000 0.615800 -0.598993
O8    O     O_R   0.379300 0.500000 0.384200 -0.598035
Zn1   Zn    Zn3+2 0.317220 0.500000 0.500010 0.994856
Zn2   Zn    Zn3+2 0.682780 0.500000 0.499990 0.994063
N3    N     N_3   0.254620 0.429944 0.944423 -0.353387
H5    H     H_    0.155115 0.492334 0.971468 0.183673
H6    H     H_    0.335547 0.405378 0.988677 0.204545
N4    N     N_3   0.760363 0.448241 0.056443 -0.361872
H7    H     H_    0.854499 0.517766 0.030256 0.179315
H8    H     H_    0.683187 0.417945 0.011510 0.201061
C21   C     C_2   0.413590 0.893524 0.151080 0.428847
H9    H     H_    0.318981 0.936918 0.196066 0.057448
O9    O     O_2   0.460220 0.972058 0.092533 -0.479355
C22   C     C_2   0.560582 0.898063 0.849690 0.436197
H10   H     H_    0.650120 0.947786 0.804303 0.051376
O10   O     O_2   0.509270 0.973144 0.908841 -0.475472
C23   C     C_2   0.729000 0.329111 0.221701 0.476354
H11   H     H_    0.688951 0.270901 0.278130 0.029740
O11   O     O_2   0.843492 0.275512 0.177638 -0.518351
C24   C     C_2   0.290221 0.314319 0.778299 0.475469
H12   H     H_    0.330761 0.260946 0.720495 0.022857
O12   O     O_2   0.184490 0.251041 0.823638 -0.511769

loop_
_geom_bond_atom_site_label_1
_geom_bond_atom_site_label_2
_ccdc_geom_bond_type
C7    C17   A    
C6    O6    A    
C21   H9    S    
C15   C17   A    
N3    H5    S    
C14   C20   S    
C21   O9    D    
C2    C4    S    
C19   C20   D    
C20   H3    S    
C2    O4    A    
O1    Zn1   S    
C1    O3    A    
C19   H4    S    
N3    H6    S    
C10   H2    S    
C11   C13   A    
O3    Zn2   S    
C9    H1    S    
C10   C12   A    
O4    Zn1   S    
C16   N4    S    
O6    Zn2   S    
C17   C24   S    
C16   C18   A    
N4    H7    S    
C12   C14   A    
C23   H11   S    
C12   C21   S    
C14   C16   A    
C9    C11   A    
C13   C15   A    
O5    Zn1   S    
C2    O2    A    
C13   C19   S    
N1    Zn2   S    
C3    C4    T    
C22   O10   D    
C7    C9    A    
N2    Zn1   S    
O7    Zn2   S    
C24   H12   S    
O2    Zn2   S    
C1    O1    A    
O8    Zn1   S    
C1    C3    S    
C5    C7    S    
C22   H10   S    
C15   N3    S    
C11   C22   S    
C6    C8    S    
C5    O5    A    
N1    N2    T    
C8    C10   A    
C8    C18   A    
C6    O8    A    
C18   C23   S    
C24   O12   D    
N4    H8    S    
C23   O11   D    
C5    O7    A    
