data_mof_unit_15812.cif
_audit_creation_date              2012-12-10T17:32:25-0500
_audit_creation_method            fapswitch 2.2
_symmetry_space_group_name_H-M    P1
_symmetry_Int_Tables_number       1
_space_group_crystal_system       triclinic
_cell_length_a                    15.51299
_cell_length_b                    15.49216
_cell_length_c                    15.456034
_cell_angle_alpha                 92.247177
_cell_angle_beta                  71.367727
_cell_angle_gamma                 111.283679
_cell_volume                      3267.36905128

loop_
_atom_site_label
_atom_site_type_symbol
_atom_type_description
_atom_site_fract_x
_atom_site_fract_y
_atom_site_fract_z
_atom_type_partial_charge
C1    C     C_R   0.463280 0.258512 0.462829 0.545853
C2    C     C_R   0.549242 0.510035 0.101185 0.227052
C3    C     C_R   0.598586 0.671150 0.136634 -0.179832
C4    C     C_R   0.536544 0.741979 0.534605 0.480503
C5    C     C_R   0.430899 0.423766 0.840260 -0.010891
C6    C     C_R   0.462634 0.054452 0.328484 0.250262
C7    C     C_R   0.451713 0.163284 0.444370 -0.009585
C8    C     C_R   0.549219 0.864290 0.641909 -0.136469
C9    C     C_R   0.536562 0.945515 0.672717 -0.126555
C10   C     C_R   0.515482 0.000105 0.619212 -0.089400
C11   C     C_R   0.511094 0.976599 0.530632 0.043277
C12   C     C_R   0.365095 0.308623 0.971335 0.210148
C13   C     C_R   0.531156 0.896809 0.497150 0.037578
C14   C     C_R   0.487660 0.029486 0.474195 -0.006258
C15   C     C_R   0.487126 0.003047 0.384551 0.038304
C16   C     C_R   0.756838 0.551556 0.462114 0.580457
C17   C     C_R   0.515736 0.928940 0.351393 -0.082494
C18   C     C_R   0.539501 0.878536 0.405633 -0.116633
C19   C     C_R   0.467630 0.109612 0.502951 -0.118130
C20   C     C_R   0.447284 0.135201 0.358724 -0.078743
C21   C     C_R   0.543584 0.837420 0.555763 0.029130
C22   C     C_R   0.015503 0.588907 0.331287 -0.108041
C23   C     C_R   0.406308 0.378104 0.022113 -0.064571
C24   C     C_R   0.857749 0.561782 0.446945 0.040633
C25   C     C_R   0.086352 0.425803 0.665739 0.209621
C26   C     C_R   0.007901 0.455428 0.697859 -0.101110
C27   C     C_R   0.976831 0.490117 0.637305 -0.097095
C28   C     C_R   0.243016 0.450178 0.538567 0.585156
C29   C     C_R   0.014521 0.484874 0.542534 0.023201
C30   C     C_R   0.097571 0.459061 0.507472 -0.012387
C31   C     C_R   0.976536 0.512539 0.481102 0.009635
C32   C     C_R   0.038210 0.540138 0.389165 -0.059157
C33   C     C_R   0.117285 0.511483 0.354128 -0.095735
C34   C     C_R   0.467406 0.468013 0.981522 -0.057415
C35   C     C_R   0.138666 0.460120 0.410829 0.227746
C36   C     C_R   0.879293 0.510802 0.505653 0.166863
C37   C     C_R   0.926792 0.602451 0.360691 0.233361
C38   C     C_R   0.138370 0.437089 0.569825 0.026266
C39   C     C_R   0.552038 0.551237 0.258232 0.549508
C40   C     C_R   0.449787 0.448781 0.742365 0.596644
C41   C     C_R   0.592424 0.697863 0.055088 -0.125624
C42   C     C_R   0.574902 0.577462 0.161312 0.031063
C43   C     C_R   0.389918 0.328313 0.876047 0.226683
C44   C     C_3   0.886924 0.601402 0.228775 0.024345
C45   C     C_R   0.461813 0.494598 0.897750 -0.067742
C46   C     C_3   0.955743 0.659683 0.138797 -0.267642
C47   C     C_3   0.935310 0.609897 0.056155 -0.462226
C48   C     C_3   0.643738 0.780758 0.818023 0.022509
C49   C     C_3   0.740279 0.796307 0.835119 -0.289148
C50   C     C_3   0.827484 0.833664 0.747264 -0.443036
C51   C     C_3   0.356991 0.617011 0.858234 0.015346
C52   C     C_3   0.327505 0.664459 0.793745 -0.226159
C53   C     C_3   0.222815 0.660749 0.836982 -0.464549
C54   C     C_R   0.522792 0.534623 0.027991 -0.027273
C55   C     C_R   0.551807 0.630427 0.001406 -0.018976
C56   C     C_R   0.536207 0.657944 0.924041 0.279993
C57   C     C_R   0.485474 0.590579 0.876236 0.273951
H1    H     H_    0.619371 0.723738 0.182300 0.127466
H2    H     H_    0.922072 0.520296 0.665509 0.180425
H3    H     H_    0.972124 0.454896 0.770582 0.163722
H4    H     H_    0.612545 0.771258 0.038122 0.183310
H5    H     H_    0.389295 0.361941 0.094406 0.217202
H6    H     H_    0.435859 0.179070 0.313998 0.202288
H7    H     H_    0.387192 0.896339 0.162561 0.377176
H8    H     H_    0.810184 0.587940 0.233076 0.185165
H9    H     H_    0.894268 0.532167 0.227988 0.139248
H10   H     H_    0.946149 0.727329 0.138062 0.199771
H11   H     H_    0.032866 0.673773 0.133436 0.170426
H12   H     H_    0.522400 0.909807 0.282288 0.192476
H13   H     H_    0.859304 0.597408 0.058716 0.198661
H14   H     H_    0.986981 0.653638 0.992093 0.151054
H15   H     H_    0.945383 0.542371 0.054893 0.167049
H16   H     H_    0.648479 0.848271 0.790999 0.161066
H17   H     H_    0.634366 0.732014 0.763804 0.178389
H18   H     H_    0.749760 0.846837 0.887588 0.189216
H19   H     H_    0.738859 0.729685 0.860870 0.171274
H20   H     H_    0.820256 0.783440 0.694258 0.167959
H21   H     H_    0.896134 0.844096 0.761633 0.173538
H22   H     H_    0.832218 0.901398 0.720671 0.180106
H23   H     H_    0.470934 0.136442 0.567610 0.158638
H24   H     H_    0.630344 0.384941 0.589960 0.357788
H25   H     H_    0.053457 0.426660 0.879275 0.326440
H26   H     H_    0.328675 0.481652 0.260380 0.328821
H27   H     H_    0.682562 0.373108 0.142151 0.381474
H28   H     H_    0.372650 0.093503 0.805930 0.355285
H29   H     H_    0.166101 0.185716 0.978158 0.358297
H30   H     H_    0.352124 0.654223 0.921894 0.146985
H31   H     H_    0.305230 0.543376 0.876136 0.160289
H32   H     H_    0.377835 0.738386 0.777414 0.171498
H33   H     H_    0.334040 0.630118 0.728714 0.189521
H34   H     H_    0.558515 0.819820 0.687536 0.141969
H35   H     H_    0.215764 0.697551 0.900517 0.154024
H36   H     H_    0.170582 0.587593 0.853835 0.163511
H37   H     H_    0.203677 0.695055 0.788022 0.156443
H38   H     H_    0.503370 0.060132 0.649624 0.142727
H39   H     H_    0.539505 0.964589 0.740165 0.158240
H40   H     H_    0.566422 0.825858 0.373711 0.140584
H41   H     H_    0.155795 0.520704 0.280922 0.129918
H42   H     H_    0.065352 0.614423 0.262348 0.128940
O1    O     O_3   0.500000 0.500000 0.500000 -0.485653
O2    O     O_R   0.588830 0.499590 0.285390 -0.485049
O3    O     O_R   0.395900 0.395880 0.699370 -0.450161
O4    O     O_R   0.493280 0.582590 0.315890 -0.534286
O5    O     O_R   0.521980 0.521940 0.699340 -0.499897
O6    O     O_2   0.414856 0.082612 0.181337 -0.173443
O7    O     O_2   0.555923 0.036437 0.154420 -0.266953
O8    O     O_3   0.381545 0.910972 0.226636 -0.531801
O9    O     O_3   0.904915 0.652292 0.303638 -0.565341
O10   O     O_3   0.562828 0.751710 0.900267 -0.564388
O11   O     O_2   0.809971 0.351779 0.619089 -0.208563
O12   O     O_R   0.708210 0.582550 0.530770 -0.527166
O13   O     O_2   0.743480 0.472605 0.674151 -0.299417
O14   O     O_3   0.686743 0.370273 0.550569 -0.485899
O15   O     O_2   0.126289 0.288323 0.724000 -0.156767
O16   O     O_2   0.217046 0.446437 0.752278 -0.354566
O17   O     O_3   0.035093 0.365575 0.853661 -0.486694
O18   O     O_2   0.176984 0.304823 0.423827 -0.215160
O19   O     O_2   0.160678 0.343822 0.280006 -0.238673
O20   O     O_3   0.319330 0.441608 0.313624 -0.491715
O21   O     O_2   0.491895 0.339004 0.183237 -0.250843
O22   O     O_2   0.583550 0.362041 0.018095 -0.219311
O23   O     O_R   0.270260 0.395900 0.573760 -0.443911
O24   O     O_3   0.679061 0.433652 0.129229 -0.530477
O25   O     O_2   0.287564 0.210672 0.780186 -0.215475
O26   O     O_2   0.466499 0.265618 0.714937 -0.310197
O27   O     O_3   0.381416 0.140695 0.850757 -0.422485
O28   O     O_2   0.339857 0.141179 0.037576 -0.114481
O29   O     O_2   0.228612 0.214114 0.127348 -0.219442
O30   O     O_3   0.200945 0.143567 0.979190 -0.430606
O31   O     O_3   0.453183 0.620384 0.813564 -0.555345
O32   O     O_R   0.537060 0.322180 0.411040 -0.512619
O33   O     O_R   0.484470 0.699370 0.484430 -0.559103
O34   O     O_R   0.404710 0.279110 0.530840 -0.488022
O35   O     O_R   0.573760 0.699350 0.573690 -0.542504
O36   O     O_R   0.714470 0.499570 0.411000 -0.532438
O37   O     O_R   0.307050 0.521980 0.484470 -0.526094
S1    S     S_3+6 0.455226 0.023231 0.218599 0.041716
S2    S     S_3+6 0.779573 0.425177 0.591202 0.039322
S3    S     S_3+6 0.119379 0.380872 0.749056 0.039632
S4    S     S_3+6 0.197905 0.383740 0.357162 0.051954
S5    S     S_3+6 0.573310 0.406531 0.107147 0.044079
S6    S     S_3+6 0.380841 0.235641 0.802310 0.085116
S7    S     S_3+6 0.282813 0.199764 0.031622 0.131887
Zn1   Zn    Zn3+2 0.574690 0.574670 0.574650 0.977008
Zn2   Zn    Zn3+2 0.583640 0.456100 0.403530 1.017481
Zn3   Zn    Zn3+2 0.447120 0.574690 0.447120 0.970488
Zn4   Zn    Zn3+2 0.394550 0.394550 0.574700 1.125673

loop_
_geom_bond_atom_site_label_1
_geom_bond_atom_site_label_2
_ccdc_geom_bond_type
C55   C56   A    
C3    C42   A    
C17   H12   S    
C27   C29   A    
C44   H9    S    
C41   H4    S    
C36   S2    S    
C50   H22   S    
C44   H8    S    
C4    O33   A    
H27   O24   S    
C12   C23   A    
O2    Zn2   S    
C26   C27   A    
C24   C36   A    
C22   C32   A    
C13   C18   A    
O20   S4    S    
C25   S3    S    
C2    C42   A    
C12   C43   A    
C31   C36   A    
O3    Zn4   S    
C11   C14   A    
O19   S4    D    
O1    Zn4   S    
C56   C57   A    
C30   C38   A    
C33   H41   S    
H26   O20   S    
C49   C50   S    
C41   C55   A    
C6    C15   A    
C46   C47   S    
C52   H33   S    
C23   H5    S    
O1    Zn3   S    
C8    C9    A    
O36   Zn2   S    
O6    S1    D    
O5    Zn1   S    
O34   Zn4   S    
C18   H40   S    
C9    C10   A    
O1    Zn2   S    
O17   S3    S    
C48   O10   S    
C5    C43   A    
C16   C24   S    
C1    C7    S    
O22   S5    D    
O25   S6    D    
C52   H32   S    
C1    O34   A    
C50   H21   S    
C51   O31   S    
C44   C46   S    
C39   O2    A    
C39   C42   S    
O14   S2    S    
C44   O9    S    
C53   H36   S    
C51   C52   S    
O13   S2    D    
C57   O31   S    
O11   S2    D    
C37   O9    S    
C24   C37   A    
C2    C54   A    
C51   H30   S    
C8    H34   S    
O7    S1    D    
C25   C26   A    
O15   S3    D    
C22   C37   A    
C40   O3    A    
O27   S6    S    
O8    S1    S    
C3    H1    S    
C47   H13   S    
C46   H11   S    
C29   C30   A    
C48   H17   S    
C25   C38   A    
C40   O5    A    
C31   C32   A    
C28   C38   S    
O26   S6    D    
C23   C34   A    
C45   C57   A    
O24   S5    S    
C53   H35   S    
C49   H18   S    
C17   C18   A    
C49   H19   S    
C13   C21   A    
C34   C45   A    
O28   S7    D    
O23   Zn4   S    
C9    H39   S    
C47   H14   S    
O12   Zn1   S    
C30   C35   A    
C48   C49   S    
O16   S3    D    
C34   C54   A    
C7    C19   A    
O1    Zn1   S    
C48   H16   S    
O18   S4    D    
C50   H20   S    
C56   O10   S    
C52   C53   S    
H7    O8    S    
C4    O35   A    
C15   C17   A    
C54   C55   A    
C3    C41   A    
C22   H42   S    
C53   H37   S    
C28   O37   A    
C14   C19   A    
O21   S5    D    
C1    O32   A    
C8    C21   A    
C51   H31   S    
H29   O30   S    
C39   O4    A    
O30   S7    S    
C6    C20   A    
C12   S7    S    
O33   Zn3   S    
C32   C33   A    
C6    S1    S    
H25   O17   S    
C46   H10   S    
C29   C31   A    
C27   H2    S    
C4    C21   S    
C11   C13   A    
C5    C45   A    
C10   H38   S    
C20   H6    S    
C33   C35   A    
O32   Zn2   S    
C28   O23   A    
C19   H23   S    
O29   S7    D    
C47   H15   S    
C10   C11   A    
O35   Zn1   S    
C35   S4    S    
O4    Zn3   S    
C7    C20   A    
C5    C40   S    
H24   O14   S    
C2    S5    S    
C14   C15   A    
C43   S6    S    
C16   O36   A    
C26   H3    S    
O37   Zn3   S    
C16   O12   A    
H28   O27   S    
