data_mof_unit_62632.cif
_audit_creation_date              2012-12-10T17:11:50-0500
_audit_creation_method            fapswitch 2.2
_symmetry_space_group_name_H-M    P1
_symmetry_Int_Tables_number       1
_space_group_crystal_system       triclinic
_cell_length_a                    21.650549
_cell_length_b                    21.645894
_cell_length_c                    22.15583
_cell_angle_alpha                 60.218629
_cell_angle_beta                  119.25561
_cell_angle_gamma                 90.139688
_cell_volume                      7456.0027717

loop_
_atom_site_label
_atom_site_type_symbol
_atom_type_description
_atom_site_fract_x
_atom_site_fract_y
_atom_site_fract_z
_atom_type_partial_charge
C1    C     C_R   0.620213 0.499751 0.500336 1.064844
C2    C     C_R   0.830579 0.425307 0.728585 -0.210673
C3    C     C_R   0.884888 0.455451 0.720674 -0.277935
C4    C     C_R   0.418685 0.581560 0.337490 0.908162
C5    C     C_R   0.877645 0.492517 0.643712 0.056413
C6    C     C_R   0.817127 0.494893 0.574508 0.003710
C7    C     C_R   0.756439 0.476157 0.579198 -0.114691
C8    C     C_R   0.688259 0.497714 0.504391 -0.221841
C9    C     C_R   0.682657 0.527273 0.429326 0.587441
C10   C     C_R   0.745327 0.533791 0.428103 -0.259492
C11   C     C_R   0.813317 0.515607 0.500495 -0.184157
C12   C     C_3   0.290565 0.710842 0.082488 0.130217
C13   C     C_3   0.705378 0.227006 0.028735 -0.050153
C14   C     C_3   0.700100 0.308529 0.972341 -0.014493
C15   C     C_1   0.623836 0.373355 0.751355 -0.101074
C16   C     C_R   0.378890 0.500995 0.497852 0.840823
C17   C     C_1   0.874382 0.124830 0.248648 -0.169902
C18   C     C_3   0.712245 0.208089 0.973548 -0.018399
C19   C     C_3   0.706857 0.289532 0.917297 0.094024
C20   C     C_3   0.798176 0.186731 0.028494 -0.187600
C21   C     C_3   0.790530 0.206831 0.082783 0.126399
C22   C     C_3   0.792496 0.269419 0.971314 -0.154774
C23   C     C_3   0.179126 0.748302 0.972195 -0.196301
C24   C     C_3   0.785810 0.288719 0.027211 -0.197318
C25   C     C_1   0.661298 0.335348 0.826357 -0.037456
C26   C     C_1   0.836628 0.161802 0.173650 -0.037197
C27   C     C_R   0.249845 0.634424 0.369024 -0.174488
C28   C     C_R   0.579684 0.418490 0.662439 0.999278
C29   C     C_R   0.193238 0.702544 0.315919 -0.281901
C30   C     C_R   0.136967 0.709343 0.328033 -0.051605
C31   C     C_R   0.135029 0.646579 0.390778 0.569640
C32   C     C_R   0.189445 0.575342 0.441416 -0.045113
C33   C     C_R   0.250524 0.570916 0.434807 0.025998
C34   C     C_3   0.208015 0.792861 0.917390 0.136141
C35   C     C_R   0.310857 0.503008 0.494378 -0.104341
C36   C     C_R   0.308369 0.438682 0.555478 -0.014597
C37   C     C_R   0.245451 0.441543 0.556493 -0.252486
C38   C     C_R   0.186236 0.508358 0.499844 -0.117633
C39   C     C_R   0.998148 0.881653 0.496565 0.862295
C40   C     C_3   0.278701 0.725607 0.972445 -0.210690
C41   C     C_R   0.081183 0.918631 0.662488 0.889903
C42   C     C_R   0.000425 0.119713 0.500232 0.859265
C43   C     C_R   0.918813 0.081013 0.337541 0.886878
C44   C     C_R   0.997592 0.620550 0.499466 0.921813
C45   C     C_3   0.219873 0.778115 0.027461 -0.195280
C46   C     C_R   0.879963 0.507766 0.500086 0.896914
C47   C     C_R   0.994591 0.379364 0.500514 0.884060
C48   C     C_R   0.120137 0.503922 0.499919 0.984179
C49   C     C_R   0.861344 0.877968 0.373182 -0.210722
C50   C     C_R   0.794161 0.871667 0.322421 0.058755
C51   C     C_R   0.791486 0.802801 0.333205 -0.164895
C52   C     C_3   0.319438 0.755436 0.027662 -0.206394
C53   C     C_R   0.856328 0.741144 0.392062 -0.184512
C54   C     C_R   0.925548 0.747424 0.441334 0.096574
C55   C     C_R   0.927099 0.815185 0.435358 0.085791
C56   C     C_3   0.247986 0.822332 0.971521 0.036514
C57   C     C_R   0.994961 0.818244 0.491259 -0.093158
C58   C     C_R   0.060662 0.757918 0.547318 -0.204088
C59   C     C_R   0.059974 0.693094 0.550113 -0.151931
C60   C     C_R   0.993412 0.687664 0.497552 -0.070504
C61   C     C_R   0.037249 0.106567 0.650640 -0.271572
C62   C     C_R   0.040906 0.102070 0.717143 0.688079
C63   C     C_R   0.015590 0.167194 0.707650 -0.265326
C64   C     C_1   0.373922 0.626815 0.248511 -0.140265
C65   C     C_R   0.990995 0.237570 0.633606 -0.078413
C66   C     C_R   0.998618 0.243478 0.570784 0.051687
C67   C     C_1   0.336183 0.664983 0.173454 -0.037682
C68   C     C_R   0.013719 0.177051 0.576001 -0.003386
C69   C     C_R   0.003559 0.182778 0.505545 -0.036279
C70   C     C_R   0.988830 0.250766 0.435517 -0.207972
C71   C     C_R   0.983686 0.314670 0.434321 -0.190130
C72   C     C_R   0.989476 0.312013 0.501436 -0.099153
C73   C     C_1   0.125472 0.874802 0.751433 -0.154246
C74   C     C_3   0.250555 0.681436 0.028294 0.046442
C75   C     C_1   0.922064 0.541576 0.633710 0.172875
C76   C     C_1   0.646309 0.375540 0.940785 0.172459
C77   C     C_1   0.658507 0.203227 0.061251 0.186266
C78   C     C_1   0.162754 0.837845 0.826461 -0.020119
C79   C     C_1   0.671776 0.164553 0.943311 0.189322
C80   C     C_1   0.370282 0.369381 0.619134 0.187037
C81   C     C_1   0.081143 0.781261 0.275941 0.262434
C82   C     C_1   0.727704 0.936013 0.259557 0.159646
C83   C     C_1   0.245968 0.900665 0.938978 0.224655
C84   C     C_1   0.940747 0.296679 0.615936 0.219131
C85   C     C_1   0.252429 0.603170 0.060581 0.167840
C86   C     C_R   0.765634 0.437360 0.658155 0.629497
F1    F     F_    0.083099 0.657174 0.405175 -0.677767
F2    F     F_    0.063285 0.034096 0.788351 -0.662559
F3    F     F_    0.616519 0.548282 0.357495 -0.669676
F4    F     F_    0.713874 0.407669 0.668814 -0.703650
H1    H     H_    0.377176 0.758325 0.051468 0.162494
H2    H     H_    0.242262 0.390979 0.601484 0.168178
H3    H     H_    0.112515 0.760684 0.589956 0.161118
H4    H     H_    0.861715 0.932416 0.362562 0.152912
H5    H     H_    0.739303 0.796838 0.295533 0.150675
H6    H     H_    0.851146 0.688707 0.398972 0.147822
H7    H     H_    0.111788 0.647141 0.592949 0.163781
H8    H     H_    0.981532 0.254212 0.381781 0.145355
H9    H     H_    0.053273 0.054687 0.658092 0.156190
H10   H     H_    0.010835 0.162433 0.756189 0.176347
H11   H     H_    0.976136 0.366295 0.380892 0.170326
H12   H     H_    0.931397 0.452361 0.774074 0.171340
H13   H     H_    0.196805 0.799397 0.051108 0.156159
H14   H     H_    0.121384 0.745422 0.948377 0.156265
H15   H     H_    0.837068 0.395809 0.788663 0.165430
H16   H     H_    0.740701 0.551688 0.370486 0.197224
H17   H     H_    0.816519 0.321367 0.050514 0.149489
H18   H     H_    0.827601 0.287558 0.946316 0.152309
H19   H     H_    0.838990 0.135866 0.052856 0.155421
H20   H     H_    0.301791 0.704296 0.948836 0.155609
H21   H     H_    0.292625 0.632093 0.357511 0.163013
H22   H     H_    0.194417 0.750507 0.266528 0.171777
N1    N     N_1   0.957178 0.581795 0.627483 -0.205575
N2    N     N_1   0.253927 0.541426 0.086087 -0.185738
N3    N     N_1   0.603882 0.428367 0.915873 -0.185363
N4    N     N_1   0.621603 0.184490 0.086886 -0.165425
N5    N     N_1   0.639837 0.130264 0.919447 -0.172047
N6    N     N_1   0.419813 0.314019 0.670073 -0.183552
N7    N     N_1   0.036304 0.838993 0.234147 -0.186923
N8    N     N_1   0.674340 0.987761 0.209021 -0.171100
N9    N     N_1   0.244363 0.962459 0.913257 -0.153553
N10   N     N_1   0.898625 0.341733 0.602924 -0.182425
O1    O     O_R   0.591660 0.448290 0.500000 -0.578614
O2    O     O_R   0.034730 0.556800 0.569600 -0.627508
O3    O     O_R   0.873600 0.534810 0.430420 -0.642922
O4    O     O_R   0.591590 0.551700 0.500020 -0.626333
O5    O     O_R   0.943150 0.465220 0.569550 -0.609199
O6    O     O_R   0.965270 0.443220 0.430400 -0.627267
O7    O     O_R   0.034830 0.373630 0.569530 -0.616772
O8    O     O_R   0.056850 0.534790 0.430450 -0.578688
O9    O     O_R   0.126400 0.465210 0.569580 -0.634512
O10   O     O_R   0.438430 0.509910 0.376770 -0.606600
O11   O     O_R   0.438360 0.613320 0.376790 -0.630282
O12   O     O_R   0.948250 0.908380 0.499990 -0.622761
O13   O     O_R   0.408410 0.448300 0.499980 -0.622846
O14   O     O_R   0.408340 0.551710 0.500000 -0.627322
O15   O     O_R   0.561640 0.386680 0.623210 -0.593769
O16   O     O_R   0.561570 0.490090 0.623230 -0.617556
O17   O     O_R   0.051700 0.908270 0.500000 -0.616332
O18   O     O_R   0.113330 0.938270 0.623230 -0.616141
O19   O     O_R   0.009880 0.938380 0.623210 -0.605698
O20   O     O_R   0.051750 0.091470 0.500010 -0.619508
O21   O     O_R   0.948300 0.091580 0.500000 -0.609794
O22   O     O_R   0.990120 0.061470 0.376790 -0.613993
O23   O     O_R   0.886670 0.061580 0.376770 -0.617463
O24   O     O_R   0.965170 0.626380 0.430470 -0.585529
Zn1   Zn    Zn3+2 0.500040 0.430950 0.499990 1.041279
Zn2   Zn    Zn3+2 0.499960 0.569050 0.500010 0.995333
Zn3   Zn    Zn3+2 0.069070 0.999850 0.500010 0.981866
Zn4   Zn    Zn3+2 0.930930 0.000000 0.499990 0.994643
Zn5   Zn    Zn3+2 0.953560 0.546470 0.407100 1.008174
Zn6   Zn    Zn3+2 0.046440 0.453550 0.592900 0.991159

loop_
_geom_bond_atom_site_label_1
_geom_bond_atom_site_label_2
_ccdc_geom_bond_type
C8    C9    A    
C66   C68   A    
C21   C26   S    
C63   C65   A    
C34   C56   S    
C23   C45   S    
C12   C74   S    
C27   C29   A    
C1    C8    S    
C46   O3    A    
C35   C36   A    
C82   N8    T    
C41   C73   S    
C1    O1    A    
C43   O22   A    
C7    C8    A    
C4    O10   A    
C54   C60   A    
C53   C54   A    
C27   C33   A    
C37   C38   A    
C13   C18   S    
C47   O7    A    
C34   C40   S    
C17   C26   T    
O20   Zn3   S    
C36   C37   A    
C58   H3    S    
C16   C35   S    
C30   C31   A    
C15   C25   T    
C7    C86   A    
C29   H22   S    
C84   N10   T    
O12   Zn4   S    
C76   N3    T    
C18   C19   S    
C14   C24   S    
C41   O18   A    
C45   H13   S    
O21   Zn4   S    
C66   C72   A    
C23   H14   S    
C45   C56   S    
O16   Zn2   S    
C18   C79   S    
C42   O20   A    
C44   O24   A    
C73   C78   T    
C48   O9    A    
C70   C71   A    
C75   N1    T    
C32   C38   A    
C49   H4    S    
C77   N4    T    
O3    Zn5   S    
C9    C10   A    
C38   C48   S    
O23   Zn4   S    
C61   C62   A    
C71   H11   S    
C27   H21   S    
C59   C60   A    
C13   C14   S    
C53   H6    S    
C48   O8    A    
O9    Zn6   S    
C61   H9    S    
C12   C52   S    
O19   Zn4   S    
C80   N6    T    
C12   C67   S    
C13   C77   S    
C31   F1    S    
C64   C67   T    
C46   O5    A    
C47   O6    A    
C19   C22   S    
C28   O16   A    
C1    O4    A    
O7    Zn6   S    
C36   C80   S    
C9    F3    S    
C6    C11   A    
C24   H17   S    
O4    Zn2   S    
C68   C69   A    
C65   C84   S    
C40   H20   S    
C63   H10   S    
C58   C59   A    
C49   C55   A    
C62   F2    S    
O17   Zn3   S    
C42   C69   S    
C20   H19   S    
C51   C53   A    
C14   C76   S    
C5    C75   S    
C17   C43   S    
C41   O19   A    
C62   C63   A    
C43   O23   A    
O5    Zn6   S    
O6    Zn5   S    
C31   C32   A    
C23   C34   S    
C50   C51   A    
C13   C21   S    
O11   Zn2   S    
C83   N9    T    
O14   Zn2   S    
C3    H12   S    
O1    Zn1   S    
C65   C66   A    
O13   Zn1   S    
C55   C57   A    
C86   F4    S    
C59   H7    S    
C22   C24   S    
C10   H16   S    
C23   C74   S    
C16   O14   A    
C42   O21   A    
C50   C82   S    
C56   C83   S    
C81   N7    T    
C54   C55   A    
C85   N2    T    
C37   H2    S    
O10   Zn1   S    
C14   C19   S    
O15   Zn1   S    
C28   O15   A    
C20   C22   S    
C12   C45   S    
C3    C5    A    
C6    C7    A    
C4    C64   S    
C2    H15   S    
C32   C33   A    
C30   C81   S    
C2    C3    A    
C71   C72   A    
C40   C52   S    
C34   C78   S    
C61   C68   A    
C15   C28   S    
C5    C6    A    
C44   C60   S    
C22   H18   S    
C79   N5    T    
C33   C35   A    
C40   C74   S    
C2    C86   A    
C18   C20   S    
C74   C85   S    
O2    Zn6   S    
C69   C70   A    
C19   C25   S    
O22   Zn3   S    
C47   C72   S    
C10   C11   A    
C29   C30   A    
O24   Zn5   S    
C52   C56   S    
C20   C21   S    
C49   C50   A    
C21   C24   S    
C44   O2    A    
O8    Zn5   S    
C11   C46   S    
C52   H1    S    
C57   C58   A    
C16   O13   A    
O18   Zn3   S    
C39   O17   A    
C70   H8    S    
C51   H5    S    
C4    O11   A    
C39   O12   A    
C39   C57   S    
