data_mof_unit_26172.cif
_audit_creation_date              2012-12-10T17:12:02-0500
_audit_creation_method            fapswitch 2.2
_symmetry_space_group_name_H-M    P1
_symmetry_Int_Tables_number       1
_space_group_crystal_system       triclinic
_cell_length_a                    11.781237
_cell_length_b                    13.106926
_cell_length_c                    15.772586
_cell_angle_alpha                 94.566924
_cell_angle_beta                  73.993273
_cell_angle_gamma                 100.722292
_cell_volume                      2299.20009826

loop_
_atom_site_label
_atom_site_type_symbol
_atom_type_description
_atom_site_fract_x
_atom_site_fract_y
_atom_site_fract_z
_atom_type_partial_charge
C1    C     C_R   0.524677 0.700573 0.494453 0.809600
C2    C     C_R   0.475321 0.299428 0.505553 0.809586
C3    C     C_R   0.357908 0.506742 0.088966 -0.120353
C4    C     C_R   0.642085 0.493266 0.911038 -0.120358
C5    C     C_R   0.270178 0.474649 0.042568 -0.082618
C6    C     C_R   0.729815 0.525364 0.957434 -0.082616
C7    C     C_R   0.458216 0.185154 0.513982 -0.192946
C8    C     C_R   0.541777 0.814849 0.486037 -0.192909
C9    C     C_R   0.650730 0.986707 0.507821 -0.163771
C10   C     C_R   0.349259 0.013295 0.492212 -0.163732
C11   C     C_R   0.649038 0.880228 0.494212 -0.027638
C12   C     C_R   0.350947 0.119774 0.505826 -0.027610
C13   C     C_R   0.446699 0.861016 0.475198 -0.074728
C14   C     C_R   0.553296 0.138988 0.524819 -0.074726
C15   C     C_R   0.449156 0.968500 0.490830 0.072775
C16   C     C_R   0.550837 0.031504 0.509193 0.072804
C17   C     C_R   0.936028 0.582423 0.593381 -0.340448
C18   C     C_R   0.063973 0.417577 0.406617 -0.340450
C19   C     C_R   0.820420 0.577697 0.584003 0.205063
C20   C     C_R   0.179579 0.422300 0.415999 0.205073
C21   C     C_R   0.862197 0.464489 0.458178 0.109613
C22   C     C_R   0.137804 0.535513 0.541820 0.109622
C23   C     C_R   0.426147 0.489945 0.667997 0.802934
C24   C     C_R   0.573853 0.510057 0.332003 0.802926
C25   C     C_R   0.981297 0.470124 0.465792 0.044693
C26   C     C_R   0.018705 0.529878 0.534206 0.044694
C27   C     C_R   0.380054 0.475010 0.764347 -0.144797
C28   C     C_R   0.619946 0.524997 0.235654 -0.144797
C29   C     C_R   0.224646 0.427206 0.899129 -0.072933
C30   C     C_R   0.775351 0.572806 0.100872 -0.072918
C31   C     C_R   0.260748 0.429237 0.806503 -0.035825
C32   C     C_R   0.739251 0.570774 0.193497 -0.035816
C33   C     C_R   0.461214 0.504589 0.815342 -0.184043
C34   C     C_R   0.538785 0.495417 0.184659 -0.184052
C35   C     C_R   0.430204 0.485481 0.905655 0.064834
C36   C     C_R   0.569792 0.514529 0.094347 0.064840
C37   C     C_R   0.307085 0.461273 0.949793 0.061332
C38   C     C_R   0.692909 0.538739 0.050210 0.061323
C39   C     C_R   0.518559 0.495541 0.953295 0.021346
C40   C     C_R   0.481435 0.504468 0.046709 0.021346
Cu1   Cu    Cu3+1 0.386820 0.492450 0.493500 1.000378
Cu2   Cu    Cu3+1 0.613180 0.507550 0.506500 1.000384
H1    H     H_    0.960750 0.628272 0.647886 0.137823
H2    H     H_    0.039251 0.371727 0.352114 0.137817
H3    H     H_    0.450740 0.454632 0.215734 0.159733
H4    H     H_    0.549260 0.545372 0.784267 0.159748
H5    H     H_    0.132767 0.394737 0.930982 0.224693
H6    H     H_    0.867228 0.605274 0.069017 0.224698
H7    H     H_    0.733046 0.035162 0.514631 0.189240
H8    H     H_    0.266943 0.964838 0.485410 0.189265
N1    N     N_R   0.216750 0.481110 0.483710 -0.225814
N2    N     N_R   0.783250 0.518890 0.516290 -0.225809
O1    O     O_R   0.419950 0.645670 0.495380 -0.572323
O2    O     O_R   0.580050 0.354330 0.504620 -0.572319
O3    O     O_R   0.611110 0.658410 0.506370 -0.558791
O4    O     O_R   0.388890 0.341590 0.493630 -0.558796
O5    O     O_R   0.350820 0.490050 0.621260 -0.607231
O6    O     O_R   0.649180 0.509950 0.378740 -0.607226
O7    O     O_R   0.541970 0.502800 0.632250 -0.560136
O8    O     O_R   0.458030 0.497200 0.367750 -0.560159
C41   C     C_2   0.141336 0.464756 0.092518 0.424565
H9    H     H_    0.111991 0.434259 0.158510 0.065995
O9    O     O_2   0.068945 0.496132 0.063212 -0.465824
C42   C     C_2   0.858652 0.535256 0.907484 0.424590
H10   H     H_    0.887999 0.565755 0.841492 0.066002
O10   O     O_2   0.931036 0.503872 0.936785 -0.465824
C43   C     C_2   0.256689 0.365690 0.345048 0.456106
H11   H     H_    0.252097 0.370160 0.277685 0.002409
O11   O     O_2   0.315836 0.305920 0.359859 -0.507927
C44   C     C_2   0.743308 0.634297 0.654963 0.456130
H12   H     H_    0.747931 0.629844 0.722321 0.002395
O12   O     O_2   0.684116 0.694038 0.640163 -0.507873
C45   C     C_2   0.826399 0.620194 0.243348 0.391555
H13   H     H_    0.796019 0.649435 0.310402 0.063243
O13   O     O_2   0.934188 0.631490 0.209020 -0.499522
C46   C     C_2   0.173600 0.379824 0.756652 0.391604
H14   H     H_    0.203976 0.350560 0.689607 0.063214
O14   O     O_2   0.065815 0.368562 0.790969 -0.499520
C47   C     C_1   0.321445 0.558759 0.174579 0.215723
N3    N     N_1   0.292067 0.600497 0.242518 -0.240639
C48   C     C_1   0.678549 0.441243 0.825428 0.215727
N4    N     N_1   0.707928 0.399501 0.757491 -0.240632
C49   C     C_1   0.650609 0.199694 0.556853 0.282576
N5    N     N_1   0.728132 0.247463 0.582493 -0.231703
C50   C     C_1   0.349387 0.800312 0.443160 0.282565
N6    N     N_1   0.271865 0.752546 0.417518 -0.231715
C51   C     C_2   0.236072 0.157768 0.517601 0.491827
H15   H     H_    0.215287 0.223878 0.561115 0.061244
O15   O     O_2   0.161336 0.113455 0.480609 -0.502922
C52   C     C_2   0.763903 0.842234 0.482476 0.491849
H16   H     H_    0.784737 0.776169 0.438914 0.061173
O16   O     O_2   0.838564 0.886497 0.519570 -0.502838
C53   C     C_1   0.177571 0.601888 0.609320 0.319872
N7    N     N_1   0.208443 0.655619 0.663558 -0.266383
C54   C     C_1   0.822430 0.398114 0.390678 0.319856
N8    N     N_1   0.791559 0.344384 0.336439 -0.266395

loop_
_geom_bond_atom_site_label_1
_geom_bond_atom_site_label_2
_ccdc_geom_bond_type
C51   H15   S    
C53   N7    T    
C5    C37   A    
C1    C8    S    
Cu1   Cu2   S    
C20   C43   S    
C54   N8    T    
C3    C47   S    
Cu2   O6    S    
C48   N4    T    
C31   C46   S    
C50   N6    T    
C27   C33   A    
C23   O7    A    
C8    C13   A    
C29   H5    S    
C17   C26   A    
C30   H6    S    
C35   C37   A    
C9    C16   A    
C46   O14   D    
C20   N1    A    
C10   C15   A    
C15   C16   A    
C30   C38   A    
C45   H13   S    
C6    C42   S    
C41   O9    D    
C1    O1    A    
C17   C19   A    
C19   N2    A    
C7    C14   A    
C4    C48   S    
C2    C7    S    
C6    C38   A    
C44   H12   S    
C23   C27   S    
C34   C36   A    
C28   C34   A    
C33   H4    S    
C45   O13   D    
C18   C25   A    
C14   C49   S    
C7    C12   A    
C27   C31   A    
C43   H11   S    
C36   C40   A    
C9    H7    S    
C46   H14   S    
C4    C6    A    
C2    O2    A    
C39   C40   A    
C21   C54   S    
C25   C26   A    
C43   O11   D    
C42   O10   D    
C35   C39   A    
C17   H1    S    
Cu1   O4    S    
C18   H2    S    
Cu2   O3    S    
C52   O16   D    
C49   N5    T    
C4    C39   A    
C28   C32   A    
C24   O8    A    
C5    C41   S    
C34   H3    S    
C9    C11   A    
Cu1   O1    S    
C10   C12   A    
C3    C40   A    
C13   C15   A    
C22   C53   S    
C14   C16   A    
C29   C37   A    
C10   H8    S    
C32   C45   S    
C23   O5    A    
C21   C25   A    
C12   C51   S    
C24   C28   S    
Cu1   O8    S    
C3    C5    A    
Cu2   O7    S    
C42   H10   S    
C36   C38   A    
C1    O3    A    
Cu1   O5    S    
C29   C31   A    
C2    O4    A    
Cu2   O2    S    
C30   C32   A    
C11   C52   S    
C52   H16   S    
C8    C11   A    
C33   C35   A    
C18   C20   A    
C41   H9    S    
C47   N3    T    
C24   O6    A    
C22   C26   A    
C13   C50   S    
C51   O15   D    
C19   C44   S    
C44   O12   D    
Cu1   N1    S    
C21   N2    A    
Cu2   N2    S    
C22   N1    A    
