data_mof_unit_30574.cif
_audit_creation_date              2012-12-10T20:35:55-0500
_audit_creation_method            fapswitch 2.2
_symmetry_space_group_name_H-M    P1
_symmetry_Int_Tables_number       1
_space_group_crystal_system       triclinic
_cell_length_a                    15.738023
_cell_length_b                    10.757823
_cell_length_c                    9.873482
_cell_angle_alpha                 90.035385
_cell_angle_beta                  89.015203
_cell_angle_gamma                 89.781789
_cell_volume                      1671.38886263

loop_
_atom_site_label
_atom_site_type_symbol
_atom_type_description
_atom_site_fract_x
_atom_site_fract_y
_atom_site_fract_z
_atom_type_partial_charge
C1    C     C_R   0.502147 0.260697 0.499834 0.909780
C2    C     C_3   0.949376 0.401754 0.593236 0.508460
C3    C     C_3   0.916443 0.517757 0.507217 -0.010502
C4    C     C_3   0.949822 0.646416 0.570304 0.345286
C5    C     C_3   0.049346 0.629174 0.584837 -0.014765
C6    C     C_1   0.825077 0.512456 0.501012 0.135865
C7    C     C_1   0.174388 0.510793 0.503516 0.141921
C8    C     C_1   0.249610 0.506417 0.502946 -0.183156
C9    C     C_R   0.511915 0.062119 0.615877 0.030368
C10   C     C_R   0.504928 0.129731 0.497830 -0.185894
C11   C     C_R   0.496481 0.066253 0.374685 -0.239239
C12   C     C_R   0.338349 0.501095 0.501028 0.889394
C13   C     C_R   0.487409 0.938306 0.373468 0.438535
C14   C     C_R   0.495718 0.871329 0.496972 -0.235180
C15   C     C_R   0.507795 0.937719 0.615704 -0.037275
C16   C     C_3   0.512733 0.928625 0.767919 0.383569
C17   C     C_3   0.518006 0.073104 0.766946 -0.013017
C18   C     C_R   0.432168 0.543697 0.072826 0.084986
C19   C     C_R   0.570646 0.465349 0.069969 -0.136661
C20   C     C_R   0.570532 0.464907 0.926073 -0.155183
C21   C     C_R   0.432520 0.546559 0.930832 0.125347
C22   C     C_3   0.340431 0.510390 0.925625 0.517576
C23   C     C_R   0.497260 0.739607 0.499607 0.873349
C24   C     C_3   0.341024 0.504481 0.081374 -0.084597
C25   C     C_R   0.661564 0.500071 0.498956 0.879894
C26   C     C_3   0.049039 0.393576 0.576443 0.044034
C27   C     C_3   0.049868 0.521481 0.356151 0.232537
C28   C     C_3   0.951796 0.504376 0.357389 0.059652
C29   C     C_1   0.750074 0.505759 0.497599 -0.210583
C30   C     C_3   0.082642 0.513107 0.503933 0.019017
H1    H     H_    0.077859 0.387945 0.678913 0.101569
H2    H     H_    0.492569 0.115436 0.279469 0.183361
H3    H     H_    0.462048 0.120795 0.814071 0.129282
H4    H     H_    0.626859 0.435255 0.122365 0.159939
H5    H     H_    0.626719 0.434522 0.870688 0.160151
H6    H     H_    0.302119 0.578055 0.132130 0.136512
H7    H     H_    0.065007 0.616003 0.317513 0.196385
H8    H     H_    0.935661 0.411053 0.318141 0.124210
H9    H     H_    0.063960 0.611787 0.693148 0.107475
N1    N     N_R   0.499430 0.499140 0.142800 -0.085260
N2    N     N_R   0.499430 0.499180 0.857150 -0.086855
O1    O     O_R   0.500010 0.316790 0.614690 -0.594582
O2    O     O_R   0.500000 0.316760 0.385350 -0.624079
O3    O     O_R   0.377150 0.500020 0.614720 -0.580268
O4    O     O_R   0.377140 0.499990 0.385380 -0.599898
O5    O     O_R   0.500000 0.683240 0.614650 -0.624817
O6    O     O_R   0.499990 0.683210 0.385310 -0.591676
O7    O     O_R   0.622860 0.500010 0.614620 -0.633057
O8    O     O_R   0.622850 0.499980 0.385280 -0.610661
Zn1   Zn    Zn3+2 0.500010 0.500020 0.653130 0.973142
Zn2   Zn    Zn3+2 0.499990 0.499980 0.346870 0.970970
N3    N     N_2   0.909394 0.285838 0.547709 -0.262845
H10   H     H_    0.921698 0.259084 0.449275 0.221416
C31   C     C_3   0.910070 0.180397 0.639364 -0.619022
H11   H     H_    0.876627 0.100988 0.592431 0.192437
H12   H     H_    0.876191 0.203190 0.735680 0.254681
H13   H     H_    0.976249 0.151537 0.661017 0.254814
O9    O     O_3   0.925825 0.418283 0.731138 -0.782406
H14   H     H_    0.968815 0.467808 0.779159 0.322922
N4    N     N_2   0.934981 0.752905 0.479478 -0.242196
H15   H     H_    0.972499 0.762071 0.393642 0.285315
C32   C     C_3   0.854763 0.818990 0.475204 -0.702297
H16   H     H_    0.857927 0.891098 0.394812 0.223829
H17   H     H_    0.842482 0.868398 0.572195 0.222738
H18   H     H_    0.802128 0.755340 0.450582 0.252185
O10   O     O_3   0.468013 0.883814 0.251649 -0.779651
H19   H     H_    0.418212 0.829464 0.268545 0.338124
N5    N     N_2   0.435929 0.879921 0.834812 -0.301947
H20   H     H_    0.434681 0.894604 0.938038 0.249703
C33   C     C_3   0.353817 0.903918 0.774974 -0.821260
H21   H     H_    0.302584 0.868181 0.842915 0.252601
H22   H     H_    0.349094 0.855394 0.676207 0.252662
H23   H     H_    0.343136 0.005068 0.761024 0.235654
N6    N     N_2   0.590113 0.866044 0.811373 -0.305558
H24   H     H_    0.605094 0.785187 0.760251 0.241819
C34   C     C_3   0.603778 0.856828 0.955703 -0.707196
H25   H     H_    0.671332 0.832829 0.973486 0.231799
H26   H     H_    0.563279 0.782354 0.000063 0.250116
H27   H     H_    0.589281 0.946414 0.007218 0.264326
N7    N     N_2   0.598379 0.122845 0.815001 -0.282781
H28   H     H_    0.591337 0.201599 0.873623 0.224414
C35   C     C_3   0.672662 0.125614 0.726052 -0.700999
H29   H     H_    0.729448 0.146904 0.786704 0.224070
H30   H     H_    0.665423 0.199144 0.648167 0.230039
H31   H     H_    0.683102 0.034223 0.676109 0.244293
O11   O     O_3   0.074162 0.285998 0.504530 -0.776039
H32   H     H_    0.133301 0.265773 0.530487 0.349090
N8    N     N_2   0.288253 0.611215 0.874189 -0.330205
H33   H     H_    0.306183 0.642126 0.779311 0.263561
C36   C     C_3   0.197168 0.598187 0.890550 -0.848896
H34   H     H_    0.165884 0.687521 0.864690 0.248066
H35   H     H_    0.179501 0.574565 0.996732 0.265086
H36   H     H_    0.173666 0.524725 0.821979 0.235804
O12   O     O_3   0.328555 0.397594 0.856856 -0.741034
H37   H     H_    0.269909 0.369764 0.878503 0.332910
N9    N     N_2   0.325601 0.382569 0.142401 -0.258378
H38   H     H_    0.262537 0.366491 0.166066 0.255258
C37   C     C_3   0.371577 0.271455 0.100333 -0.640971
H39   H     H_    0.374936 0.207535 0.187925 0.219262
H40   H     H_    0.436942 0.291776 0.064135 0.240536
H41   H     H_    0.336912 0.221910 0.019849 0.225953
O13   O     O_3   0.092259 0.438748 0.266594 -0.789156
H42   H     H_    0.066837 0.355045 0.274936 0.375308
O14   O     O_3   0.913394 0.590316 0.269838 -0.767785
H43   H     H_    0.931300 0.567366 0.176130 0.353111
O15   O     O_3   0.094270 0.736652 0.545009 -0.766108
H44   H     H_    0.084256 0.799872 0.616901 0.346175
N10   N     N_2   0.916320 0.676831 0.707202 -0.312938
H45   H     H_    0.943595 0.755372 0.747677 0.220600
C38   C     C_3   0.828109 0.662113 0.751238 -0.721271
H46   H     H_    0.818904 0.705387 0.852646 0.222274
H47   H     H_    0.811075 0.563117 0.763071 0.286728
H48   H     H_    0.783072 0.707210 0.682108 0.225897

loop_
_geom_bond_atom_site_label_1
_geom_bond_atom_site_label_2
_ccdc_geom_bond_type
C18   C21   A    
C19   C20   A    
C34   H27   S    
C3    C6    S    
C20   N2    A    
C7    C8    T    
C4    N10   S    
C24   H6    S    
N6    C34   S    
C16   N6    S    
C3    C28   S    
C34   H26   S    
C24   N9    S    
N7    H28   S    
O15   H44   S    
O4    Zn2   S    
C15   C16   S    
C37   H39   S    
N10   H45   S    
N4    C32   S    
C18   N1    A    
C38   H46   S    
C32   H17   S    
C20   H5    S    
C1    O2    A    
C16   C17   S    
O8    Zn2   S    
N9    C37   S    
C33   H21   S    
C16   N5    S    
C22   N8    S    
C9    C10   A    
C26   O11   S    
C13   O10   S    
O7    Zn1   S    
O10   H19   S    
C26   H1    S    
C23   O5    A    
C21   C22   S    
C27   C30   S    
C22   O12   S    
O12   H37   S    
C17   H3    S    
O14   H43   S    
N3    C31   S    
C38   H47   S    
C5    O15   S    
C25   C29   S    
C31   H12   S    
C23   O6    A    
N6    H24   S    
C34   H25   S    
C18   C24   S    
N7    C35   S    
C19   N1    A    
O11   H32   S    
N5    H20   S    
O6    Zn2   S    
O9    H14   S    
C17   N7    S    
N4    H15   S    
C14   C23   S    
C32   H16   S    
C28   O14   S    
C36   H35   S    
C38   H48   S    
C28   H8    S    
C8    C12   S    
N9    H38   S    
C4    N4    S    
C33   H23   S    
C2    C26   S    
C25   O7    A    
C2    N3    S    
O1    Zn1   S    
C21   N2    A    
C9    C17   S    
N8    C36   S    
C11   H2    S    
C26   C30   S    
C35   H30   S    
C5    H9    S    
C22   C24   S    
C3    C4    S    
N1    Zn2   S    
N2    Zn1   S    
N3    H10   S    
C36   H36   S    
C5    C30   S    
O3    Zn1   S    
C31   H11   S    
C32   H18   S    
C1    C10   S    
C12   O4    A    
C19   H4    S    
C2    O9    S    
C35   H31   S    
O5    Zn1   S    
C27   O13   S    
C37   H40   S    
C37   H41   S    
C2    C3    S    
C9    C15   A    
C12   O3    A    
C11   C13   A    
O2    Zn2   S    
C36   H34   S    
C27   H7    S    
N10   C38   S    
O13   H42   S    
C25   O8    A    
C10   C11   A    
C1    O1    A    
C4    C5    S    
C6    C29   T    
N8    H33   S    
N5    C33   S    
C35   H29   S    
C27   C28   S    
C7    C30   S    
C14   C15   A    
C33   H22   S    
C13   C14   A    
C31   H13   S    
