data_mof_unit_20248.cif
_audit_creation_date              2012-12-10T17:33:46-0500
_audit_creation_method            fapswitch 2.2
_symmetry_space_group_name_H-M    P1
_symmetry_Int_Tables_number       1
_space_group_crystal_system       triclinic
_cell_length_a                    11.696029
_cell_length_b                    12.432948
_cell_length_c                    13.27842
_cell_angle_alpha                 117.094979
_cell_angle_beta                  76.712179
_cell_angle_gamma                 101.442181
_cell_volume                      1663.15407222

loop_
_atom_site_label
_atom_site_type_symbol
_atom_type_description
_atom_site_fract_x
_atom_site_fract_y
_atom_site_fract_z
_atom_type_partial_charge
C1    C     C_R   0.511232 0.854795 0.286785 0.766062
C2    C     C_R   0.460805 0.227704 0.834784 -0.056412
C3    C     C_R   0.597370 0.811965 0.086053 -0.184608
C4    C     C_R   0.627842 0.731202 0.972700 -0.127958
C5    C     C_R   0.587392 0.608500 0.935736 -0.128625
C6    C     C_R   0.509788 0.564265 0.011017 0.081567
C7    C     C_R   0.469970 0.649344 0.124064 0.080855
C8    C     C_R   0.469002 0.438788 0.977451 0.082928
C9    C     C_R   0.383514 0.401770 0.053899 0.156244
C10   C     C_R   0.337526 0.488234 0.160202 -0.227809
C11   C     C_R   0.378192 0.610200 0.193869 -0.184505
C12   C     C_R   0.715661 0.999970 0.499611 0.807865
C13   C     C_R   0.509516 0.348629 0.869627 -0.185734
C14   C     C_R   0.379455 0.191937 0.912080 -0.186501
C15   C     C_R   0.522007 0.771903 0.163735 -0.106041
C16   C     C_R   0.677914 0.343513 0.320543 -0.242219
C17   C     C_R   0.334119 0.757730 0.638064 -0.022374
C18   C     C_R   0.282597 0.654156 0.653545 -0.060421
C19   C     C_R   0.339299 0.548181 0.593277 -0.112105
C20   C     C_R   0.451540 0.547536 0.524988 -0.027222
C21   C     C_R   0.492746 0.651958 0.503117 0.278583
C22   C     C_R   0.520197 0.444963 0.470761 -0.025248
C23   C     C_R   0.483486 0.144913 0.713166 0.794990
C24   C     C_R   0.614530 0.443361 0.382189 0.103176
C25   C     C_R   0.647600 0.542639 0.355892 -0.258579
C26   C     C_R   0.590488 0.646222 0.417694 -0.158108
C27   C     C_R   0.503263 0.345984 0.502129 0.106290
C28   C     C_R   0.652415 0.243924 0.346787 0.178714
C29   C     C_R   0.284341 0.999996 0.500345 0.808655
C30   C     C_1   0.837603 0.000224 0.499488 -0.168662
C31   C     C_1   0.940125 0.000043 0.499638 0.014125
C32   C     C_1   0.059918 0.999706 0.499985 0.010631
C33   C     C_1   0.162425 0.999600 0.500251 -0.178085
C34   C     C_R   0.341757 0.278583 0.021632 -0.176144
Cu1   Cu    Cu3+1 0.526510 0.098270 0.475420 0.932229
Cu2   Cu    Cu3+1 0.473490 0.901730 0.524580 0.929375
H1    H     H_    0.340945 0.098368 0.886179 0.152787
H2    H     H_    0.720847 0.541630 0.288482 0.156071
H3    H     H_    0.748698 0.343910 0.251590 0.187463
H4    H     H_    0.290179 0.839700 0.681787 0.126877
H5    H     H_    0.291345 0.466077 0.596435 0.165582
H6    H     H_    0.623843 0.718773 0.393454 0.200823
H7    H     H_    0.268692 0.461624 0.217339 0.150420
H8    H     H_    0.276563 0.249941 0.079696 0.144353
H9    H     H_    0.577127 0.369794 0.809134 0.163785
H10   H     H_    0.636295 0.905361 0.113636 0.180394
H11   H     H_    0.617117 0.551628 0.847097 0.166315
H12   H     H_    0.686586 0.763266 0.913725 0.159139
H13   H     H_    0.334023 0.673377 0.274234 0.175603
N1    N     N_R   0.566700 0.246290 0.438210 -0.254921
N2    N     N_R   0.434010 0.754320 0.561170 -0.203842
O1    O     O_R   0.533340 0.972510 0.318140 -0.602135
O2    O     O_R   0.488570 0.806530 0.359650 -0.600078
O3    O     O_R   0.685190 0.083000 0.479260 -0.597515
O4    O     O_R   0.640410 0.917020 0.520770 -0.583036
O5    O     O_R   0.511430 0.193470 0.640350 -0.582573
O6    O     O_R   0.466660 0.027490 0.681860 -0.579105
O7    O     O_R   0.359590 0.082980 0.479230 -0.596750
O8    O     O_R   0.314810 0.917000 0.520740 -0.581865
C35   C     C_2   0.430257 0.357526 0.612032 0.406315
H14   H     H_    0.356398 0.290902 0.615601 0.099821
O9    O     O_2   0.451583 0.444258 0.701095 -0.567415
C36   C     C_2   0.167885 0.657139 0.729792 0.373490
H15   H     H_    0.124436 0.739740 0.773196 0.057268
O10   O     O_2   0.120661 0.567987 0.745474 -0.528050
C37   C     C_2   0.723338 0.139940 0.274263 0.345002
H16   H     H_    0.725089 0.068873 0.298025 0.133274
O11   O     O_2   0.783885 0.132328 0.183494 -0.582423

loop_
_geom_bond_atom_site_label_1
_geom_bond_atom_site_label_2
_ccdc_geom_bond_type
C16   C28   A    
C37   O11   D    
C21   C26   A    
C36   O10   D    
C24   C25   A    
C14   C34   A    
C6    C7    A    
C1    C15   S    
C29   C33   S    
C25   H2    S    
C18   C19   A    
C9    C10   A    
C10   H7    S    
C3    H10   S    
C28   C37   S    
C19   C20   A    
C27   N1    A    
C30   C31   T    
C27   C35   S    
Cu2   O8    S    
C32   C33   T    
C17   N2    A    
Cu1   N1    S    
C7    C15   A    
C17   C18   A    
Cu1   O5    S    
C3    C15   A    
C23   O5    A    
C16   C24   A    
Cu2   O4    S    
C29   O7    A    
Cu1   O3    S    
C13   H9    S    
C5    H11   S    
C8    C13   A    
Cu2   N2    S    
C35   H14   S    
Cu1   O7    S    
C11   H13   S    
C20   C22   A    
C9    C34   A    
C37   H16   S    
C22   C27   A    
C5    C6    A    
C2    C14   A    
C1    O1    A    
C22   C24   A    
C18   C36   S    
C12   O4    A    
C10   C11   A    
C16   H3    S    
C3    C4    A    
C19   H5    S    
C21   N2    A    
C34   H8    S    
C20   C21   A    
C26   H6    S    
C35   O9    D    
Cu2   O6    S    
C4    H12   S    
C2    C23   S    
C23   O6    A    
C2    C13   A    
C1    O2    A    
Cu1   O1    S    
C8    C9    A    
C7    C11   A    
C6    C8    A    
Cu2   O2    S    
C12   C30   S    
C25   C26   A    
C36   H15   S    
C28   N1    A    
C17   H4    S    
C31   C32   S    
C12   O3    A    
C29   O8    A    
C4    C5    A    
C14   H1    S    
Cu1   Cu2   S    
