data_mof_unit_60433.cif
_audit_creation_date              2012-12-10T17:01:28-0500
_audit_creation_method            fapswitch 2.2
_symmetry_space_group_name_H-M    P1
_symmetry_Int_Tables_number       1
_space_group_crystal_system       triclinic
_cell_length_a                    21.722409
_cell_length_b                    21.722292
_cell_length_c                    55.832597
_cell_angle_alpha                 89.999133
_cell_angle_beta                  89.999338
_cell_angle_gamma                 89.999513
_cell_volume                      26345.1977586

loop_
_atom_site_label
_atom_site_type_symbol
_atom_type_description
_atom_site_fract_x
_atom_site_fract_y
_atom_site_fract_z
_atom_type_partial_charge
C1    C     C_R   0.502117 0.618952 0.000137 0.925960
C2    C     C_R   0.543262 0.036904 0.762325 0.044602
C3    C     C_R   0.500004 0.999996 0.698977 -0.051417
C4    C     C_R   0.531072 0.954730 0.161145 0.503067
C5    C     C_R   0.045674 0.530481 0.161144 0.503080
C6    C     C_R   0.468922 0.045268 0.161145 0.503068
C7    C     C_R   0.954336 0.469513 0.161145 0.503081
C8    C     C_R   0.030493 0.454336 0.661144 0.503085
C9    C     C_R   0.545675 0.030476 0.661143 0.503081
C10   C     C_R   0.969498 0.545655 0.661144 0.503086
C11   C     C_R   0.454332 0.969516 0.661144 0.503083
C12   C     C_R   0.979976 0.448192 0.888202 -0.148774
C13   C     C_R   0.963073 0.543241 0.762326 0.044601
C14   C     C_R   0.551812 0.979971 0.888203 -0.148767
C15   C     C_R   0.020028 0.551814 0.888202 -0.148772
C16   C     C_R   0.448193 0.020031 0.888203 -0.148765
C17   C     C_R   0.480166 0.948120 0.388198 -0.148982
C18   C     C_R   0.051814 0.479979 0.388203 -0.148771
C19   C     C_R   0.519838 0.051886 0.388198 -0.148972
C20   C     C_R   0.948191 0.520026 0.388203 -0.148762
C21   C     C_R   0.979469 0.447469 0.913199 -0.057097
C22   C     C_R   0.552533 0.979465 0.913199 -0.057105
C23   C     C_R   0.020533 0.552535 0.913199 -0.057098
C24   C     C_R   0.456746 0.963091 0.762326 0.044603
C25   C     C_R   0.447471 0.020536 0.913199 -0.057104
C26   C     C_R   0.479627 0.947404 0.413195 -0.056846
C27   C     C_R   0.052535 0.479472 0.413199 -0.057096
C28   C     C_R   0.520375 0.052600 0.413195 -0.056850
C29   C     C_R   0.947468 0.520532 0.413199 -0.057100
C30   C     C_R   0.000000 0.500002 0.926211 -0.137609
C31   C     C_R   0.500001 0.000000 0.926211 -0.137606
C32   C     C_R   0.500000 0.000002 0.426208 -0.137666
C33   C     C_R   0.000001 0.500000 0.426211 -0.137604
C34   C     C_R   0.000002 0.500004 0.875752 0.285285
C35   C     C_R   0.537438 0.957200 0.262330 0.044605
C36   C     C_R   0.500003 0.000001 0.875752 0.285268
C37   C     C_R   0.500003 0.000004 0.375751 0.285827
C38   C     C_R   0.000002 0.500003 0.375752 0.285268
C39   C     C_R   0.444845 0.991373 0.110985 -0.099702
C40   C     C_R   0.008063 0.444760 0.110989 -0.099796
C41   C     C_R   0.555150 0.008626 0.110985 -0.099704
C42   C     C_R   0.991944 0.555236 0.110989 -0.099800
C43   C     C_R   0.944766 0.491902 0.610988 -0.099803
C44   C     C_R   0.508083 0.944761 0.610989 -0.099809
C45   C     C_R   0.055227 0.508091 0.610989 -0.099806
C46   C     C_R   0.043257 0.536912 0.262326 0.044603
C47   C     C_R   0.491920 0.055234 0.610989 -0.099811
C48   C     C_R   0.444754 0.991580 0.086058 -0.215097
C49   C     C_R   0.007866 0.444671 0.086061 -0.215037
C50   C     C_R   0.555243 0.008419 0.086058 -0.215097
C51   C     C_R   0.992137 0.555326 0.086061 -0.215036
C52   C     C_R   0.944678 0.492099 0.586061 -0.215035
C53   C     C_R   0.507887 0.944673 0.586061 -0.215028
C54   C     C_R   0.055318 0.507896 0.586061 -0.215036
C55   C     C_R   0.492114 0.055324 0.586061 -0.215026
C56   C     C_2   0.783239 0.457038 0.986282 -0.164022
C57   C     C_R   0.462563 0.042805 0.262330 0.044605
C58   C     C_2   0.542965 0.783238 0.986283 -0.163988
C59   C     C_2   0.216762 0.542964 0.986283 -0.164022
C60   C     C_2   0.457034 0.216763 0.986284 -0.163986
C61   C     C_2   0.283242 0.957069 0.486264 -0.163951
C62   C     C_2   0.042964 0.283238 0.486283 -0.164018
C63   C     C_2   0.716759 0.042932 0.486264 -0.163952
C64   C     C_2   0.957036 0.716762 0.486283 -0.164012
C65   C     C_R   0.499999 1.000000 0.073408 -0.044930
C66   C     C_R   0.000001 0.499999 0.073410 -0.045040
C67   C     C_R   0.999999 0.499998 0.573410 -0.045034
C68   C     C_R   0.956751 0.463087 0.262327 0.044603
C69   C     C_R   0.500000 0.999999 0.573411 -0.045034
C70   C     C_2   0.815108 0.502733 0.996400 -0.331970
C71   C     C_2   0.497269 0.815108 0.996400 -0.331995
C72   C     C_2   0.184892 0.497268 0.996401 -0.331970
C73   C     C_2   0.502731 0.184892 0.996400 -0.331996
C74   C     C_2   0.315108 0.002733 0.496405 -0.331916
C75   C     C_2   0.997269 0.315108 0.496400 -0.331971
C76   C     C_2   0.684892 0.997267 0.496405 -0.331915
C77   C     C_2   0.002731 0.684892 0.496400 -0.331968
C78   C     C_2   0.716433 0.462499 0.983995 -0.156684
C79   C     C_R   0.000001 0.500002 0.774883 0.072232
C80   C     C_2   0.537504 0.716432 0.983995 -0.156676
C81   C     C_2   0.283568 0.537503 0.983995 -0.156682
C82   C     C_2   0.462495 0.283569 0.983996 -0.156676
C83   C     C_2   0.216434 0.962532 0.483981 -0.156560
C84   C     C_2   0.037503 0.216432 0.483995 -0.156661
C85   C     C_2   0.783567 0.037470 0.483981 -0.156561
C86   C     C_2   0.962497 0.783569 0.483995 -0.156664
C87   C     C_2   0.684715 0.491700 0.001058 -0.325815
C88   C     C_2   0.508301 0.684715 0.001058 -0.325819
C89   C     C_2   0.315285 0.508301 0.001058 -0.325817
C90   C     C_R   0.500004 0.999998 0.774883 0.072228
C91   C     C_2   0.491698 0.315285 0.001059 -0.325820
C92   C     C_2   0.184715 0.991683 0.501057 -0.325907
C93   C     C_2   0.008301 0.184715 0.501058 -0.325805
C94   C     C_2   0.815285 0.008318 0.501057 -0.325907
C95   C     C_2   0.991696 0.815285 0.501059 -0.325808
C96   C     C_R   1.000000 0.500000 0.952808 0.863997
C97   C     C_R   0.500000 0.000000 0.952808 0.863997
C98   C     C_R   0.500000 0.000000 0.452807 0.863757
C99   C     C_R   0.000000 0.500000 0.452808 0.863991
C100  C     C_R   0.880831 0.500322 0.999117 0.937827
C101  C     C_R   0.500001 0.000003 0.274887 0.072209
C102  C     C_R   0.499679 0.880831 0.999117 0.937794
C103  C     C_R   0.119169 0.499678 0.999117 0.937827
C104  C     C_R   0.500321 0.119169 0.999117 0.937794
C105  C     C_R   0.380831 0.000322 0.499117 0.937744
C106  C     C_R   0.999679 0.380831 0.499117 0.937819
C107  C     C_R   0.619169 0.999678 0.499117 0.937747
C108  C     C_R   0.000321 0.619169 0.499117 0.937826
C109  C     C_R   1.000000 0.499999 0.047150 0.884222
C110  C     C_R   0.500000 1.000000 0.047149 0.884153
C111  C     C_R   0.500000 0.999999 0.547150 0.884216
C112  C     C_R   0.381048 0.502117 0.000137 0.925962
C113  C     C_R   0.000004 0.500000 0.274883 0.072223
C114  C     C_R   1.000000 0.500000 0.547150 0.884215
C115  C     C_R   0.955910 0.391068 0.924789 0.151498
C116  C     C_R   0.896445 0.389780 0.934620 -0.126040
C117  C     C_R   0.873711 0.335466 0.944775 -0.133218
C118  C     C_R   0.910293 0.282549 0.945344 -0.110799
C119  C     C_R   0.969524 0.283641 0.935579 -0.149815
C120  C     C_R   0.992221 0.337622 0.925193 -0.121063
C121  C     C_R   0.608934 0.955906 0.924789 0.151500
C122  C     C_R   0.610221 0.896440 0.934621 -0.126052
C123  C     C_R   0.664534 0.873705 0.944775 -0.133212
C124  C     C_R   0.075888 0.417442 0.775687 -0.214317
C125  C     C_R   0.717451 0.910286 0.945344 -0.110786
C126  C     C_R   0.716360 0.969518 0.935579 -0.149822
C127  C     C_R   0.662379 0.992216 0.925194 -0.121056
C128  C     C_R   0.044091 0.608935 0.924789 0.151498
C129  C     C_R   0.103556 0.610223 0.934620 -0.126044
C130  C     C_R   0.126289 0.664537 0.944775 -0.133219
C131  C     C_R   0.089705 0.717452 0.945345 -0.110798
C132  C     C_R   0.030474 0.716360 0.935581 -0.149816
C133  C     C_R   0.007778 0.662380 0.925195 -0.121057
C134  C     C_R   0.391071 0.044098 0.924789 0.151498
C135  C     C_R   0.582602 0.075842 0.775686 -0.214312
C136  C     C_R   0.389784 0.103565 0.934618 -0.126063
C137  C     C_R   0.335471 0.126302 0.944773 -0.133214
C138  C     C_R   0.282555 0.089720 0.945344 -0.110783
C139  C     C_R   0.283645 0.030487 0.935581 -0.149824
C140  C     C_R   0.337625 0.007787 0.925196 -0.121044
C141  C     C_R   0.456194 0.890942 0.424781 0.151510
C142  C     C_R   0.396821 0.889591 0.434697 -0.125181
C143  C     C_R   0.374216 0.835237 0.444863 -0.133082
C144  C     C_R   0.410828 0.782336 0.445352 -0.110989
C145  C     C_R   0.469961 0.783484 0.435498 -0.149696
C146  C     C_R   0.924115 0.582564 0.775687 -0.214316
C147  C     C_R   0.492532 0.837510 0.425106 -0.121826
C148  C     C_R   0.108939 0.455917 0.424788 0.151497
C149  C     C_R   0.110225 0.396459 0.434628 -0.125984
C150  C     C_R   0.164542 0.373727 0.444782 -0.133204
C151  C     C_R   0.217462 0.410305 0.445341 -0.110818
C152  C     C_R   0.216372 0.469529 0.435569 -0.149822
C153  C     C_R   0.162388 0.492223 0.425184 -0.121103
C154  C     C_R   0.543811 0.109060 0.424782 0.151510
C155  C     C_R   0.603189 0.110410 0.434693 -0.125208
C156  C     C_R   0.625798 0.164762 0.444858 -0.133091
C157  C     C_R   0.417405 0.924153 0.775688 -0.214313
C158  C     C_R   0.589186 0.217663 0.445351 -0.110984
C159  C     C_R   0.530048 0.216514 0.435502 -0.149697
C160  C     C_R   0.507471 0.162490 0.425111 -0.121804
C161  C     C_R   0.891067 0.544091 0.424789 0.151498
C162  C     C_R   0.889779 0.603558 0.434619 -0.126051
C163  C     C_R   0.835466 0.626293 0.444774 -0.133213
C164  C     C_R   0.782551 0.589710 0.445345 -0.110810
C165  C     C_R   0.783643 0.530477 0.435582 -0.149830
C166  C     C_R   0.837623 0.507779 0.425196 -0.121044
C167  C     C_R   0.576833 0.918318 0.275693 -0.214262
C168  C     C_R   0.082591 0.575858 0.275686 -0.214310
C169  C     C_R   0.423170 0.081690 0.275693 -0.214262
C170  C     C_R   0.917415 0.424143 0.275688 -0.214310
C171  C     C_R   0.076440 0.418731 0.800535 -0.139172
C172  C     C_R   0.497883 0.381048 0.000137 0.925961
C173  C     C_R   0.581313 0.076396 0.800534 -0.139171
C174  C     C_R   0.923565 0.581277 0.800535 -0.139169
C175  C     C_R   0.418694 0.923601 0.800536 -0.139171
C176  C     C_R   0.577347 0.919592 0.300541 -0.139189
C177  C     C_R   0.081302 0.576411 0.300534 -0.139168
C178  C     C_R   0.422659 0.080417 0.300541 -0.139189
C179  C     C_R   0.918704 0.423591 0.300536 -0.139168
C180  C     C_R   0.038289 0.459220 0.813037 -0.022845
C181  C     C_R   0.540803 0.038267 0.813036 -0.022843
C182  C     C_R   0.961716 0.540787 0.813037 -0.022844
C183  C     C_R   0.618952 0.497883 0.000137 0.925962
C184  C     C_R   0.459204 0.961731 0.813037 -0.022844
C185  C     C_R   0.538737 0.959645 0.313042 -0.022911
C186  C     C_R   0.040798 0.538275 0.313037 -0.022842
C187  C     C_R   0.461269 0.040364 0.313042 -0.022911
C188  C     C_R   0.959208 0.461728 0.313038 -0.022844
C189  C     C_R   0.000002 0.500003 0.800300 -0.052042
C190  C     C_R   0.500004 0.999999 0.800300 -0.052041
C191  C     C_R   0.500002 0.000004 0.300305 -0.052007
C192  C     C_R   0.000003 0.500001 0.300301 -0.052044
C193  C     C_R   0.037941 0.460306 0.838132 0.507258
C194  C     C_R   0.002117 0.118952 0.500137 0.925966
C195  C     C_R   0.539716 0.037922 0.838131 0.507259
C196  C     C_R   0.962065 0.539703 0.838132 0.507261
C197  C     C_R   0.460291 0.962077 0.838132 0.507259
C198  C     C_R   0.538359 0.960709 0.338137 0.507285
C199  C     C_R   0.039710 0.537930 0.338131 0.507254
C200  C     C_R   0.461649 0.039301 0.338137 0.507285
C201  C     C_R   0.960294 0.462074 0.338132 0.507259
C202  C     C_R   0.534734 0.954979 0.236954 0.044319
C203  C     C_R   0.045463 0.534158 0.236951 0.044316
C204  C     C_R   0.465265 0.045024 0.236954 0.044318
C205  C     C_R   0.881048 0.002121 0.500137 0.925978
C206  C     C_R   0.954545 0.465840 0.236952 0.044317
C207  C     C_R   0.034173 0.454553 0.736952 0.044312
C208  C     C_R   0.545467 0.034150 0.736951 0.044315
C209  C     C_R   0.965825 0.545446 0.736952 0.044312
C210  C     C_R   0.454541 0.965844 0.736952 0.044315
C211  C     C_R   0.499999 0.000001 0.224397 0.071771
C212  C     C_R   0.000005 0.499998 0.224395 0.071786
C213  C     C_R   0.999998 0.499999 0.724395 0.071799
C214  C     C_R   0.500004 0.999997 0.724395 0.071791
C215  C     C_R   0.434756 0.091207 0.223591 -0.214471
C216  C     C_R   0.997882 0.881048 0.500137 0.925968
C217  C     C_R   0.907958 0.435947 0.223591 -0.214494
C218  C     C_R   0.565241 0.908795 0.223591 -0.214472
C219  C     C_R   0.092050 0.564049 0.223590 -0.214493
C220  C     C_R   0.935918 0.592023 0.723590 -0.214499
C221  C     C_R   0.407950 0.935958 0.723591 -0.214494
C222  C     C_R   0.064078 0.407975 0.723591 -0.214499
C223  C     C_R   0.592058 0.064035 0.723589 -0.214493
C224  C     C_R   0.499997 0.999999 0.123520 0.310255
C225  C     C_R   0.000004 0.499998 0.123521 0.310478
C226  C     C_R   0.999996 0.499996 0.623521 0.310502
C227  C     C_R   0.118952 0.997879 0.500137 0.925979
C228  C     C_R   0.500002 0.999997 0.623521 0.310520
C229  C     C_R   0.436119 0.091470 0.198743 -0.137405
C230  C     C_R   0.907704 0.437322 0.198744 -0.137391
C231  C     C_R   0.563876 0.908530 0.198743 -0.137406
C232  C     C_R   0.092306 0.562673 0.198742 -0.137391
C233  C     C_R   0.937294 0.592277 0.698742 -0.137396
C234  C     C_R   0.407695 0.937333 0.698743 -0.137390
C235  C     C_R   0.062699 0.407717 0.698743 -0.137395
C236  C     C_R   0.592312 0.062659 0.698742 -0.137391
C237  C     C_R   0.467930 0.045829 0.186241 -0.021327
C238  C     C_R   0.036928 0.456761 0.762326 0.044601
C239  C     C_R   0.953759 0.468531 0.186241 -0.021343
C240  C     C_R   0.532065 0.954170 0.186241 -0.021328
C241  C     C_R   0.046250 0.531465 0.186240 -0.021345
C242  C     C_R   0.968515 0.546232 0.686240 -0.021354
C243  C     C_R   0.453755 0.968535 0.686240 -0.021352
C244  C     C_R   0.031477 0.453761 0.686240 -0.021355
C245  C     C_R   0.546252 0.031458 0.686239 -0.021353
C246  C     C_R   0.499998 0.000000 0.198979 -0.051405
C247  C     C_R   0.000005 0.499998 0.198977 -0.051422
C248  C     C_R   0.999996 0.499997 0.698977 -0.051413
H1    H     H_    0.806220 0.416788 0.979090 0.161255
H2    H     H_    0.014599 0.401957 0.120601 0.145867
H3    H     H_    0.172396 0.665854 0.952072 0.120187
H4    H     H_    0.107370 0.759378 0.953249 0.125978
H5    H     H_    0.002277 0.757428 0.935948 0.131692
H6    H     H_    0.961987 0.662110 0.917514 0.140460
H7    H     H_    0.430538 0.132283 0.934227 0.119306
H8    H     H_    0.334155 0.172409 0.952069 0.120192
H9    H     H_    0.240630 0.107388 0.953248 0.125985
H10   H     H_    0.242577 0.002292 0.935949 0.131691
H11   H     H_    0.337894 0.961995 0.917516 0.140461
H12   H     H_    0.368079 0.930333 0.434371 0.119041
H13   H     H_    0.597883 0.015609 0.120597 0.145999
H14   H     H_    0.328187 0.833879 0.452233 0.120139
H15   H     H_    0.393262 0.740378 0.453263 0.125987
H16   H     H_    0.498178 0.742427 0.435802 0.131746
H17   H     H_    0.538250 0.837826 0.417359 0.140553
H18   H     H_    0.069468 0.367744 0.434246 0.119282
H19   H     H_    0.165858 0.327627 0.452085 0.120186
H20   H     H_    0.259390 0.392642 0.453244 0.125975
H21   H     H_    0.257444 0.497720 0.435927 0.131693
H22   H     H_    0.162120 0.538007 0.417496 0.140484
H23   H     H_    0.631931 0.069669 0.434363 0.119052
H24   H     H_    0.985408 0.598039 0.120601 0.145866
H25   H     H_    0.671830 0.166120 0.452225 0.120144
H26   H     H_    0.606755 0.259620 0.453261 0.125985
H27   H     H_    0.501829 0.257571 0.435809 0.131743
H28   H     H_    0.461750 0.162174 0.417368 0.140544
H29   H     H_    0.930532 0.632277 0.434228 0.119308
H30   H     H_    0.834149 0.672400 0.452070 0.120195
H31   H     H_    0.740625 0.607376 0.453249 0.125974
H32   H     H_    0.742575 0.502282 0.435949 0.131686
H33   H     H_    0.837894 0.461988 0.417516 0.140464
H34   H     H_    0.901969 0.485338 0.620601 0.145846
H35   H     H_    0.514636 0.901960 0.620602 0.145836
H36   H     H_    0.098024 0.514653 0.620602 0.145845
H37   H     H_    0.485368 0.098034 0.620602 0.145836
H38   H     H_    0.401593 0.984784 0.076717 0.164143
H39   H     H_    0.014216 0.401440 0.076722 0.164227
H40   H     H_    0.598404 0.015215 0.076717 0.164144
H41   H     H_    0.583216 0.806219 0.979091 0.161260
H42   H     H_    0.985786 0.598558 0.076722 0.164227
H43   H     H_    0.901454 0.485721 0.576722 0.164219
H44   H     H_    0.514255 0.901443 0.576722 0.164215
H45   H     H_    0.098543 0.514275 0.576722 0.164219
H46   H     H_    0.485745 0.098554 0.576722 0.164215
H47   H     H_    0.792877 0.545835 0.001208 0.158622
H48   H     H_    0.454166 0.792877 0.001206 0.158602
H49   H     H_    0.207123 0.454165 0.001208 0.158623
H50   H     H_    0.545834 0.207123 0.001206 0.158602
H51   H     H_    0.292874 0.045818 0.501233 0.158607
H52   H     H_    0.193781 0.583214 0.979090 0.161256
H53   H     H_    0.954166 0.292877 0.501206 0.158624
H54   H     H_    0.707126 0.954182 0.501234 0.158607
H55   H     H_    0.045833 0.707123 0.501207 0.158622
H56   H     H_    0.693294 0.440550 0.969006 0.166375
H57   H     H_    0.559454 0.693292 0.969006 0.166372
H58   H     H_    0.306708 0.559452 0.969006 0.166375
H59   H     H_    0.440545 0.306710 0.969007 0.166373
H60   H     H_    0.193296 0.940629 0.468982 0.166434
H61   H     H_    0.059452 0.193293 0.469006 0.166382
H62   H     H_    0.806706 0.059373 0.468982 0.166434
H63   H     H_    0.416784 0.193782 0.979092 0.161263
H64   H     H_    0.940550 0.806710 0.469006 0.166383
H65   H     H_    0.707082 0.507093 0.017415 0.161246
H66   H     H_    0.492906 0.707082 0.017414 0.161225
H67   H     H_    0.292917 0.492907 0.017415 0.161246
H68   H     H_    0.507092 0.292916 0.017415 0.161225
H69   H     H_    0.207081 0.007032 0.517420 0.161263
H70   H     H_    0.992907 0.207082 0.517414 0.161245
H71   H     H_    0.792918 0.992970 0.517421 0.161263
H72   H     H_    0.007089 0.792917 0.517416 0.161245
H73   H     H_    0.107802 0.385900 0.767495 0.143618
H74   H     H_    0.306227 0.916851 0.479046 0.161036
H75   H     H_    0.614163 0.107738 0.767493 0.143614
H76   H     H_    0.892201 0.614106 0.767494 0.143617
H77   H     H_    0.385845 0.892257 0.767496 0.143614
H78   H     H_    0.609109 0.887138 0.267504 0.143591
H79   H     H_    0.114147 0.607760 0.267493 0.143613
H80   H     H_    0.390895 0.112870 0.267505 0.143591
H81   H     H_    0.885860 0.392240 0.267496 0.143613
H82   H     H_    0.107061 0.387615 0.809923 0.188926
H83   H     H_    0.612445 0.107000 0.809921 0.188924
H84   H     H_    0.892945 0.612395 0.809922 0.188924
H85   H     H_    0.083214 0.306219 0.479090 0.161247
H86   H     H_    0.387562 0.892998 0.809924 0.188924
H87   H     H_    0.608308 0.888816 0.309929 0.188919
H88   H     H_    0.112430 0.607019 0.309921 0.188924
H89   H     H_    0.391699 0.111194 0.309930 0.188920
H90   H     H_    0.887576 0.392983 0.309924 0.188925
H91   H     H_    0.410415 0.128908 0.231779 0.143837
H92   H     H_    0.869939 0.412113 0.231784 0.143851
H93   H     H_    0.589581 0.871093 0.231779 0.143839
H94   H     H_    0.130069 0.587885 0.231782 0.143851
H95   H     H_    0.912071 0.630034 0.731783 0.143856
H96   H     H_    0.693774 0.083150 0.479045 0.161043
H97   H     H_    0.369928 0.912129 0.731784 0.143851
H98   H     H_    0.087925 0.369965 0.731784 0.143856
H99   H     H_    0.630079 0.087865 0.731782 0.143850
H100  H     H_    0.411930 0.127812 0.189355 0.190122
H101  H     H_    0.871043 0.413621 0.189357 0.190113
H102  H     H_    0.588063 0.872187 0.189356 0.190122
H103  H     H_    0.128967 0.586374 0.189354 0.190113
H104  H     H_    0.913581 0.628931 0.689355 0.190120
H105  H     H_    0.371031 0.913636 0.689357 0.190118
H106  H     H_    0.086411 0.371062 0.689356 0.190120
H107  H     H_    0.916787 0.693782 0.479090 0.161258
H108  H     H_    0.628976 0.086356 0.689354 0.190117
H109  H     H_    0.963990 0.408399 0.878259 0.151090
H110  H     H_    0.591605 0.963982 0.878259 0.151106
H111  H     H_    0.036015 0.591608 0.878259 0.151092
H112  H     H_    0.408401 0.036021 0.878259 0.151105
H113  H     H_    0.464330 0.908272 0.378251 0.150719
H114  H     H_    0.091609 0.463995 0.378259 0.151102
H115  H     H_    0.535676 0.091735 0.378251 0.150721
H116  H     H_    0.908396 0.536012 0.378259 0.151101
H117  H     H_    0.867726 0.430534 0.934231 0.119302
H118  H     H_    0.402112 0.984389 0.120597 0.145999
H119  H     H_    0.827604 0.334149 0.952073 0.120187
H120  H     H_    0.892628 0.240623 0.953248 0.125979
H121  H     H_    0.997719 0.242572 0.935945 0.131693
H122  H     H_    0.038011 0.337892 0.917512 0.140463
H123  H     H_    0.569467 0.867722 0.934231 0.119302
H124  H     H_    0.665851 0.827598 0.952072 0.120192
H125  H     H_    0.759377 0.892620 0.953248 0.125985
H126  H     H_    0.757428 0.997713 0.935945 0.131693
H127  H     H_    0.662110 0.038006 0.917512 0.140464
H128  H     H_    0.132276 0.569470 0.934229 0.119304
N1    N     N_R   0.000003 0.500005 0.850111 -0.346407
N2    N     N_R   0.500003 0.000000 0.850111 -0.346402
N3    N     N_R   0.500004 0.000005 0.350113 -0.346499
N4    N     N_R   0.000002 0.500002 0.350111 -0.346405
N5    N     N_R   0.499997 0.999999 0.149162 -0.354622
N6    N     N_R   0.000005 0.499997 0.149162 -0.354662
N7    N     N_R   0.999995 0.499995 0.649162 -0.354663
N8    N     N_R   0.500003 0.999996 0.649162 -0.354668
O1    O     O_R   0.499960 0.590510 0.020150 -0.619445
O2    O     O_R   0.409490 0.499990 0.979930 -0.617891
O3    O     O_R   0.500010 0.409490 0.979930 -0.617891
O4    O     O_R   0.590510 0.500010 0.979930 -0.617891
O5    O     O_R   0.999990 0.090510 0.479930 -0.617885
O6    O     O_R   0.909490 0.999990 0.479930 -0.617896
O7    O     O_R   0.000010 0.909490 0.479930 -0.617885
O8    O     O_R   0.090510 0.000010 0.479930 -0.617896
O9    O     O_R   0.999980 0.448970 0.964420 -0.610696
O10   O     O_R   0.551030 0.999980 0.964420 -0.610698
O11   O     O_R   0.000020 0.551030 0.964420 -0.610697
O12   O     O_R   0.409490 0.499960 0.020150 -0.619440
O13   O     O_R   0.448970 0.000020 0.964420 -0.610697
O14   O     O_R   0.499980 0.948970 0.464420 -0.610644
O15   O     O_R   0.051030 0.499980 0.464420 -0.610695
O16   O     O_R   0.500020 0.051030 0.464420 -0.610646
O17   O     O_R   0.948970 0.500020 0.464420 -0.610695
O18   O     O_R   0.909490 0.448990 0.000040 -0.611350
O19   O     O_R   0.551010 0.909490 0.000040 -0.611310
O20   O     O_R   0.090510 0.551010 0.000040 -0.611350
O21   O     O_R   0.448990 0.090510 0.000040 -0.611309
O22   O     O_R   0.409490 0.948990 0.500040 -0.611408
O23   O     O_R   0.500040 0.409490 0.020150 -0.619445
O24   O     O_R   0.051010 0.409490 0.500040 -0.611350
O25   O     O_R   0.590510 0.051010 0.500040 -0.611405
O26   O     O_R   0.948990 0.590510 0.500040 -0.611345
O27   O     O_R   0.909510 0.551130 0.000040 -0.625238
O28   O     O_R   0.448870 0.909510 0.000040 -0.625287
O29   O     O_R   0.090490 0.448870 0.000040 -0.625238
O30   O     O_R   0.551130 0.090490 0.000040 -0.625286
O31   O     O_R   0.409510 0.051130 0.500040 -0.625181
O32   O     O_R   0.948870 0.409510 0.500040 -0.625241
O33   O     O_R   0.590490 0.948870 0.500040 -0.625181
O34   O     O_R   0.590510 0.500040 0.020150 -0.619440
O35   O     O_R   0.051130 0.590490 0.500040 -0.625238
O36   O     O_R   0.999930 0.448970 0.035660 -0.624375
O37   O     O_R   0.551030 0.999930 0.035660 -0.624319
O38   O     O_R   0.000070 0.551030 0.035660 -0.624375
O39   O     O_R   0.448970 0.000070 0.035660 -0.624319
O40   O     O_R   0.499930 0.948970 0.535660 -0.624368
O41   O     O_R   0.051030 0.499930 0.535660 -0.624372
O42   O     O_R   0.500070 0.051030 0.535660 -0.624368
O43   O     O_R   0.948970 0.500070 0.535660 -0.624373
O44   O     O_2   0.075506 0.422333 0.850491 -0.570399
O45   O     O_R   0.999960 0.090510 0.520150 -0.619436
O46   O     O_2   0.577700 0.075474 0.850490 -0.570409
O47   O     O_2   0.924501 0.577676 0.850491 -0.570400
O48   O     O_2   0.422307 0.924526 0.850492 -0.570408
O49   O     O_2   0.576298 0.923118 0.350500 -0.570233
O50   O     O_2   0.077690 0.575486 0.350491 -0.570405
O51   O     O_2   0.423711 0.076893 0.350500 -0.570231
O52   O     O_2   0.922314 0.424518 0.350492 -0.570400
O53   O     O_2   0.560516 0.910159 0.148791 -0.562487
O54   O     O_2   0.090619 0.559349 0.148787 -0.562431
O55   O     O_2   0.439477 0.089839 0.148790 -0.562488
O56   O     O_R   0.909490 0.999960 0.520150 -0.619440
O57   O     O_2   0.909391 0.440646 0.148789 -0.562431
O58   O     O_2   0.059374 0.409401 0.648789 -0.562418
O59   O     O_2   0.590620 0.059341 0.648787 -0.562413
O60   O     O_2   0.940617 0.590589 0.648788 -0.562419
O61   O     O_2   0.409386 0.940651 0.648789 -0.562414
O62   O     O_R   0.000040 0.909490 0.520150 -0.619436
O63   O     O_R   0.090510 0.000040 0.520150 -0.619440
O64   O     O_R   0.499990 0.590510 0.979930 -0.617891
Zn1   Zn    Zn3+2 0.500000 0.500000 0.026890 0.976863
Zn2   Zn    Zn3+2 0.068160 0.499950 0.500040 0.969884
Zn3   Zn    Zn3+2 0.500050 0.068160 0.500040 0.969913
Zn4   Zn    Zn3+2 0.931840 0.500050 0.500040 0.969881
Zn5   Zn    Zn3+2 0.000000 0.000000 0.526890 0.976914
Zn6   Zn    Zn3+2 0.500000 0.500000 0.973180 0.958580
Zn7   Zn    Zn3+2 0.000000 0.000000 0.473180 0.958628
Zn8   Zn    Zn3+2 0.999950 0.431840 0.000040 0.969882
Zn9   Zn    Zn3+2 0.568160 0.999950 0.000040 0.969906
Zn10  Zn    Zn3+2 0.000050 0.568160 0.000040 0.969881
Zn11  Zn    Zn3+2 0.431840 0.000050 0.000040 0.969905
Zn12  Zn    Zn3+2 0.499950 0.931840 0.500040 0.969914

loop_
_geom_bond_atom_site_label_1
_geom_bond_atom_site_label_2
_ccdc_geom_bond_type
C82   H59   S    
C56   C78   S    
C13   C79   A    
C122  H123  S    
C221  C234  A    
C64   C77   D    
C199  N4    A    
C219  C232  A    
C147  H17   S    
C53   C69   A    
C80   H57   S    
C76   H54   S    
C77   H55   S    
C208  C223  A    
C78   H56   S    
C204  C215  A    
C107  O25   A    
C135  C173  A    
C211  C246  A    
C167  H78   S    
C63   C76   D    
C8    C244  A    
C193  O44   S    
C143  C144  A    
C29   C33   A    
C2    C90   A    
O37   Zn9   S    
O8    Zn7   S    
C30   C96   S    
C19   C37   A    
C55   H46   S    
C44   C53   A    
C7    O57   S    
C47   C228  A    
C104  O30   A    
C109  O36   A    
C168  H79   S    
C48   C65   A    
C232  H103  S    
C125  H125  S    
O26   Zn4   S    
C12   H109  S    
C63   C85   S    
C217  H92   S    
C232  C241  A    
C28   C32   A    
O3    Zn6   S    
C108  O26   A    
C205  O6    A    
C179  C188  A    
C112  O2    A    
C44   H35   S    
C209  C213  A    
C177  C186  A    
C183  O34   A    
C51   C66   A    
C133  H6    S    
C213  C248  A    
C63   H96   S    
C181  C190  A    
C223  H99   S    
O9    Zn8   S    
C56   H1    S    
C145  H16   S    
C105  O22   A    
C154  C155  A    
C46   C203  A    
C71   C102  S    
C76   C107  S    
C158  C159  A    
C186  C199  A    
C2    C208  A    
C148  C153  A    
C229  C237  A    
C16   C25   A    
C200  O51   S    
C241  C247  A    
C61   H74   S    
C196  O47   S    
C107  O33   A    
C100  O18   A    
C144  C145  A    
C101  C191  A    
C129  H128  S    
C24   C90   A    
O1    Zn1   S    
C139  C140  A    
C85   H62   S    
C72   C103  S    
C61   C74   D    
C233  H104  S    
C187  C200  A    
C156  C158  A    
C130  C131  A    
C18   C38   A    
C80   C88   D    
C172  O3    A    
C146  C174  A    
C57   C204  A    
C226  N7    S    
C32   C98   S    
C103  O20   A    
C84   C93   D    
C42   H24   S    
C108  O35   A    
C65   C110  S    
C86   C95   D    
C141  C147  A    
C59   H52   S    
C206  C212  A    
C151  H20   S    
C205  O56   A    
C216  O7    A    
C79   C189  A    
C155  C156  A    
C170  H81   S    
C20   H116  S    
C201  O52   S    
O36   Zn8   S    
C23   C128  S    
C78   C87   D    
C25   C31   A    
C36   N2    S    
C26   C32   A    
C197  O48   S    
C17   H113  S    
C11   C243  A    
C60   C73   D    
C8    N7    A    
C93   C194  S    
C177  H88   S    
C202  C211  A    
C128  C129  A    
C174  C182  A    
C53   H44   S    
O16   Zn3   S    
C130  H3    S    
C27   C33   A    
C97   O13   A    
C197  N2    A    
C221  H97   S    
C123  H124  S    
C34   N1    S    
C180  C189  A    
O7    Zn7   S    
O42   Zn3   S    
O10   Zn9   S    
C43   C52   A    
C172  O23   A    
C10   N7    A    
C139  H10   S    
C124  C238  A    
C199  O50   S    
C14   C36   A    
C207  C238  A    
C58   H41   S    
C178  H89   S    
C9    O59   S    
O64   Zn6   S    
C75   H53   S    
C6    O55   S    
O32   Zn4   S    
C11   N8    A    
C87   H65   S    
C95   C216  S    
C119  H121  S    
C230  C239  A    
C105  O31   A    
C68   C170  A    
C106  O32   A    
C39   C224  A    
C84   H61   S    
C162  H29   S    
C196  N1    A    
C206  C217  A    
C49   C66   A    
C146  H76   S    
C13   C209  A    
C220  C233  A    
C24   C157  A    
C142  H12   S    
C242  C248  A    
C230  H101  S    
C231  C240  A    
C33   C99   S    
C217  C230  A    
C40   H2    S    
C152  H21   S    
C234  H105  S    
C143  H14   S    
C70   H47   S    
C227  O63   A    
C19   C28   A    
C89   H67   S    
C55   C69   A    
C52   C67   A    
C1    O1    A    
C231  H102  S    
C68   C206  A    
C184  C190  A    
C52   H43   S    
C194  O5    A    
C222  H98   S    
C183  O4    A    
C90   C190  A    
C113  C192  A    
C62   C84   S    
C46   C113  A    
C94   H71   S    
C215  H91   S    
C16   H112  S    
C39   H118  S    
O13   Zn11  S    
C7    C239  A    
C136  C137  A    
C227  O8    A    
C91   H68   S    
C57   C101  A    
C68   C113  A    
C157  H77   S    
C2    C135  A    
O24   Zn2   S    
C170  C179  A    
C188  C192  A    
C14   C22   A    
C117  C118  A    
C16   C36   A    
C74   C105  S    
C144  H15   S    
C83   H60   S    
C200  N3    A    
O18   Zn8   S    
C203  C212  A    
C50   C65   A    
C41   C224  A    
C223  C236  A    
C233  C242  A    
C152  C153  A    
C96   O9    A    
C150  C151  A    
C103  O29   A    
C165  H32   S    
C79   C238  A    
O2    Zn6   S    
C180  C193  A    
C104  O21   A    
C194  O45   A    
C136  H7    S    
C153  H22   S    
C21   C115  S    
C161  C162  A    
C176  C185  A    
O31   Zn3   S    
C89   C112  S    
C46   C168  A    
C149  H18   S    
C100  O27   A    
C164  C165  A    
C67   C114  S    
C121  C127  A    
C58   C71   D    
C123  C125  A    
C135  H75   S    
C168  C177  A    
C97   O10   A    
C220  H95   S    
C239  C247  A    
O38   Zn10  S    
O17   Zn4   S    
C175  H86   S    
C48   H38   S    
C27   C148  S    
C151  C152  A    
C164  H31   S    
C160  H28   S    
C126  H126  S    
C26   C141  S    
C9    C245  A    
O21   Zn11  S    
C15   C34   A    
C43   C226  A    
C58   C80   S    
C59   C72   D    
C111  O42   A    
C81   C89   D    
C1    C88   S    
C174  H84   S    
C173  C181  A    
C45   H36   S    
C37   N3    S    
C93   H70   S    
C72   H49   S    
C240  C246  A    
C95   H72   S    
C176  H87   S    
C64   C86   S    
C145  C147  A    
C185  C191  A    
C77   C108  S    
O6    Zn7   S    
C6    C237  A    
C222  C235  A    
C109  O38   A    
C1    O64   A    
O63   Zn5   S    
C61   C83   S    
C24   C210  A    
O15   Zn2   S    
C198  N3    A    
C218  H93   S    
O40   Zn12  S    
O14   Zn12  S    
C193  N1    A    
C62   H85   S    
C159  C160  A    
C96   O11   A    
C88   H66   S    
C4    C240  A    
C25   C134  S    
C44   C228  A    
C156  H25   S    
C132  H5    S    
C178  C187  A    
C99   O15   A    
C219  H94   S    
C125  C126  A    
C14   H110  S    
C17   C37   A    
C12   C34   A    
C131  C132  A    
C41   C50   A    
C22   C121  S    
C162  C163  A    
C208  C214  A    
C50   H40   S    
C73   H50   S    
C236  C245  A    
C59   C81   S    
C35   C101  A    
C5    N6    A    
C10   O60   S    
C119  C120  A    
C35   C202  A    
C111  O40   A    
O27   Zn10  S    
C21   C30   A    
C201  N4    A    
C41   H13   S    
C129  C130  A    
C149  C150  A    
C87   C183  S    
C202  C218  A    
C40   C49   A    
C124  C171  A    
C126  C127  A    
O34   Zn1   S    
C237  C246  A    
C71   H48   S    
C31   C97   S    
C66   C109  S    
C181  C195  A    
C38   N4    S    
C235  C244  A    
C137  H8    S    
C106  O24   A    
C138  C139  A    
C82   C91   D    
C195  O46   S    
C124  H73   S    
C244  C248  A    
C92   H69   S    
C75   C106  S    
C184  C197  A    
C142  C143  A    
C3    C245  A    
C8    O58   S    
C141  C142  A    
C115  C116  A    
O62   Zn5   S    
C39   C48   A    
C175  C184  A    
C18   H114  S    
C165  C166  A    
C140  H11   S    
C102  O19   A    
C114  O41   A    
C110  O39   A    
C188  C201  A    
O33   Zn12  S    
C163  C164  A    
C10   C242  A    
O22   Zn12  S    
C173  H83   S    
C60   H63   S    
O20   Zn10  S    
C3    C214  A    
C86   H64   S    
C83   C92   D    
C91   C172  S    
C17   C26   A    
C224  N5    S    
C134  C140  A    
C102  O28   A    
C5    O54   S    
C207  C213  A    
C116  C117  A    
C117  H119  S    
C40   C225  A    
C118  C119  A    
C98   O16   A    
C60   C82   S    
C116  H117  S    
C73   C104  S    
C6    N5    A    
C132  C133  A    
C35   C167  A    
C182  C189  A    
O39   Zn11  S    
C185  C198  A    
O12   Zn1   S    
C187  C191  A    
C161  C166  A    
C42   C51   A    
C15   C23   A    
C138  H9    S    
O5    Zn7   S    
C210  C221  A    
C120  H122  S    
C28   C154  S    
C74   H51   S    
C94   C205  S    
C13   C146  A    
C212  C247  A    
O4    Zn6   S    
C70   C100  S    
C81   H58   S    
C158  H26   S    
C57   C169  A    
C20   C29   A    
C7    N6    A    
C127  H127  S    
C22   C31   A    
O45   Zn5   S    
C9    N8    A    
C23   C30   A    
C29   C161  S    
O19   Zn9   S    
C148  C149  A    
C92   C227  S    
C51   H42   S    
C47   H37   S    
C179  H90   S    
C134  C136  A    
C54   C67   A    
O35   Zn2   S    
C15   H111  S    
C210  C214  A    
C12   C21   A    
C216  O62   A    
C19   H115  S    
C198  O49   S    
C154  C160  A    
C155  H23   S    
C43   H34   S    
C20   C38   A    
C85   C94   D    
C112  O12   A    
O25   Zn3   S    
C171  H82   S    
C121  C122  A    
C3    C243  A    
C157  C175  A    
C4    N5    A    
C204  C211  A    
C45   C54   A    
C115  C120  A    
C56   C70   D    
C110  O37   A    
C171  C180  A    
C182  C196  A    
C235  H106  S    
C169  C178  A    
C131  H4    S    
C47   C55   A    
C42   C225  A    
C49   H39   S    
C215  C229  A    
C209  C220  A    
C64   H107  S    
C18   C27   A    
O43   Zn4   S    
O11   Zn10  S    
O41   Zn2   S    
C163  H30   S    
C4    O53   S    
C137  C138  A    
C234  C243  A    
C166  H33   S    
C203  C219  A    
O29   Zn8   S    
C159  H27   S    
O23   Zn1   S    
C99   O17   A    
C45   C226  A    
C228  N8    S    
C128  C133  A    
C98   O14   A    
C69   C111  S    
C229  H100  S    
C169  H80   S    
C186  C192  A    
C114  O43   A    
C62   C75   D    
C218  C231  A    
C54   H45   S    
C195  N2    A    
C207  C222  A    
O56   Zn5   S    
C118  H120  S    
O30   Zn9   S    
C167  C176  A    
C236  H108  S    
C5    C241  A    
C122  C123  A    
O28   Zn11  S    
C150  H19   S    
C225  N6    S    
C11   O61   S    
