data_mof_unit_36947.cif
_audit_creation_date              2012-12-10T18:19:55-0500
_audit_creation_method            fapswitch 2.2
_symmetry_space_group_name_H-M    P1
_symmetry_Int_Tables_number       1
_space_group_crystal_system       triclinic
_cell_length_a                    10.937215
_cell_length_b                    10.890091
_cell_length_c                    9.557348
_cell_angle_alpha                 87.92007
_cell_angle_beta                  87.0044
_cell_angle_gamma                 94.421321
_cell_volume                      1132.48132428

loop_
_atom_site_label
_atom_site_type_symbol
_atom_type_description
_atom_site_fract_x
_atom_site_fract_y
_atom_site_fract_z
_atom_type_partial_charge
C1    C     C_R   0.504449 0.259951 0.502234 0.807460
C2    C     C_R   0.495555 0.740089 0.498201 0.801241
C3    C     C_3   0.430697 0.948797 0.612662 -0.270505
C4    C     C_3   0.567992 0.051908 0.390121 -0.198723
C5    C     C_3   0.563594 0.594645 0.041055 0.096850
C6    C     C_3   0.436933 0.404753 0.959964 0.106170
C7    C     C_3   0.453580 0.595804 0.949349 0.711066
C8    C     C_3   0.547201 0.405407 0.051203 0.669255
C9    C     C_3   0.610506 0.498637 0.942300 -0.228961
C10   C     C_3   0.389045 0.500574 0.058447 -0.254466
C11   C     C_R   0.258931 0.497365 0.503039 0.749554
C12   C     C_R   0.740773 0.505056 0.496138 0.766866
C13   C     C_3   0.022365 0.467122 0.626930 0.185535
C14   C     C_3   0.975649 0.539180 0.366287 0.188020
C15   C     C_3   0.943146 0.392327 0.526214 0.164788
C16   C     C_3   0.056817 0.614397 0.465883 0.184375
C17   C     C_3   0.878540 0.507983 0.488467 -0.153128
C18   C     C_3   0.120675 0.497751 0.506239 -0.155772
C19   C     C_3   0.958725 0.584624 0.588325 -0.220300
C20   C     C_3   0.040631 0.422741 0.404612 -0.226462
C21   C     C_3   0.550121 0.034098 0.619958 0.132471
C22   C     C_3   0.448995 0.965512 0.382119 0.169877
C23   C     C_3   0.611927 0.962749 0.503354 0.183548
C24   C     C_3   0.386808 0.037550 0.498772 0.143860
C25   C     C_3   0.493819 0.877720 0.495122 -0.102287
C26   C     C_3   0.504786 0.122271 0.507348 -0.120675
Cu1   Cu    Cu3+1 0.500030 0.499990 0.643150 0.973674
Cu2   Cu    Cu3+1 0.499970 0.500010 0.356850 0.961758
H1    H     H_    0.925123 0.652793 0.661872 0.145968
H2    H     H_    0.071066 0.356727 0.326947 0.158179
H3    H     H_    0.372881 0.906291 0.703298 0.196427
H4    H     H_    0.628058 0.096556 0.302490 0.197549
H5    H     H_    0.701620 0.498679 0.889267 0.171525
H6    H     H_    0.296731 0.500183 0.110514 0.164693
N1    N     N_3   0.500090 0.499970 0.858290 -0.232807
N2    N     N_3   0.499910 0.500030 0.141710 -0.244735
O1    O     O_R   0.500060 0.316850 0.620870 -0.608575
O2    O     O_R   0.499940 0.683150 0.379130 -0.616414
O3    O     O_R   0.500000 0.316860 0.379090 -0.517534
O4    O     O_R   0.500000 0.683140 0.620910 -0.520255
O5    O     O_R   0.316880 0.499960 0.620870 -0.567796
O6    O     O_R   0.683120 0.500040 0.379130 -0.579183
O7    O     O_R   0.316830 0.499970 0.379090 -0.589690
O8    O     O_R   0.683170 0.500030 0.620910 -0.590046
C27   C     C_3   0.877802 0.263704 0.551048 -0.368051
C28   C     C_3   0.968377 0.166037 0.574639 -0.884351
H7    H     H_    0.977455 0.110841 0.480134 0.249456
H8    H     H_    0.060672 0.207535 0.594616 0.262562
H9    H     H_    0.936402 0.104058 0.666009 0.242406
H10   H     H_    0.812500 0.264435 0.642649 0.197812
H11   H     H_    0.823507 0.240623 0.459096 0.196919
C29   C     C_3   0.132023 0.738340 0.439436 -0.393237
C30   C     C_3   0.053802 0.837267 0.386900 -0.907858
H12   H     H_    0.010365 0.809634 0.290399 0.274441
H13   H     H_    0.985292 0.856866 0.470957 0.273071
H14   H     H_    0.110145 0.922628 0.356174 0.245401
H15   H     H_    0.172528 0.766999 0.538525 0.200628
H16   H     H_    0.208811 0.728047 0.361573 0.202104
C31   C     C_3   0.040294 0.422994 0.776023 -0.435860
C32   C     C_3   0.925910 0.425838 0.871365 -0.836163
H17   H     H_    0.904225 0.522324 0.880870 0.246434
H18   H     H_    0.847661 0.370910 0.829938 0.263265
H19   H     H_    0.942031 0.385094 0.976124 0.254732
H20   H     H_    0.059519 0.325808 0.773351 0.230379
H21   H     H_    0.116602 0.481006 0.818411 0.236300
C33   C     C_3   0.945372 0.571527 0.216463 -0.411156
C34   C     C_3   0.060335 0.590406 0.118388 -0.832304
H22   H     H_    0.133105 0.650461 0.163433 0.269296
H23   H     H_    0.095097 0.499668 0.097410 0.242101
H24   H     H_    0.038634 0.635115 0.017687 0.250655
H25   H     H_    0.882682 0.496333 0.178653 0.228391
H26   H     H_    0.896089 0.655627 0.215660 0.203383
C35   C     C_3   0.738041 0.914082 0.493861 -0.420639
C36   C     C_3   0.769908 0.874952 0.345769 -0.890073
H27   H     H_    0.690124 0.873154 0.279577 0.265479
H28   H     H_    0.842417 0.940368 0.293393 0.255288
H29   H     H_    0.800938 0.780941 0.352191 0.246650
H30   H     H_    0.805771 0.987342 0.521708 0.220028
H31   H     H_    0.740290 0.834743 0.569981 0.201336
C37   C     C_3   0.261650 0.089041 0.507615 -0.440784
C38   C     C_3   0.239344 0.167325 0.376041 -0.814936
H32   H     H_    0.241773 0.265176 0.402594 0.248133
H33   H     H_    0.310107 0.160443 0.290357 0.272800
H34   H     H_    0.149018 0.139975 0.334723 0.227594
H35   H     H_    0.189810 0.012948 0.528720 0.215189
H36   H     H_    0.258053 0.147071 0.600577 0.195557
C39   C     C_3   0.598669 0.072386 0.760078 -0.382445
C40   C     C_3   0.678130 0.980269 0.823778 -0.853922
H37   H     H_    0.623428 0.890227 0.834551 0.298767
H38   H     H_    0.764218 0.973347 0.760049 0.240719
H39   H     H_    0.704063 0.010252 0.928600 0.254760
H40   H     H_    0.648255 0.164883 0.750486 0.209442
H41   H     H_    0.518761 0.073681 0.834345 0.211662
C41   C     C_3   0.392184 0.925489 0.245843 -0.423255
C42   C     C_3   0.456375 0.994784 0.118709 -0.837154
H42   H     H_    0.404632 0.975216 0.024136 0.264296
H43   H     H_    0.464014 0.094073 0.136928 0.280236
H44   H     H_    0.551385 0.969083 0.102830 0.252625
H45   H     H_    0.396856 0.825508 0.232437 0.230186
H46   H     H_    0.294311 0.943698 0.249081 0.223825
F1    F     F_    0.404258 0.698952 0.894253 -0.683718
F2    F     F_    0.599780 0.304453 0.107091 -0.696404
C43   C     C_3   0.644732 0.701564 0.089989 -0.349135
C44   C     C_3   0.756387 0.736208 0.989811 -0.946078
H47   H     H_    0.823983 0.667490 0.000792 0.253324
H48   H     H_    0.731837 0.736766 0.878833 0.270291
H49   H     H_    0.800616 0.827102 0.015580 0.262460
H50   H     H_    0.588109 0.779875 0.100475 0.219137
H51   H     H_    0.677419 0.675118 0.193319 0.241092
C45   C     C_3   0.380492 0.278144 0.928781 -0.362658
C46   C     C_3   0.254907 0.276853 0.875444 -0.914023
H52   H     H_    0.194777 0.322791 0.951037 0.256925
H53   H     H_    0.261461 0.321805 0.769905 0.287102
H54   H     H_    0.216772 0.180061 0.866618 0.238042
H55   H     H_    0.441437 0.238057 0.852615 0.230209
H56   H     H_    0.370509 0.222545 0.027515 0.208920

loop_
_geom_bond_atom_site_label_1
_geom_bond_atom_site_label_2
_ccdc_geom_bond_type
C7    C10   S    
C21   C26   S    
C5    C43   S    
C11   C18   S    
C22   C41   S    
C35   C36   S    
C46   H52   S    
C39   C40   S    
C21   C39   S    
C38   H32   S    
C42   H44   S    
C20   H2    S    
C30   H12   S    
C28   H9    S    
C31   H20   S    
C36   H28   S    
C13   C18   S    
C32   H19   S    
C41   H45   S    
C22   C24   S    
C24   C26   S    
C27   H11   S    
C5    N2    S    
C6    N1    S    
C32   H18   S    
C8    N2    S    
C2    O2    A    
C45   C46   S    
C37   H36   S    
Cu1   O8    S    
C24   C37   S    
C33   H26   S    
C42   H42   S    
C8    C9    S    
C22   C25   S    
C12   C17   S    
C12   O6    A    
C35   H30   S    
C11   O7    A    
C43   H50   S    
Cu2   O2    S    
C2    C25   S    
C1    O1    A    
C33   C34   S    
C31   C32   S    
C39   H40   S    
C9    H5    S    
C6    C45   S    
C14   C17   S    
C3    C24   S    
C23   C35   S    
C44   H48   S    
C44   H47   S    
C38   H33   S    
C30   H13   S    
C14   C33   S    
C15   C20   S    
C28   H8    S    
C36   H27   S    
C13   C19   S    
C34   H22   S    
C14   C20   S    
C3    C25   S    
C10   H6    S    
C5    C7    S    
C4    C23   S    
C6    C8    S    
Cu2   O3    S    
Cu1   N1    S    
C27   C28   S    
C36   H29   S    
C32   H17   S    
C34   H23   S    
C5    C9    S    
C37   H35   S    
C4    C22   S    
Cu1   O5    S    
C33   H25   S    
C40   H39   S    
C41   H46   S    
Cu1   O4    S    
C35   H31   S    
C46   H53   S    
C3    H3    S    
C4    H4    S    
C29   H16   S    
C40   H38   S    
C13   C15   S    
C1    C26   S    
C14   C16   S    
C3    C21   S    
C15   C27   S    
C19   H1    S    
C45   H56   S    
Cu1   Cu2   S    
C38   H34   S    
C29   C30   S    
C30   H14   S    
C15   C17   S    
C28   H7    S    
C7    N1    S    
C16   C29   S    
C37   C38   S    
C6    C10   S    
C4    C26   S    
C42   H43   S    
C13   C31   S    
Cu2   O7    S    
C43   H51   S    
C34   H24   S    
C21   C23   S    
C12   O8    A    
C31   H21   S    
C27   H10   S    
Cu1   O1    S    
C16   C19   S    
C39   H41   S    
Cu2   O6    S    
C17   C19   S    
C11   O5    A    
C46   H54   S    
C18   C20   S    
C23   C25   S    
C41   C42   S    
C29   H15   S    
C1    O3    A    
C2    O4    A    
C40   H37   S    
Cu2   N2    S    
C16   C18   S    
C7    F1    S    
C43   C44   S    
C9    N1    S    
C10   N2    S    
C8    F2    S    
C45   H55   S    
C44   H49   S    
