data_mof_unit_33406.cif
_audit_creation_date              2012-12-11T15:08:57-0500
_audit_creation_method            fapswitch 2.2
_symmetry_space_group_name_H-M    P1
_symmetry_Int_Tables_number       1
_space_group_crystal_system       tetragonal
_cell_length_a                    21.413607
_cell_length_b                    21.413607
_cell_length_c                    22.264116
_cell_angle_alpha                 90.0
_cell_angle_beta                  90.0
_cell_angle_gamma                 90.0
_cell_volume                      10209.0448525

loop_
_atom_site_label
_atom_site_type_symbol
_atom_type_description
_atom_site_fract_x
_atom_site_fract_y
_atom_site_fract_z
_atom_type_partial_charge
C1    C     C_R   0.914399 0.158816 0.078473 -0.147390
C2    C     C_R   0.085722 0.841203 0.921537 -0.132870
C3    C     C_R   0.135321 0.061483 0.112633 -0.124144
C4    C     C_R   0.864755 0.938465 0.887299 -0.117843
C5    C     C_R   0.085601 0.841184 0.078473 -0.147390
C6    C     C_R   0.914278 0.158797 0.921537 -0.132870
C7    C     C_R   0.864679 0.938517 0.112633 -0.124143
C8    C     C_R   0.135245 0.061535 0.887299 -0.117843
C9    C     C_R   0.938517 0.864679 0.887367 -0.124144
C10   C     C_R   0.061535 0.135245 0.112701 -0.117843
C11   C     C_R   0.158816 0.914399 0.921527 -0.147389
C12   C     C_R   0.841203 0.085722 0.078462 -0.132870
C13   C     C_R   0.061483 0.135321 0.887367 -0.124144
C14   C     C_R   0.938465 0.864755 0.112701 -0.117843
C15   C     C_R   0.841184 0.085601 0.921527 -0.147389
C16   C     C_R   0.158797 0.914278 0.078462 -0.132870
C17   C     C_R   0.438465 0.635245 0.612701 -0.117843
C18   C     C_R   0.561483 0.364679 0.387367 -0.124144
C19   C     C_R   0.658797 0.585722 0.578462 -0.132870
C20   C     C_R   0.341184 0.414399 0.421527 -0.147390
C21   C     C_R   0.561535 0.364755 0.612701 -0.117843
C22   C     C_R   0.438517 0.635321 0.387367 -0.124144
C23   C     C_R   0.341203 0.414278 0.578462 -0.132870
C24   C     C_R   0.658816 0.585601 0.421527 -0.147389
C25   C     C_R   0.414278 0.341203 0.421538 -0.132870
C26   C     C_R   0.585601 0.658816 0.578473 -0.147389
C27   C     C_R   0.635245 0.438465 0.387299 -0.117842
C28   C     C_R   0.364679 0.561483 0.612633 -0.124144
C29   C     C_R   0.585722 0.658797 0.421538 -0.132870
C30   C     C_R   0.414399 0.341184 0.578473 -0.147389
C31   C     C_R   0.364755 0.561535 0.387299 -0.117843
C32   C     C_R   0.635321 0.438517 0.612633 -0.124144
C33   C     C_R   0.793261 0.873572 0.715061 0.143270
C34   C     C_R   0.126428 0.206739 0.284939 0.143270
C35   C     C_R   0.780107 0.300159 0.861547 0.142821
C36   C     C_R   0.300159 0.780107 0.138453 0.142820
C37   C     C_R   0.206739 0.126428 0.715061 0.143270
C38   C     C_R   0.873572 0.793261 0.284939 0.143270
C39   C     C_R   0.219893 0.699841 0.861547 0.142821
C40   C     C_R   0.699841 0.219893 0.138453 0.142821
C41   C     C_R   0.280107 0.199841 0.361547 0.142821
C42   C     C_R   0.800159 0.719893 0.638453 0.142821
C43   C     C_R   0.293261 0.626428 0.215061 0.143270
C44   C     C_R   0.626428 0.293261 0.784939 0.143270
C45   C     C_R   0.719893 0.800159 0.361547 0.142821
C46   C     C_R   0.199841 0.280107 0.638453 0.142820
C47   C     C_R   0.706739 0.373572 0.215061 0.143270
C48   C     C_R   0.373571 0.706739 0.784939 0.143270
C49   C     C_R   0.264162 0.102277 0.307631 0.521308
C50   C     C_R   0.897723 0.735838 0.692369 0.521308
C51   C     C_R   0.199427 0.638641 0.154571 0.519365
C52   C     C_R   0.638641 0.199427 0.845429 0.519365
C53   C     C_R   0.735838 0.897723 0.307631 0.521307
C54   C     C_R   0.102277 0.264162 0.692369 0.521307
C55   C     C_R   0.800573 0.361359 0.154571 0.519365
C56   C     C_R   0.361359 0.800573 0.845429 0.519366
C57   C     C_R   0.699427 0.861359 0.654571 0.519365
C58   C     C_R   0.138641 0.300573 0.345429 0.519365
C59   C     C_R   0.764162 0.397723 0.807631 0.521307
C60   C     C_R   0.397723 0.764162 0.192369 0.521307
C61   C     C_R   0.300573 0.138641 0.654570 0.519365
C62   C     C_R   0.861359 0.699427 0.345429 0.519365
C63   C     C_R   0.235838 0.602277 0.807631 0.521307
C64   C     C_R   0.602277 0.235838 0.192369 0.521308
C65   C     C_R   0.873949 0.792531 0.714979 0.050776
C66   C     C_R   0.207469 0.126051 0.285021 0.050776
C67   C     C_R   0.699183 0.219362 0.861259 0.054573
C68   C     C_R   0.219362 0.699182 0.138741 0.054573
C69   C     C_R   0.126051 0.207469 0.714979 0.050776
C70   C     C_R   0.792531 0.873949 0.285021 0.050776
C71   C     C_R   0.300817 0.780638 0.861259 0.054573
C72   C     C_R   0.780638 0.300818 0.138741 0.054573
C73   C     C_R   0.199182 0.280638 0.361259 0.054573
C74   C     C_R   0.719362 0.800817 0.638741 0.054573
C75   C     C_R   0.373949 0.707468 0.214979 0.050777
C76   C     C_R   0.707469 0.373949 0.785021 0.050777
C77   C     C_R   0.800817 0.719362 0.361259 0.054574
C78   C     C_R   0.280638 0.199183 0.638741 0.054573
C79   C     C_R   0.626051 0.292531 0.214979 0.050776
C80   C     C_R   0.292531 0.626051 0.785021 0.050777
C81   C     C_R   0.816578 0.816285 0.693463 -0.045379
C82   C     C_R   0.183715 0.183422 0.306537 -0.045379
C83   C     C_R   0.720102 0.279561 0.844801 -0.045748
C84   C     C_R   0.279561 0.720102 0.155199 -0.045747
C85   C     C_R   0.183422 0.183715 0.693463 -0.045379
C86   C     C_R   0.816285 0.816578 0.306537 -0.045378
C87   C     C_R   0.279898 0.720439 0.844801 -0.045747
C88   C     C_R   0.720439 0.279898 0.155199 -0.045748
C89   C     C_R   0.220102 0.220439 0.344801 -0.045748
C90   C     C_R   0.779561 0.779898 0.655199 -0.045748
C91   C     C_R   0.316578 0.683715 0.193463 -0.045379
C92   C     C_R   0.683715 0.316578 0.806537 -0.045379
C93   C     C_R   0.779898 0.779561 0.344801 -0.045748
C94   C     C_R   0.220439 0.220102 0.655199 -0.045747
C95   C     C_R   0.683422 0.316285 0.193463 -0.045379
C96   C     C_R   0.316285 0.683422 0.806537 -0.045379
C97   C     C_R   0.736949 0.897493 0.692903 -0.385827
C98   C     C_R   0.102507 0.263051 0.307097 -0.385827
C99   C     C_R   0.800271 0.360227 0.846014 -0.377631
C100  C     C_R   0.360227 0.800270 0.153986 -0.377631
C101  C     C_R   0.263051 0.102507 0.692903 -0.385827
C102  C     C_R   0.897493 0.736949 0.307097 -0.385827
C103  C     C_R   0.199729 0.639773 0.846014 -0.377632
C104  C     C_R   0.639773 0.199729 0.153986 -0.377632
C105  C     C_R   0.300271 0.139773 0.346014 -0.377632
C106  C     C_R   0.860227 0.699729 0.653986 -0.377632
C107  C     C_R   0.236949 0.602506 0.192903 -0.385827
C108  C     C_R   0.602507 0.236949 0.807097 -0.385827
C109  C     C_R   0.699729 0.860227 0.346014 -0.377632
C110  C     C_R   0.139773 0.300271 0.653986 -0.377632
C111  C     C_R   0.763051 0.397493 0.192903 -0.385827
C112  C     C_R   0.397493 0.763051 0.807097 -0.385827
C113  C     C_R   0.851686 0.148440 0.089766 0.086928
C114  C     C_R   0.148440 0.851686 0.910234 0.086928
C115  C     C_R   0.107809 0.107690 0.147716 0.071208
C116  C     C_R   0.892310 0.892191 0.852284 0.071208
C117  C     C_R   0.148314 0.851560 0.089766 0.086928
C118  C     C_R   0.851560 0.148314 0.910234 0.086928
C119  C     C_R   0.892191 0.892310 0.147716 0.071208
C120  C     C_R   0.107690 0.107809 0.852284 0.071208
C121  C     C_R   0.392191 0.607690 0.647716 0.071208
C122  C     C_R   0.607690 0.392191 0.352284 0.071208
C123  C     C_R   0.648314 0.648440 0.589766 0.086928
C124  C     C_R   0.351560 0.351686 0.410234 0.086928
C125  C     C_R   0.607809 0.392310 0.647716 0.071208
C126  C     C_R   0.392310 0.607809 0.352284 0.071208
C127  C     C_R   0.351686 0.351560 0.589766 0.086928
C128  C     C_R   0.648440 0.648314 0.410234 0.086928
C129  C     C_R   0.903042 0.822688 0.763103 -0.185775
C130  C     C_R   0.177312 0.096958 0.236896 -0.185775
C131  C     C_R   0.741361 0.178225 0.888239 -0.194240
C132  C     C_R   0.178225 0.741361 0.111761 -0.194240
C133  C     C_R   0.096958 0.177311 0.763104 -0.185775
C134  C     C_R   0.822688 0.903042 0.236896 -0.185774
C135  C     C_R   0.258639 0.821775 0.888238 -0.194240
C136  C     C_R   0.821775 0.258639 0.111761 -0.194240
C137  C     C_R   0.241361 0.321775 0.388238 -0.194240
C138  C     C_R   0.678225 0.758639 0.611761 -0.194240
C139  C     C_R   0.403042 0.677311 0.263103 -0.185774
C140  C     C_R   0.677312 0.403042 0.736896 -0.185775
C141  C     C_R   0.758639 0.678225 0.388238 -0.194241
C142  C     C_R   0.321775 0.241361 0.611761 -0.194241
C143  C     C_R   0.596958 0.322688 0.263103 -0.185774
C144  C     C_R   0.322688 0.596958 0.736896 -0.185775
C145  C     C_R   0.874297 0.874050 0.790882 0.063562
C146  C     C_R   0.125950 0.125703 0.209118 0.063562
C147  C     C_R   0.803784 0.195948 0.897367 0.059653
C148  C     C_R   0.195948 0.803784 0.102633 0.059654
C149  C     C_R   0.125703 0.125949 0.790882 0.063562
C150  C     C_R   0.874050 0.874297 0.209118 0.063562
C151  C     C_R   0.196216 0.804051 0.897367 0.059654
C152  C     C_R   0.804052 0.196216 0.102633 0.059654
C153  C     C_R   0.303784 0.304052 0.397367 0.059653
C154  C     C_R   0.695948 0.696216 0.602633 0.059654
C155  C     C_R   0.374297 0.625950 0.290882 0.063562
C156  C     C_R   0.625950 0.374297 0.709118 0.063562
C157  C     C_R   0.696216 0.695948 0.397367 0.059653
C158  C     C_R   0.304051 0.303784 0.602633 0.059654
C159  C     C_R   0.625703 0.374050 0.290882 0.063562
C160  C     C_R   0.374050 0.625703 0.709118 0.063562
C161  C     C_R   0.823097 0.902817 0.762987 -0.193027
C162  C     C_R   0.097183 0.176903 0.237013 -0.193027
C163  C     C_R   0.821315 0.258404 0.888515 -0.185721
C164  C     C_R   0.258404 0.821315 0.111485 -0.185721
C165  C     C_R   0.176903 0.097183 0.762987 -0.193027
C166  C     C_R   0.902817 0.823097 0.237013 -0.193027
C167  C     C_R   0.178685 0.741596 0.888515 -0.185721
C168  C     C_R   0.741596 0.178685 0.111485 -0.185721
C169  C     C_R   0.321315 0.241596 0.388515 -0.185721
C170  C     C_R   0.758404 0.678685 0.611485 -0.185721
C171  C     C_R   0.323097 0.597183 0.262987 -0.193027
C172  C     C_R   0.597183 0.323097 0.737013 -0.193027
C173  C     C_R   0.678685 0.758404 0.388514 -0.185720
C174  C     C_R   0.241596 0.321315 0.611485 -0.185721
C175  C     C_R   0.676903 0.402817 0.262987 -0.193027
C176  C     C_R   0.402817 0.676903 0.737013 -0.193027
H1    H     H_    0.937139 0.203527 0.073579 0.094327
H2    H     H_    0.063095 0.796426 0.926394 0.091835
H3    H     H_    0.172390 0.030049 0.125174 0.102625
H4    H     H_    0.827712 0.969879 0.874629 0.099859
H5    H     H_    0.062861 0.796473 0.073579 0.094327
H6    H     H_    0.936905 0.203574 0.926394 0.091835
H7    H     H_    0.827610 0.969951 0.125174 0.102624
H8    H     H_    0.172288 0.030121 0.874629 0.099859
H9    H     H_    0.969950 0.827610 0.874826 0.102624
H10   H     H_    0.030121 0.172288 0.125371 0.099859
H11   H     H_    0.203527 0.937139 0.926421 0.094327
H12   H     H_    0.796426 0.063095 0.073606 0.091835
H13   H     H_    0.030049 0.172390 0.874826 0.102625
H14   H     H_    0.969879 0.827712 0.125371 0.099859
H15   H     H_    0.796473 0.062861 0.926421 0.094327
H16   H     H_    0.203574 0.936905 0.073606 0.091835
H17   H     H_    0.469879 0.672288 0.625371 0.099859
H18   H     H_    0.530049 0.327610 0.374826 0.102625
H19   H     H_    0.703574 0.563095 0.573606 0.091835
H20   H     H_    0.296473 0.437139 0.426421 0.094327
H21   H     H_    0.530121 0.327712 0.625371 0.099859
H22   H     H_    0.469950 0.672390 0.374826 0.102625
H23   H     H_    0.296426 0.436905 0.573606 0.091835
H24   H     H_    0.703527 0.562861 0.426421 0.094327
H25   H     H_    0.436905 0.296426 0.426394 0.091835
H26   H     H_    0.562861 0.703527 0.573579 0.094327
H27   H     H_    0.672288 0.469879 0.374629 0.099859
H28   H     H_    0.327610 0.530049 0.625174 0.102624
H29   H     H_    0.563095 0.703574 0.426394 0.091835
H30   H     H_    0.437139 0.296473 0.573579 0.094327
H31   H     H_    0.327712 0.530121 0.374629 0.099859
H32   H     H_    0.672390 0.469950 0.625174 0.102624
H33   H     H_    0.944788 0.802499 0.782189 0.170772
H34   H     H_    0.197501 0.055212 0.217811 0.170772
H35   H     H_    0.726640 0.130939 0.897325 0.169527
H36   H     H_    0.130938 0.726640 0.102675 0.169527
H37   H     H_    0.055212 0.197501 0.782189 0.170772
H38   H     H_    0.802499 0.944788 0.217811 0.170772
H39   H     H_    0.273359 0.869061 0.897325 0.169527
H40   H     H_    0.869061 0.273359 0.102675 0.169527
H41   H     H_    0.226640 0.369061 0.397325 0.169527
H42   H     H_    0.630938 0.773359 0.602675 0.169527
H43   H     H_    0.444788 0.697501 0.282189 0.170772
H44   H     H_    0.697501 0.444788 0.717811 0.170772
H45   H     H_    0.773359 0.630939 0.397325 0.169528
H46   H     H_    0.369061 0.226640 0.602675 0.169528
H47   H     H_    0.555212 0.302499 0.282189 0.170772
H48   H     H_    0.302499 0.555212 0.717811 0.170772
H49   H     H_    0.720246 0.942457 0.708496 0.145788
H50   H     H_    0.057543 0.279754 0.291504 0.145788
H51   H     H_    0.845791 0.376379 0.860615 0.146316
H52   H     H_    0.376379 0.845791 0.139385 0.146316
H53   H     H_    0.279754 0.057543 0.708496 0.145788
H54   H     H_    0.942457 0.720246 0.291504 0.145788
H55   H     H_    0.154209 0.623621 0.860615 0.146316
H56   H     H_    0.623621 0.154209 0.139385 0.146316
H57   H     H_    0.345791 0.123621 0.360615 0.146316
H58   H     H_    0.876379 0.654209 0.639385 0.146316
H59   H     H_    0.220246 0.557543 0.208496 0.145788
H60   H     H_    0.557543 0.220246 0.791504 0.145788
H61   H     H_    0.654209 0.876379 0.360615 0.146316
H62   H     H_    0.123621 0.345791 0.639385 0.146316
H63   H     H_    0.779754 0.442457 0.208496 0.145788
H64   H     H_    0.442457 0.779754 0.791504 0.145788
H65   H     H_    0.802506 0.944627 0.781686 0.119624
H66   H     H_    0.055373 0.197494 0.218314 0.119624
H67   H     H_    0.868461 0.273740 0.897652 0.119449
H68   H     H_    0.273740 0.868461 0.102347 0.119449
H69   H     H_    0.197494 0.055373 0.781686 0.119624
H70   H     H_    0.944627 0.802506 0.218314 0.119623
H71   H     H_    0.131539 0.726260 0.897652 0.119449
H72   H     H_    0.726260 0.131539 0.102347 0.119449
H73   H     H_    0.368461 0.226260 0.397653 0.119449
H74   H     H_    0.773740 0.631539 0.602347 0.119449
H75   H     H_    0.302506 0.555373 0.281686 0.119624
H76   H     H_    0.555373 0.302506 0.718314 0.119623
H77   H     H_    0.631539 0.773740 0.397652 0.119449
H78   H     H_    0.226260 0.368461 0.602348 0.119449
H79   H     H_    0.697494 0.444627 0.281686 0.119624
H80   H     H_    0.444627 0.697494 0.718314 0.119623
N1    N     N_R   0.940200 0.105310 0.059970 -0.038993
N2    N     N_R   0.059800 0.894690 0.940030 -0.040011
N3    N     N_R   0.105310 0.059800 0.059970 -0.043303
N4    N     N_R   0.894690 0.940200 0.940030 -0.043614
N5    N     N_R   0.059800 0.894690 0.059970 -0.038993
N6    N     N_R   0.940200 0.105310 0.940030 -0.040011
N7    N     N_R   0.894690 0.940200 0.059970 -0.043303
N8    N     N_R   0.105310 0.059800 0.940030 -0.043614
N9    N     N_R   0.940200 0.894690 0.940030 -0.043303
N10   N     N_R   0.059800 0.105310 0.059970 -0.043614
N11   N     N_R   0.105310 0.940200 0.940030 -0.038993
N12   N     N_R   0.894690 0.059800 0.059970 -0.040011
N13   N     N_R   0.059800 0.105310 0.940030 -0.043303
N14   N     N_R   0.940200 0.894690 0.059970 -0.043614
N15   N     N_R   0.894690 0.059800 0.940030 -0.038993
N16   N     N_R   0.105310 0.940200 0.059970 -0.040011
N17   N     N_R   0.440200 0.605310 0.559970 -0.043614
N18   N     N_R   0.559800 0.394690 0.440030 -0.043303
N19   N     N_R   0.605310 0.559800 0.559970 -0.040011
N20   N     N_R   0.394690 0.440200 0.440030 -0.038993
N21   N     N_R   0.559800 0.394690 0.559970 -0.043614
N22   N     N_R   0.440200 0.605310 0.440030 -0.043303
N23   N     N_R   0.394690 0.440200 0.559970 -0.040011
N24   N     N_R   0.605310 0.559800 0.440030 -0.038993
N25   N     N_R   0.440200 0.394690 0.440030 -0.040010
N26   N     N_R   0.559800 0.605310 0.559970 -0.038993
N27   N     N_R   0.605310 0.440200 0.440030 -0.043614
N28   N     N_R   0.394690 0.559800 0.559970 -0.043303
N29   N     N_R   0.559800 0.605310 0.440030 -0.040011
N30   N     N_R   0.440200 0.394690 0.559970 -0.038993
N31   N     N_R   0.394690 0.559800 0.440030 -0.043614
N32   N     N_R   0.605310 0.440200 0.559970 -0.043303
Ni1   Ni    Ni4+2 0.000000 0.104370 0.000000 0.217454
Ni2   Ni    Ni4+2 0.000000 0.895630 0.000000 0.217454
Ni3   Ni    Ni4+2 0.104370 0.000000 0.000000 0.217454
Ni4   Ni    Ni4+2 0.895630 0.000000 0.000000 0.217454
Ni5   Ni    Ni4+2 0.500000 0.604370 0.500000 0.217454
Ni6   Ni    Ni4+2 0.500000 0.395630 0.500000 0.217454
Ni7   Ni    Ni4+2 0.604370 0.500000 0.500000 0.217454
Ni8   Ni    Ni4+2 0.395630 0.500000 0.500000 0.217454
O1    O     O_3   0.285110 0.044391 0.288939 -0.765281
H81   H     H_    0.325536 0.035163 0.308779 0.322148
O2    O     O_3   0.955609 0.714890 0.711061 -0.765281
H82   H     H_    0.964837 0.674464 0.691221 0.322149
O3    O     O_3   0.141955 0.617268 0.135157 -0.768260
H83   H     H_    0.135265 0.574312 0.150514 0.321866
O4    O     O_3   0.617268 0.141955 0.864844 -0.768259
H84   H     H_    0.574312 0.135265 0.849486 0.321865
O5    O     O_3   0.714890 0.955609 0.288939 -0.765281
H85   H     H_    0.674464 0.964837 0.308778 0.322149
O6    O     O_3   0.044391 0.285110 0.711061 -0.765280
H86   H     H_    0.035163 0.325536 0.691222 0.322148
O7    O     O_3   0.858045 0.382732 0.135157 -0.768260
H87   H     H_    0.864735 0.425688 0.150514 0.321865
O8    O     O_3   0.382732 0.858045 0.864843 -0.768259
H88   H     H_    0.425688 0.864735 0.849486 0.321865
O9    O     O_3   0.641955 0.882732 0.635157 -0.768259
H89   H     H_    0.635265 0.925688 0.650514 0.321866
O10   O     O_3   0.117268 0.358045 0.364843 -0.768259
H90   H     H_    0.074312 0.364735 0.349486 0.321865
O11   O     O_3   0.785110 0.455609 0.788939 -0.765280
H91   H     H_    0.825536 0.464837 0.808778 0.322148
O12   O     O_3   0.455609 0.785110 0.211061 -0.765280
H92   H     H_    0.464837 0.825536 0.191221 0.322148
O13   O     O_3   0.358045 0.117268 0.635156 -0.768259
H93   H     H_    0.364735 0.074312 0.650514 0.321865
O14   O     O_3   0.882732 0.641955 0.364843 -0.768259
H94   H     H_    0.925688 0.635265 0.349486 0.321865
O15   O     O_3   0.214890 0.544391 0.788939 -0.765280
H95   H     H_    0.174464 0.535163 0.808778 0.322148
O16   O     O_3   0.544391 0.214890 0.211061 -0.765280
H96   H     H_    0.535163 0.174464 0.191221 0.322148

loop_
_geom_bond_atom_site_label_1
_geom_bond_atom_site_label_2
_ccdc_geom_bond_type
C39   C103  A    
N8    N13   A    
C62   C102  A    
C130  C146  A    
C62   C77   A    
C39   C87   A    
O3    H83   S    
C41   C105  A    
C116  C145  S    
C45   C109  A    
C171  H75   S    
N24   Ni7   S    
C154  C170  A    
C169  H73   S    
N19   N26   A    
N24   N29   A    
N5    N16   A    
C42   C170  A    
N6    N15   A    
C140  H44   S    
N7    N14   A    
C173  H77   S    
C46   C174  A    
C84   C91   A    
C144  C160  A    
C161  H65   S    
C44   C92   A    
C138  C154  A    
C76   C140  A    
C88   C95   A    
C4    N4    A    
C5    N5    A    
C1    C113  A    
C142  C158  A    
C136  C152  A    
C22   H22   S    
N21   N32   A    
N22   N31   A    
O14   H94   S    
N23   N30   A    
C7    C119  A    
C24   N24   A    
C41   C169  A    
C35   C163  A    
C28   H28   S    
C33   C161  A    
C44   C172  A    
C31   H31   S    
C56   O8    S    
C21   N21   A    
C66   C82   A    
C146  C162  A    
O4    H84   S    
C57   C97   A    
N5    Ni2   S    
C137  C153  A    
C49   O1    S    
C42   C106  A    
C140  C156  A    
C60   O12   S    
C81   C90   A    
C141  C157  A    
C46   C110  A    
C64   C79   A    
C26   C123  A    
C129  H33   S    
C64   O16   S    
C53   C109  A    
C28   N28   A    
C15   H15   S    
C30   C127  A    
C23   N23   A    
C48   C96   A    
C55   C111  A    
C9    C116  A    
C21   H21   S    
C60   C100  A    
C72   C136  A    
C17   N17   A    
N26   Ni5   S    
C15   C118  A    
C7    H7    S    
C74   C90   A    
C2    C114  A    
C40   C88   A    
C145  C161  A    
C78   C94   A    
C151  C167  A    
C33   C97   A    
N18   Ni6   S    
C77   C141  A    
C24   H24   S    
C51   C107  A    
C14   C119  A    
C137  H41   S    
C70   C134  A    
C131  C147  A    
C141  H45   S    
C123  C154  S    
C57   C74   A    
C41   C89   A    
N4    Ni4   S    
C67   C83   A    
C18   H18   S    
C58   C98   A    
C45   C93   A    
N1    Ni1   S    
C36   C164  A    
C115  C146  S    
C19   C123  A    
C120  C149  S    
C82   C89   A    
C73   C137  A    
C6    H6    S    
C117  C148  S    
C27   H27   S    
C118  C147  S    
C25   H25   S    
N20   Ni8   S    
C135  C151  A    
C40   C104  A    
C150  C166  A    
C29   H29   S    
C54   C110  A    
C100  H52   S    
C79   C143  A    
N27   Ni7   S    
C80   C144  A    
C7    N7    A    
C32   H32   S    
C75   C91   A    
C136  H40   S    
C124  C153  S    
C52   O4    S    
C158  C174  A    
C128  C157  S    
C63   C80   A    
C103  H55   S    
C49   C66   A    
C148  C164  A    
C149  C165  A    
C54   O6    S    
C20   H20   S    
C51   O3    S    
C43   C171  A    
C37   C165  A    
C156  C172  A    
C42   C90   A    
C53   O5    S    
C61   C101  A    
C12   N12   A    
N13   Ni1   S    
C86   C93   A    
C13   N13   A    
C46   C94   A    
C139  C155  A    
C6    N6    A    
N17   Ni5   S    
C52   C67   A    
N19   Ni7   S    
C62   O14   S    
C48   C112  A    
O13   H93   S    
C131  H35   S    
N12   Ni4   S    
N3    N10   A    
C13   C120  A    
C69   C85   A    
C50   C106  A    
C64   C104  A    
C29   N29   A    
C10   N10   A    
C168  H72   S    
N17   N28   A    
C129  C145  A    
C31   N31   A    
N18   N27   A    
C32   N32   A    
C22   N22   A    
N6    Ni1   S    
C165  H69   S    
C75   C139  A    
C37   C101  A    
C10   H10   S    
C50   C65   A    
C20   C124  A    
C8    N8    A    
C14   H14   S    
C139  H43   S    
C45   C173  A    
C24   C128  A    
C102  H54   S    
C2    H2    S    
C59   C76   A    
C47   C175  A    
C48   C176  A    
C18   N18   A    
C97   H49   S    
C108  H60   S    
C57   O9    S    
C74   C138  A    
C78   C142  A    
N16   Ni3   S    
N28   Ni8   S    
C170  H74   S    
N7    Ni4   S    
C68   C132  A    
C152  C168  A    
C174  H78   S    
N21   Ni6   S    
C142  H46   S    
C121  C160  S    
C122  C159  S    
C162  H66   S    
C106  H58   S    
C125  C156  S    
C3    N3    A    
C126  C155  S    
N2    Ni2   S    
C119  C150  S    
O10   H90   S    
C113  C152  S    
C114  C151  S    
C4    H4    S    
C53   C70   A    
C5    H5    S    
C16   N16   A    
C27   C122  A    
C1    N1    A    
O6    H86   S    
C68   C84   A    
C61   O13   S    
C63   C103  A    
C35   C83   A    
C49   C105  A    
C34   C162  A    
N8    Ni3   S    
C47   C111  A    
O2    H82   S    
C79   C95   A    
C50   O2    S    
C143  H47   S    
C65   C81   A    
C56   C71   A    
C110  H62   S    
C36   C100  A    
C43   C107  A    
C35   C99   A    
C127  C158  S    
C147  C163  A    
C71   C87   A    
C17   C121  A    
C38   C86   A    
N9    Ni2   S    
C40   C168  A    
C21   C125  A    
C164  H68   S    
N15   Ni4   S    
C23   C127  A    
C38   C166  A    
C111  H63   S    
C4    C116  A    
N14   Ni2   S    
C65   C129  A    
C14   N14   A    
C143  C159  A    
C60   C75   A    
C134  H38   S    
N11   Ni3   S    
C55   O7    S    
C73   C89   A    
O16   H96   S    
C3    C115  A    
C16   C117  A    
C27   N27   A    
O9    H89   S    
C54   C69   A    
C9    N9    A    
C167  H71   S    
C77   C93   A    
C34   C98   A    
O15   H95   S    
C59   O11   S    
C22   C126  A    
C166  H70   S    
O12   H92   S    
O5    H85   S    
C153  C169  A    
C30   N30   A    
C11   N11   A    
C101  H53   S    
N4    N9    A    
C157  C173  A    
C12   H12   S    
O8    H88   S    
C19   H19   S    
C59   C99   A    
O1    H81   S    
C17   H17   S    
C132  H36   S    
C20   N20   A    
O7    H87   S    
C83   C92   A    
N30   Ni6   S    
C11   H11   S    
C37   C85   A    
C26   H26   S    
C9    H9    S    
C71   C135  A    
C104  H56   S    
N20   N25   A    
N23   Ni8   S    
C134  C150  A    
C23   H23   S    
C13   H13   S    
N31   Ni8   S    
N32   Ni7   S    
C11   C114  A    
C3    H3    S    
C16   H16   S    
C1    H1    S    
C135  H39   S    
C175  H79   S    
C80   C96   A    
C55   C72   A    
C8    H8    S    
C159  C175  A    
C160  C176  A    
N1    N12   A    
C15   N15   A    
N2    N11   A    
C72   C88   A    
C44   C108  A    
C19   N19   A    
C25   N25   A    
C26   N26   A    
C132  C148  A    
C133  C149  A    
C28   C121  A    
C112  H64   S    
N22   Ni5   S    
C172  H76   S    
C43   C91   A    
C5    C117  A    
C32   C125  A    
N25   Ni6   S    
C176  H80   S    
C85   C94   A    
N3    Ni3   S    
C61   C78   A    
C87   C96   A    
C163  H67   S    
C138  H42   S    
C76   C92   A    
C2    N2    A    
C18   C122  A    
C130  H34   S    
C70   C86   A    
C8    C120  A    
C12   C113  A    
C107  H59   S    
C69   C133  A    
C105  H57   S    
C67   C131  A    
C63   O15   S    
C109  H61   S    
C34   C82   A    
C133  H37   S    
C38   C102  A    
C30   H30   S    
C36   C84   A    
C6    C118  A    
N10   Ni1   S    
C51   C68   A    
C39   C167  A    
O11   H91   S    
C25   C124  A    
C99   H51   S    
C144  H48   S    
C155  C171  A    
C52   C108  A    
C29   C128  A    
N29   Ni5   S    
C47   C95   A    
C31   C126  A    
C98   H50   S    
C58   O10   S    
C33   C81   A    
C56   C112  A    
C10   C115  A    
C58   C73   A    
C66   C130  A    
