data_mof_unit_34587.cif
_audit_creation_date              2012-12-10T17:40:29-0500
_audit_creation_method            fapswitch 2.2
_symmetry_space_group_name_H-M    P1
_symmetry_Int_Tables_number       1
_space_group_crystal_system       triclinic
_cell_length_a                    13.691678
_cell_length_b                    15.086266
_cell_length_c                    15.872835
_cell_angle_alpha                 89.892408
_cell_angle_beta                  69.702696
_cell_angle_gamma                 89.98995
_cell_volume                      3075.04225966

loop_
_atom_site_label
_atom_site_type_symbol
_atom_type_description
_atom_site_fract_x
_atom_site_fract_y
_atom_site_fract_z
_atom_type_partial_charge
C1    C     C_R   0.500043 0.671546 0.499865 0.816116
C2    C     C_R   0.499956 0.328453 0.500137 0.815520
C3    C     C_R   0.374915 0.528796 0.095854 -0.220428
C4    C     C_R   0.626139 0.522637 0.903478 -0.222548
C5    C     C_R   0.303004 0.530359 0.052248 -0.219214
C6    C     C_R   0.698072 0.523130 0.947065 -0.220181
C7    C     C_R   0.411107 0.185250 0.500145 -0.245532
C8    C     C_R   0.588892 0.814742 0.499857 -0.245346
C9    C     C_R   0.499906 0.231600 0.500259 -0.074828
C10   C     C_R   0.500091 0.768394 0.499746 -0.074404
C11   C     C_R   0.588682 0.185216 0.500421 -0.245216
C12   C     C_R   0.411313 0.814776 0.499591 -0.245089
C13   C     C_R   0.589341 0.092861 0.500310 0.107023
C14   C     C_R   0.410654 0.907131 0.499700 0.106995
C15   C     C_R   0.499966 0.046462 0.500089 0.063508
C16   C     C_R   0.500030 0.953529 0.499920 0.063520
C17   C     C_R   0.410529 0.092895 0.500034 0.107243
C18   C     C_R   0.589468 0.907096 0.499973 0.107232
C19   C     C_R   0.677834 0.046169 0.500368 -0.211489
C20   C     C_R   0.322162 0.953822 0.499643 -0.211633
C21   C     C_R   0.677902 0.953752 0.500189 -0.211721
C22   C     C_R   0.322095 0.046239 0.499819 -0.211602
C23   C     C_R   0.436528 0.500582 0.672686 0.821686
C24   C     C_R   0.563470 0.500687 0.327310 0.822726
C25   C     C_R   0.231584 0.549514 0.437845 0.002219
C26   C     C_R   0.768461 0.450396 0.562066 0.002065
C27   C     C_R   0.181653 0.450823 0.562402 0.017293
C28   C     C_R   0.818308 0.549302 0.437693 0.016306
C29   C     C_R   0.077942 0.449721 0.563962 -0.007753
C30   C     C_R   0.922056 0.550328 0.436047 -0.006917
C31   C     C_R   0.051814 0.500033 0.500015 0.089258
C32   C     C_R   0.948206 0.499967 0.499948 0.089219
C33   C     C_R   0.129236 0.550432 0.436148 -0.005493
C34   C     C_R   0.870805 0.449514 0.563772 -0.006863
C35   C     C_R   0.000092 0.399687 0.627604 -0.206168
C36   C     C_R   0.999926 0.600310 0.372354 -0.205667
C37   C     C_R   0.897461 0.399569 0.627500 -0.210234
C38   C     C_R   0.102595 0.600339 0.372382 -0.211148
C39   C     C_R   0.397840 0.505412 0.771808 -0.056566
C40   C     C_R   0.602198 0.505126 0.228144 -0.056646
C41   C     C_R   0.261029 0.521898 0.917015 -0.252692
C42   C     C_R   0.739622 0.516226 0.082570 -0.252634
C43   C     C_R   0.291249 0.514226 0.823650 0.157068
C44   C     C_R   0.709108 0.510418 0.176102 0.158523
C45   C     C_R   0.471473 0.504013 0.814887 -0.307786
C46   C     C_R   0.528475 0.506221 0.185129 -0.311357
C47   C     C_R   0.442845 0.515509 0.908143 0.090261
C48   C     C_R   0.557640 0.515585 0.091562 0.089973
C49   C     C_R   0.335462 0.522524 0.959277 0.139356
C50   C     C_R   0.665267 0.518336 0.040268 0.139503
C51   C     C_R   0.517753 0.518761 0.951978 0.074980
C52   C     C_R   0.482952 0.520371 0.047576 0.076069
Cu1   Cu    Cu3+1 0.402580 0.500010 0.499990 0.947954
Cu2   Cu    Cu3+1 0.597420 0.499990 0.500010 0.948001
H1    H     H_    0.221045 0.537184 0.091885 0.141787
H2    H     H_    0.780309 0.526469 0.907240 0.143079
H3    H     H_    0.291753 0.588427 0.389518 0.126211
H4    H     H_    0.708324 0.411405 0.610328 0.126138
H5    H     H_    0.203143 0.412278 0.610877 0.134669
H6    H     H_    0.796757 0.588018 0.389370 0.137031
H7    H     H_    0.018560 0.360634 0.677435 0.135845
H8    H     H_    0.981456 0.639353 0.322516 0.134259
H9    H     H_    0.838951 0.360448 0.677281 0.137406
H10   H     H_    0.161139 0.639368 0.322523 0.134853
H11   H     H_    0.448100 0.497590 0.226263 0.163121
H12   H     H_    0.551273 0.492143 0.774003 0.158998
H13   H     H_    0.178914 0.527909 0.956497 0.130170
H14   H     H_    0.821955 0.519208 0.042946 0.130133
H15   H     H_    0.342978 0.537223 0.167618 0.138895
H16   H     H_    0.658546 0.528175 0.831429 0.144819
H17   H     H_    0.342352 0.220903 0.500090 0.156548
H18   H     H_    0.657648 0.779088 0.499907 0.156357
H19   H     H_    0.657395 0.220844 0.500587 0.157134
H20   H     H_    0.342600 0.779148 0.499429 0.157032
H21   H     H_    0.746908 0.081118 0.500538 0.143731
H22   H     H_    0.253087 0.918872 0.499474 0.143604
H23   H     H_    0.747023 0.918774 0.500232 0.143465
H24   H     H_    0.252974 0.081216 0.499774 0.143610
N1    N     N_R   0.256170 0.500070 0.500040 -0.181293
N2    N     N_R   0.743830 0.499930 0.499960 -0.181507
O1    O     O_R   0.417730 0.629750 0.499970 -0.586740
O2    O     O_R   0.582270 0.370250 0.500030 -0.586965
O3    O     O_R   0.582270 0.629730 0.499980 -0.589097
O4    O     O_R   0.417730 0.370270 0.500020 -0.589094
O5    O     O_R   0.371590 0.500020 0.629830 -0.548059
O6    O     O_R   0.628410 0.499980 0.370170 -0.547444
O7    O     O_R   0.536130 0.499990 0.629840 -0.601006
O8    O     O_R   0.463870 0.500010 0.370160 -0.601340
N3    N     N_3   0.787121 0.509469 0.217277 -0.580355
H25   H     H_    0.836722 0.455801 0.191346 0.216283
H26   H     H_    0.831045 0.567596 0.198853 0.202326
N4    N     N_3   0.213299 0.515397 0.782404 -0.577461
H27   H     H_    0.171954 0.574863 0.799584 0.216182
H28   H     H_    0.161374 0.463343 0.809407 0.204214

loop_
_geom_bond_atom_site_label_1
_geom_bond_atom_site_label_2
_ccdc_geom_bond_type
C12   H20   S    
C27   C29   A    
C18   C21   A    
C2    O4    A    
C4    H16   S    
C19   H21   S    
C41   H13   S    
Cu1   Cu2   S    
C40   C46   A    
C20   H22   S    
C25   H3    S    
Cu1   O4    S    
C19   C21   A    
C27   N1    A    
C7    H17   S    
Cu2   O7    S    
C1    O1    A    
C15   C16   A    
C34   C37   A    
Cu1   N1    S    
Cu1   O1    S    
C26   H4    S    
C7    C17   A    
C31   C33   A    
N3    H26   S    
C38   H10   S    
C39   C45   A    
C3    H15   S    
C48   C50   A    
C23   O7    A    
C42   H14   S    
C41   C43   A    
C5    C49   A    
C42   C44   A    
C36   H8    S    
C41   C49   A    
Cu2   O3    S    
C37   H9    S    
C26   C34   A    
Cu2   N2    S    
C45   C47   A    
C46   C48   A    
C8    H18   S    
C13   C19   A    
C4    C51   A    
C51   C52   A    
C14   C20   A    
C22   H24   S    
C46   H11   S    
C4    C6    A    
C11   H19   S    
C6    H2    S    
Cu2   O6    S    
C47   C51   A    
C8    C18   A    
C32   C34   A    
C24   O8    A    
C31   C32   A    
C40   C44   A    
N4    H28   S    
C35   H7    S    
C6    C50   A    
C9    C11   A    
C28   H6    S    
C10   C12   A    
C42   C50   A    
C16   C18   A    
C20   C22   A    
C13   C15   A    
C14   C16   A    
C2    O2    A    
Cu2   O2    S    
C15   C17   A    
C35   C37   A    
C25   N1    A    
C5    H1    S    
C1    C10   S    
C17   C22   A    
C12   C14   A    
C3    C5    A    
C39   C43   A    
C3    C52   A    
C1    O3    A    
C29   C35   A    
C43   N4    S    
C30   C36   A    
C36   C38   A    
C29   C31   A    
C27   H5    S    
C47   C49   A    
C30   C32   A    
C11   C13   A    
C23   C39   S    
C28   C30   A    
N4    H27   S    
C24   C40   S    
Cu1   O8    S    
C28   N2    A    
C26   N2    A    
C7    C9    A    
C48   C52   A    
C8    C10   A    
C23   O5    A    
C21   H23   S    
C45   H12   S    
C33   C38   A    
Cu1   O5    S    
N3    H25   S    
C2    C9    S    
C24   O6    A    
C44   N3    S    
C25   C33   A    
