data_mof_unit_29881.cif
_audit_creation_date              2013-03-05T16:07:16-0500
_audit_creation_method            fapswitch 2.2
_symmetry_space_group_name_H-M    P1
_symmetry_Int_Tables_number       1
_space_group_crystal_system       triclinic
_cell_length_a                    10.809653
_cell_length_b                    9.513555
_cell_length_c                    17.714892
_cell_angle_alpha                 89.959897
_cell_angle_beta                  90.261939
_cell_angle_gamma                 89.916714
_cell_volume                      1821.74669136

loop_
_atom_site_label
_atom_site_type_symbol
_atom_site_description
_atom_site_fract_x
_atom_site_fract_y
_atom_site_fract_z
_atom_type_partial_charge
O1    O     O_R   0.319640 0.618740 0.499990 -0.556333
O2    O     O_R   0.680360 0.381260 0.500010 -0.556095
O3    O     O_R   0.680360 0.618740 0.500010 -0.561394
O4    O     O_R   0.319640 0.381260 0.499990 -0.561607
C1    C     C_R   0.262356 0.500152 0.499625 0.951248
C2    C     C_R   0.737647 0.499844 0.500364 0.950326
O5    O     O_R   0.500000 0.618830 0.391250 -0.607618
O6    O     O_R   0.500000 0.381170 0.608750 -0.607679
O7    O     O_R   0.500000 0.618830 0.608750 -0.567814
O8    O     O_R   0.500000 0.381170 0.391250 -0.567825
C3    C     C_R   0.063961 0.411301 0.449412 0.234350
C4    C     C_R   0.936046 0.588711 0.550552 0.234920
C5    C     C_R   0.934876 0.410287 0.450574 0.234492
C6    C     C_R   0.065129 0.589678 0.549433 0.233941
C7    C     C_R   0.500018 0.500034 0.355455 0.852743
C8    C     C_R   0.500001 0.499965 0.644545 0.853167
Cu1   Cu    Cu3+1 0.500000 0.640660 0.500000 1.036469
Cu2   Cu    Cu3+1 0.500000 0.359340 0.500000 1.036486
C9    C     C_R   0.871553 0.499245 0.500811 -0.353132
C10   C     C_R   0.128453 0.500735 0.499181 -0.353146
N1    N     N_R   0.500000 0.852070 0.500000 -0.179159
N2    N     N_R   0.500000 0.147930 0.500000 -0.179077
C11   C     C_R   0.500017 0.627413 0.846234 -0.136958
C12   C     C_R   0.500082 0.372586 0.153766 -0.136870
C13   C     C_R   0.499628 0.627432 0.153650 -0.132085
C14   C     C_R   0.500419 0.372566 0.846349 -0.132101
H1    H     H_    0.499872 0.726469 0.876398 0.140050
H2    H     H_    0.500254 0.273530 0.123602 0.140053
H3    H     H_    0.499444 0.726471 0.123394 0.141385
H4    H     H_    0.500588 0.273527 0.876605 0.141382
C15   C     C_R   0.500000 0.627569 0.767548 -0.096218
C16   C     C_R   0.500081 0.372430 0.232453 -0.096242
C17   C     C_R   0.499627 0.627633 0.232338 -0.169309
C18   C     C_R   0.500401 0.372366 0.767662 -0.169380
H5    H     H_    0.499870 0.727426 0.738149 0.162239
H6    H     H_    0.500225 0.272574 0.261851 0.162286
H7    H     H_    0.499406 0.727504 0.261645 0.157698
H8    H     H_    0.500594 0.272495 0.738355 0.157661
C19   C     C_R   0.500126 0.499953 0.727555 -0.002924
C20   C     C_R   0.499917 0.500047 0.272445 -0.003024
C21   C     C_R   0.426024 0.074619 0.451238 0.026175
C22   C     C_R   0.573958 0.925382 0.548770 0.026522
C23   C     C_R   0.574051 0.074244 0.548727 0.025048
C24   C     C_R   0.425944 0.925755 0.451276 0.024463
C25   C     C_R   0.500191 0.499999 0.885524 0.135028
C26   C     C_R   0.499890 0.500000 0.114476 0.135025
C27   C     C_1   0.500094 0.500004 0.966154 -0.032753
C28   C     C_1   0.499995 0.499994 0.033846 -0.032750
H9    H     H_    0.366950 0.130910 0.412115 0.172258
H10   H     H_    0.632996 0.869091 0.587910 0.172548
H11   H     H_    0.633398 0.130226 0.587735 0.138183
H12   H     H_    0.366591 0.869773 0.412271 0.138159
N3    N     N_R   0.128945 0.328730 0.394370 0.150430
O9    O     O_R   0.110532 0.193929 0.389691 -0.298791
O10   O     O_R   0.205593 0.388624 0.347991 -0.387431
N4    N     N_R   0.871061 0.671293 0.605572 0.150835
O11   O     O_R   0.888109 0.806454 0.609455 -0.299404
O12   O     O_R   0.794808 0.611350 0.652172 -0.387358
N5    N     N_R   0.868056 0.326965 0.396713 0.170338
O13   O     O_R   0.807924 0.387882 0.341934 -0.364026
O14   O     O_R   0.853777 0.192907 0.408169 -0.281486
N6    N     N_R   0.131932 0.672930 0.603345 0.169817
O15   O     O_R   0.193319 0.611886 0.657573 -0.364894
O16   O     O_R   0.144504 0.807445 0.592581 -0.280841

loop_
_geom_bond_atom_site_label_1
_geom_bond_atom_site_label_2
_geom_bond_distance
_ccdc_geom_bond_type
N6    O16   1.301114 A    
Cu1   N1    2.011261 S    
C12   C16   1.393919 A    
C14   H4    1.083668 S    
N6    O15   1.301044 A    
C5    N5    1.434188 S    
Cu2   N2    2.011262 S    
C11   H1    1.083659 S    
O2    Cu2   1.961051 S    
N1    C24   1.366924 A    
C12   H2    1.083657 S    
O1    Cu1   1.961051 S    
N2    C23   1.366916 A    
C3    N3    1.437703 S    
O3    C2    1.288748 A    
C12   C26   1.397348 A    
C24   H12   1.081745 S    
O5    C7    1.296291 A    
Cu1   Cu2   2.676353 S    
C4    C6    1.395618 A    
O4    Cu2   1.960448 S    
N5    O13   1.300921 A    
O6    C8    1.296289 A    
C1    C10   1.447426 S    
O2    C2    1.287728 A    
N3    O9    1.300718 A    
C2    C9    1.447468 S    
C3    C5    1.395661 A    
C23   H11   1.081747 S    
C4    N4    1.437501 S    
C22   H10   1.081320 S    
C11   C25   1.397350 A    
C16   H6    1.083054 S    
C4    C9    1.408559 A    
O7    Cu1   1.937512 S    
O7    C8    1.296090 A    
O8    Cu2   1.937512 S    
O3    Cu1   1.960448 S    
O6    Cu2   1.937801 S    
C26   C28   1.428368 S    
O8    C7    1.296089 A    
N3    O10   1.301203 A    
C13   H3    1.083665 S    
C7    C20   1.470517 S    
C21   C24   1.416219 A    
O1    C1    1.287748 A    
C3    C10   1.408678 A    
N5    O14   1.300794 A    
C17   C20   1.406010 A    
C13   C17   1.393947 A    
C22   C23   1.416210 A    
C5    C9    1.407734 A    
C8    C19   1.470516 S    
C18   C19   1.406014 A    
N2    C21   1.366820 A    
C6    C10   1.407823 A    
C16   C20   1.406104 A    
N4    O11   1.301083 A    
C25   C27   1.428368 S    
C21   H9    1.081357 S    
C15   C19   1.406106 A    
C15   H5    1.083057 S    
N1    C22   1.366804 A    
C14   C25   1.397334 A    
C11   C15   1.393918 A    
C18   H8    1.083039 S    
C13   C26   1.397330 A    
C14   C18   1.393944 A    
C17   H7    1.083035 S    
C27   C28   1.199153 T    
N4    O12   1.301170 A    
O4    C1    1.288705 A    
O5    Cu1   1.937801 S    
C6    N6    1.434331 S    
