data_mof_unit_51225.cif
_audit_creation_date              2012-10-26T19:29:59-0400
_audit_creation_method            fapswitch 2.2
_symmetry_space_group_name_H-M    P1
_symmetry_Int_Tables_number       1
_space_group_crystal_system       triclinic
_cell_length_a                    15.859107
_cell_length_b                    10.613434
_cell_length_c                    9.436653
_cell_angle_alpha                 89.30575
_cell_angle_beta                  90.224801
_cell_angle_gamma                 89.991854
_cell_volume                      1588.24466614

loop_
_atom_site_label
_atom_site_type_symbol
_atom_type_description
_atom_site_fract_x
_atom_site_fract_y
_atom_site_fract_z
_atom_type_partial_charge
C1    C     C_R   0.500129 0.259452 0.500737 0.548981
C2    C     C_3   0.469009 0.397939 0.952463 0.379450
C3    C     C_3   0.455171 0.593124 0.947327 -0.038392
C4    C     C_3   0.544829 0.406876 0.052673 -0.038393
C5    C     C_3   0.576407 0.510724 0.949802 -0.035650
C6    C     C_3   0.423592 0.489276 0.050197 -0.035649
C7    C     C_R   0.339970 0.499848 0.499761 0.540684
C8    C     C_R   0.660030 0.500152 0.500238 0.540684
C9    C     C_3   0.972115 0.385495 0.527348 0.309464
C10   C     C_3   0.027885 0.614505 0.472651 0.309464
C11   C     C_3   0.027360 0.420332 0.398546 -0.134307
C12   C     C_R   0.499871 0.740548 0.499263 0.548981
C13   C     C_3   0.972640 0.579667 0.601454 -0.134307
C14   C     C_1   0.250228 0.499345 0.499356 -0.019119
C15   C     C_1   0.749772 0.500655 0.500644 -0.019119
C16   C     C_3   0.028363 0.461273 0.629213 -0.131897
C17   C     C_3   0.971637 0.538727 0.370787 -0.131897
C18   C     C_3   0.082938 0.498346 0.499879 0.025575
C19   C     C_3   0.917062 0.501654 0.500120 0.025575
C20   C     C_1   0.174648 0.498861 0.499422 -0.022259
C21   C     C_1   0.825352 0.501139 0.500578 -0.022259
C22   C     C_3   0.502649 0.038392 0.635188 -0.111672
C23   C     C_3   0.570452 0.956682 0.563257 -0.129108
C24   C     C_3   0.497350 0.961608 0.364812 -0.111672
C25   C     C_3   0.000767 0.176775 0.574934 -0.122445
C26   C     C_3   0.999233 0.823225 0.425066 -0.122445
C27   C     C_3   0.581029 0.801787 0.000212 -0.148683
C28   C     C_3   0.418972 0.198212 0.999788 -0.148683
C29   C     C_3   0.429548 0.043318 0.436743 -0.129108
C30   C     C_3   0.499826 0.877548 0.498049 0.048434
C31   C     C_3   0.500174 0.122452 0.501951 0.048435
C32   C     C_3   0.432006 0.956981 0.569897 -0.124711
C33   C     C_3   0.567994 0.043019 0.430103 -0.124711
C34   C     C_3   0.530991 0.602060 0.047537 0.379450
Cu1   Cu    Cu3+1 0.500020 0.499990 0.643150 0.981760
Cu2   Cu    Cu3+1 0.499980 0.500010 0.356850 0.981760
H1    H     H_    0.050970 0.354582 0.317162 0.103653
H2    H     H_    0.623615 0.081403 0.373034 0.113778
H3    H     H_    0.417835 0.670669 0.898061 0.098207
H4    H     H_    0.582165 0.329331 0.101939 0.098207
H5    H     H_    0.640270 0.521344 0.903503 0.109457
H6    H     H_    0.359730 0.478656 0.096497 0.109457
H7    H     H_    0.042557 0.200987 0.665513 0.115352
H8    H     H_    0.038244 0.165864 0.476503 0.106918
H9    H     H_    0.971533 0.084207 0.599677 0.133862
H10   H     H_    0.961756 0.834136 0.523497 0.106918
H11   H     H_    0.957443 0.799014 0.334487 0.115352
H12   H     H_    0.949030 0.645418 0.682838 0.103652
H13   H     H_    0.028467 0.915793 0.400324 0.133862
H14   H     H_    0.520619 0.837536 0.955052 0.101917
H15   H     H_    0.621959 0.764299 0.914970 0.115437
H16   H     H_    0.614265 0.883116 0.047602 0.131047
H17   H     H_    0.378043 0.235700 0.085031 0.115437
H18   H     H_    0.479382 0.162462 0.044944 0.101916
H19   H     H_    0.385735 0.116884 0.952398 0.131048
H20   H     H_    0.947231 0.571632 0.266321 0.107828
H21   H     H_    0.052769 0.428368 0.733679 0.107828
H22   H     H_    0.628046 0.917959 0.614954 0.106308
H23   H     H_    0.371954 0.082041 0.385046 0.106308
H24   H     H_    0.505143 0.072030 0.746017 0.143274
H25   H     H_    0.494857 0.927970 0.253983 0.143275
H26   H     H_    0.376385 0.918596 0.626965 0.113778
N1    N     N_3   0.500060 0.499970 0.858290 -0.243745
N2    N     N_3   0.499940 0.500030 0.141710 -0.243745
O1    O     O_R   0.500040 0.316850 0.620870 -0.447427
O2    O     O_3   0.063910 0.733566 0.443847 -0.555104
O3    O     O_3   0.566415 0.711101 0.107599 -0.540781
O4    O     O_3   0.433585 0.288900 0.892401 -0.540780
O5    O     O_R   0.499960 0.683150 0.379130 -0.447427
O6    O     O_R   0.500000 0.316860 0.379090 -0.526512
O7    O     O_R   0.500000 0.683140 0.620910 -0.526511
O8    O     O_R   0.379090 0.499980 0.620870 -0.477108
O9    O     O_R   0.620910 0.500020 0.379130 -0.477108
O10   O     O_R   0.379060 0.499990 0.379090 -0.512467
O11   O     O_R   0.620940 0.500010 0.620910 -0.512467
O12   O     O_3   0.936090 0.266434 0.556153 -0.555104

loop_
_geom_bond_atom_site_label_1
_geom_bond_atom_site_label_2
_ccdc_geom_bond_type
C23   H22   S    
C12   O5    A    
C11   C18   S    
C24   H25   S    
Cu1   Cu2   S    
C3    C6    S    
C25   H7    S    
C2    N1    S    
Cu1   O11   S    
C22   C32   S    
C28   O4    S    
C9    C16   S    
C29   C32   S    
C2    O4    S    
C22   H24   S    
C27   H16   S    
Cu1   O1    S    
C10   C17   S    
C1    C31   S    
C5    N1    S    
C6    N2    S    
C11   H1    S    
C24   C29   S    
C9    C19   S    
C7    C14   S    
C29   H23   S    
Cu2   O6    S    
C23   C33   S    
C1    O1    A    
C31   C33   S    
C9    O12   S    
C27   H14   S    
Cu1   O7    S    
C2    C6    S    
C25   H8    S    
C28   H19   S    
C27   H15   S    
C7    O10   A    
C10   O2    S    
C22   C31   S    
C13   C19   S    
C26   O2    S    
C23   C30   S    
C14   C20   T    
C26   H13   S    
C7    O8    A    
C28   H18   S    
C3    C34   S    
C8    O11   A    
C2    C4    S    
C4    H4    S    
C24   C33   S    
C5    C34   S    
C34   N2    S    
C9    C11   S    
C17   H20   S    
Cu2   O10   S    
C26   H11   S    
C12   O7    A    
Cu1   O8    S    
C8    C15   S    
C25   H9    S    
Cu2   O5    S    
C5    H5    S    
C11   C17   S    
C12   C30   S    
C33   H2    S    
C4    C5    S    
C10   C13   S    
C34   O3    S    
C13   H12   S    
C28   H17   S    
C3    N1    S    
C4    N2    S    
C1    O6    A    
C25   O12   S    
C32   H26   S    
C29   C31   S    
C30   C32   S    
C10   C18   S    
C8    O9    A    
C17   C19   S    
C18   C20   S    
C16   H21   S    
C24   C30   S    
C27   O3    S    
Cu2   O9    S    
C26   H10   S    
C3    H3    S    
C15   C21   T    
C16   C18   S    
C6    H6    S    
C13   C16   S    
C22   C23   S    
Cu1   N1    S    
Cu2   N2    S    
C19   C21   S    
