data_mof_unit_5991.cif
_audit_creation_date              2012-12-10T17:31:09-0500
_audit_creation_method            fapswitch 2.2
_symmetry_space_group_name_H-M    P1
_symmetry_Int_Tables_number       1
_space_group_crystal_system       triclinic
_cell_length_a                    12.004365
_cell_length_b                    12.817899
_cell_length_c                    15.301115
_cell_angle_alpha                 87.034007
_cell_angle_beta                  115.746841
_cell_angle_gamma                 94.078995
_cell_volume                      2114.71367707

loop_
_atom_site_label
_atom_site_type_symbol
_atom_type_description
_atom_site_fract_x
_atom_site_fract_y
_atom_site_fract_z
_atom_type_partial_charge
C1    C     C_R   0.474586 0.299804 0.494276 0.956909
C2    C     C_R   0.525303 0.700208 0.505509 0.952854
C3    C     C_R   0.664536 0.500394 0.124358 -0.256846
C4    C     C_R   0.475282 0.692242 0.946972 -0.240747
C5    C     C_R   0.745369 0.477875 0.085820 -0.216566
C6    C     C_R   0.398261 0.718252 0.988141 -0.222913
C7    C     C_R   0.543901 0.811413 0.514680 -0.056930
C8    C     C_R   0.455899 0.188574 0.484970 -0.069313
C9    C     C_R   0.342863 0.030964 0.406583 -0.297701
C10   C     C_R   0.656906 0.969016 0.593009 -0.300395
C11   C     C_R   0.347115 0.139085 0.413996 -0.006505
C12   C     C_R   0.652545 0.860891 0.585778 -0.007403
C13   C     C_R   0.556899 0.131381 0.545094 -0.301048
C14   C     C_R   0.442971 0.868584 0.454368 -0.290945
C15   C     C_R   0.553760 0.025204 0.534537 0.199787
C16   C     C_R   0.446072 0.974773 0.464931 0.199155
C17   C     C_R   0.999950 0.592298 0.403032 -0.329827
C18   C     C_R   0.999820 0.407345 0.596582 -0.329364
C19   C     C_R   0.121551 0.584413 0.413643 0.054390
C20   C     C_R   0.878362 0.415420 0.586187 0.047076
C21   C     C_R   0.162706 0.461156 0.543349 -0.036792
C22   C     C_R   0.837152 0.538683 0.456459 -0.035908
C23   C     C_R   0.577364 0.500295 0.681024 0.922690
C24   C     C_R   0.423715 0.506643 0.319236 0.988135
C25   C     C_R   0.041102 0.466606 0.535440 0.086921
C26   C     C_R   0.958697 0.533144 0.464251 0.084381
C27   C     C_R   0.630159 0.512822 0.786682 -0.056006
C28   C     C_R   0.381603 0.535405 0.217072 -0.039045
C29   C     C_R   0.783070 0.459950 0.945166 -0.200504
C30   C     C_R   0.307803 0.678710 0.100722 -0.193149
C31   C     C_R   0.740767 0.465337 0.845201 -0.206187
C32   C     C_R   0.308182 0.621921 0.180785 -0.256360
C33   C     C_R   0.568703 0.567712 0.829577 -0.071441
C34   C     C_R   0.445383 0.499526 0.167429 -0.092776
C35   C     C_R   0.611351 0.561985 0.932112 0.003632
C36   C     C_R   0.465002 0.568426 0.099715 -0.012691
C37   C     C_R   0.714863 0.501318 0.988136 0.168998
C38   C     C_R   0.389037 0.654923 0.061975 0.177349
C39   C     C_R   0.546858 0.603463 0.980385 0.064838
C40   C     C_R   0.557295 0.554537 0.067999 0.066087
H1    H     H_    0.826155 0.434521 0.130089 0.155964
H2    H     H_    0.344310 0.786858 0.961016 0.149465
H3    H     H_    0.847458 0.369961 0.633893 0.115803
H4    H     H_    0.152475 0.629848 0.365934 0.114959
H5    H     H_    0.938746 0.644041 0.347293 0.149759
H6    H     H_    0.060922 0.355399 0.652142 0.142752
H7    H     H_    0.257733 0.649752 0.218176 0.150877
H8    H     H_    0.790628 0.426200 0.813132 0.154409
H9    H     H_    0.864580 0.416907 0.988240 0.148264
H10   H     H_    0.251097 0.745756 0.073821 0.144098
H11   H     H_    0.687248 0.476479 0.198803 0.157353
H12   H     H_    0.481999 0.744935 0.891858 0.178871
H13   H     H_    0.360339 0.829481 0.400166 0.141410
H14   H     H_    0.639606 0.170446 0.599236 0.144315
H15   H     H_    0.260853 0.990978 0.352742 0.131131
H16   H     H_    0.738871 0.008989 0.646912 0.130807
H17   H     H_    0.773075 0.589997 0.402340 0.123100
H18   H     H_    0.226737 0.409792 0.597422 0.116609
N1    N     N_R   0.799120 0.480200 0.517090 -0.092066
N2    N     N_R   0.200880 0.519800 0.482910 -0.088701
O1    O     O_R   0.580150 0.341050 0.504560 -0.618518
O2    O     O_R   0.419850 0.658950 0.495440 -0.605338
O3    O     O_R   0.388090 0.353760 0.493600 -0.600658
O4    O     O_R   0.611910 0.646240 0.506400 -0.605495
O5    O     O_R   0.650890 0.490020 0.640860 -0.600743
O6    O     O_R   0.349110 0.509980 0.359140 -0.608706
O7    O     O_R   0.458830 0.502730 0.629890 -0.615850
O8    O     O_R   0.541170 0.497270 0.370110 -0.611786
Zn1   Zn    Zn3+2 0.628240 0.491510 0.507320 0.988015
Zn2   Zn    Zn3+2 0.371760 0.508490 0.492680 0.992032
C41   C     C_2   0.475889 0.387068 0.177241 0.379024
H19   H     H_    0.505407 0.354294 0.127323 0.077769
O9    O     O_2   0.462515 0.328113 0.237680 -0.544141
C42   C     C_2   0.453336 0.619991 0.766228 0.396232
H20   H     H_    0.368140 0.599219 0.773005 0.061061
O10   O     O_2   0.453940 0.688395 0.707793 -0.539536
C43   C     C_2   0.759803 0.804765 0.657668 0.413357
H21   H     H_    0.850006 0.845928 0.691243 0.047593
O11   O     O_2   0.748393 0.714996 0.684399 -0.547370
C44   C     C_2   0.239485 0.195157 0.342498 0.421930
H22   H     H_    0.149470 0.153716 0.308821 0.042602
O12   O     O_2   0.250313 0.285244 0.316241 -0.536493

loop_
_geom_bond_atom_site_label_1
_geom_bond_atom_site_label_2
_ccdc_geom_bond_type
C8    C13   A    
C5    C37   A    
C1    C8    S    
C2    C7    S    
C22   H17   S    
C29   H9    S    
C43   H21   S    
C27   C33   A    
O2    Zn2   S    
C42   O10   D    
C4    H12   S    
C17   C26   A    
C35   C37   A    
C9    C16   A    
C17   H5    S    
C10   C15   A    
C15   C16   A    
C1    O3    A    
C30   C38   A    
C23   O7    A    
C36   C40   A    
C5    H1    S    
C33   C35   A    
C7    C14   A    
O8    Zn1   S    
C6    C38   A    
C9    H15   S    
C23   C27   S    
C10   H16   S    
C34   C36   A    
C24   O6    A    
C30   H10   S    
C28   C34   A    
C18   C25   A    
C18   H6    S    
C2    O4    A    
C43   O11   D    
C7    C12   A    
C42   H20   S    
O3    Zn2   S    
C27   C31   A    
C28   C32   A    
C21   N2    A    
C4    C6    A    
C22   N1    A    
C41   O9    D    
C3    H11   S    
C25   C26   A    
C35   C39   A    
C4    C39   A    
N2    Zn2   S    
C12   C43   S    
O4    Zn1   S    
C20   N1    A    
C9    C11   A    
C10   C12   A    
N1    Zn1   S    
C44   O12   D    
C3    C40   A    
C31   H8    S    
C13   C15   A    
C22   C26   A    
C32   H7    S    
C14   C16   A    
C39   C40   A    
C20   H3    S    
C19   H4    S    
C13   H14   S    
O1    Zn1   S    
C21   C25   A    
C24   C28   S    
C44   H22   S    
C3    C5    A    
C1    O1    A    
C19   N2    A    
O7    Zn2   S    
C23   O5    A    
C36   C38   A    
C21   H18   S    
C29   C31   A    
C30   C32   A    
O6    Zn2   S    
C8    C11   A    
O5    Zn1   S    
C17   C19   A    
C18   C20   A    
C11   C44   S    
C24   O8    A    
C33   C42   S    
C41   H19   S    
C14   H13   S    
C6    H2    S    
C29   C37   A    
C34   C41   S    
C2    O2    A    
