data_mof_unit_15965.cif
_audit_creation_date              2012-12-11T14:13:15-0500
_audit_creation_method            fapswitch 2.2
_symmetry_space_group_name_H-M    P1
_symmetry_Int_Tables_number       1
_space_group_crystal_system       triclinic
_cell_length_a                    8.441942
_cell_length_b                    15.532221
_cell_length_c                    17.452526
_cell_angle_alpha                 95.484467
_cell_angle_beta                  94.29252
_cell_angle_gamma                 101.087528
_cell_volume                      2225.21329429

loop_
_atom_site_label
_atom_site_type_symbol
_atom_type_description
_atom_site_fract_x
_atom_site_fract_y
_atom_site_fract_z
_atom_type_partial_charge
Ba1   Ba    Ba6+2 0.849890 0.543710 0.463630 1.675645
Ba2   Ba    Ba6+2 0.339940 0.456360 0.536380 1.668169
C1    C     C_3   0.833552 0.849979 0.239636 0.265334
C2    C     C_3   0.715158 0.777585 0.273272 0.701150
C3    C     C_3   0.409210 0.269631 0.291123 0.746698
C4    C     C_3   0.253457 0.199491 0.275011 -0.185746
C5    C     C_3   0.122755 0.294568 0.752494 0.368031
C6    C     C_3   0.143924 0.286349 0.838899 -0.286756
C7    C     C_3   0.522249 0.220422 0.745040 0.256580
C8    C     C_3   0.443275 0.147008 0.791042 -0.293394
C9    C     C_R   0.305553 0.503113 0.267634 -0.276653
C10   C     C_R   0.140851 0.471942 0.248475 -0.015252
C11   C     C_R   0.077836 0.469203 0.170850 -0.102827
C12   C     C_3   0.186973 0.733242 0.250804 0.224079
C13   C     C_R   0.179911 0.502581 0.114920 0.001220
C14   C     C_R   0.344575 0.543885 0.139078 -0.155286
C15   C     C_R   0.403150 0.548780 0.218159 -0.042002
C16   C     C_R   0.111180 0.526187 0.828772 -0.169184
C17   C     C_R   0.056513 0.514182 0.748127 -0.009794
C18   C     C_R   0.793719 0.436474 0.776729 -0.043995
C19   C     C_R   0.849316 0.439758 0.855865 -0.086003
C20   C     C_R   0.009764 0.484853 0.882551 -0.026391
C21   C     C_1   0.066916 0.491489 0.965307 0.168906
C22   C     C_1   0.114962 0.496226 0.033660 0.146941
C23   C     C_3   0.261893 0.766256 0.176596 -0.188731
C24   C     C_R   0.898806 0.469773 0.724120 -0.256155
C25   C     C_R   0.745335 0.236551 0.543409 -0.291744
C26   C     C_R   0.833878 0.179931 0.575229 -0.004043
C27   C     C_R   0.758365 0.091192 0.577306 -0.122199
C28   C     C_R   0.614317 0.050326 0.528814 -0.036133
C29   C     C_R   0.537628 0.110287 0.487707 -0.083273
C30   C     C_R   0.596196 0.203476 0.501190 0.033215
C31   C     C_R   0.390687 0.911333 0.483427 -0.220699
C32   C     C_R   0.333477 0.820910 0.463302 0.051701
C33   C     C_R   0.583464 0.790971 0.522037 -0.008702
C34   C     C_3   0.241405 0.737348 0.648021 0.246251
C35   C     C_R   0.646154 0.884036 0.539874 0.311467
C36   C     C_R   0.551133 0.947886 0.518063 -0.034098
C37   C     C_R   0.425481 0.761520 0.486791 0.124783
C38   C     C_3   0.251086 0.832423 0.683803 0.191666
C39   C     C_3   0.928239 0.278472 0.380481 0.334288
C40   C     C_3   0.859545 0.178230 0.365450 0.233619
C41   C     C_3   0.740810 0.663616 0.703692 0.233649
C42   C     C_3   0.719006 0.694820 0.787527 -0.241674
H1    H     H_    0.773291 0.763747 0.328590 0.063337
H2    H     H_    0.363844 0.850464 0.724649 0.087662
H3    H     H_    0.841248 0.311370 0.410391 -0.034134
H4    H     H_    0.042736 0.289603 0.418826 0.033213
H5    H     H_    0.731722 0.162472 0.377737 -0.025762
H6    H     H_    0.924470 0.145034 0.407836 0.037102
H7    H     H_    0.866526 0.653637 0.698620 -0.050121
H8    H     H_    0.652353 0.601334 0.683906 0.076195
H9    H     H_    0.786935 0.763869 0.802707 0.133294
H10   H     H_    0.588891 0.695373 0.792677 0.123610
H11   H     H_    0.763874 0.880382 0.196590 0.025829
H12   H     H_    0.378820 0.333771 0.313540 -0.162630
H13   H     H_    0.182180 0.202297 0.325362 0.073420
H14   H     H_    0.285102 0.133117 0.267183 0.088542
H15   H     H_    0.923368 0.820133 0.208663 0.100613
H16   H     H_    0.382248 0.748708 0.172784 0.068109
H17   H     H_    0.231905 0.337841 0.736223 0.110347
H18   H     H_    0.019734 0.327304 0.742132 -0.034734
H19   H     H_    0.192594 0.352433 0.870991 0.070865
H20   H     H_    0.026222 0.259030 0.860105 0.172420
H21   H     H_    0.229968 0.243328 0.852137 0.146702
H22   H     H_    0.464497 0.207190 0.684538 0.026086
H23   H     H_    0.487643 0.085243 0.777742 0.099973
H24   H     H_    0.309897 0.132986 0.777744 0.126938
H25   H     H_    0.472415 0.167452 0.854119 0.164130
H26   H     H_    0.951106 0.440650 0.154026 0.117060
H27   H     H_    0.360155 0.489640 0.321635 0.018691
H28   H     H_    0.853699 0.465261 0.663862 0.065790
H29   H     H_    0.300760 0.950490 0.475191 0.133208
H30   H     H_    0.814546 0.057345 0.618627 0.156140
H31   H     H_    0.276421 0.700832 0.279206 -0.036816
H32   H     H_    0.798616 0.306132 0.546381 0.056253
H33   H     H_    0.193345 0.731388 0.122055 0.140490
H34   H     H_    0.358636 0.732890 0.625609 0.052969
H35   H     H_    0.140069 0.718385 0.601453 0.077120
O1    O     O_2   0.849470 0.455720 0.314640 -0.449194
O2    O     O_3   0.713852 0.732614 0.662065 -0.612517
O3    O     O_3   0.154182 0.803001 0.302231 -0.629704
O4    O     O_2   0.340240 0.544310 0.685400 -0.468059
O5    O     O_3   0.079710 0.546180 0.591070 -0.480848
O6    O     O_3   0.542640 0.381210 0.637190 -0.484956
O7    O     O_3   0.221151 0.683756 0.707240 -0.679963
O8    O     O_3   0.602990 0.392320 0.460230 -0.476415
O9    O     O_3   0.114850 0.335810 0.598580 -0.498495
O10   O     O_2   0.164128 0.174415 0.566390 -0.464638
O11   O     O_3   0.096763 0.211107 0.708899 -0.587181
O12   O     O_3   0.110000 0.453900 0.408940 -0.516274
O13   O     O_3   0.586730 0.607760 0.539780 -0.477579
O14   O     O_2   0.329480 0.280220 0.460820 -0.457071
O15   O     O_3   0.514821 0.241265 0.344594 -0.665147
O16   O     O_2   0.485733 0.462874 0.769873 -0.485231
O17   O     O_3   0.491163 0.300092 0.780526 -0.644455
O18   O     O_3   0.647080 0.618870 0.362820 -0.530383
O19   O     O_2   0.722740 0.544748 0.229687 -0.472571
O20   O     O_3   0.957780 0.313514 0.310682 -0.633738
O21   O     O_3   0.685477 0.702160 0.219012 -0.627235
O22   O     O_2   0.860230 0.719810 0.539220 -0.493578
O23   O     O_3   0.074870 0.664270 0.401430 -0.493818
O24   O     O_2   0.002573 0.818952 0.426275 -0.495898
P1    P     P_3+3 0.017890 0.428700 0.326140 0.956497
P2    P     P_3+3 0.687140 0.705880 0.561850 1.043980
P3    P     P_3+3 0.143106 0.777404 0.399154 0.973498
P4    P     P_3+3 0.171830 0.571380 0.673870 0.973650
P5    P     P_3+3 0.050981 0.224142 0.611303 0.951793
P6    P     P_3+3 0.610949 0.605005 0.260035 0.936315
P7    P     P_3+3 0.509395 0.280025 0.442320 0.981497
P8    P     P_3+3 0.580561 0.393784 0.738672 0.909312
O25   O     O_3   0.255730 0.887924 0.624346 -0.717035
C43   C     C_3   0.318684 0.976308 0.654560 0.080101
H36   H     H_    0.450118 0.985101 0.673072 0.084422
H37   H     H_    0.250031 0.997612 0.702238 0.068427
H38   H     H_    0.305494 0.019770 0.608688 0.104723
C44   C     C_2   0.105253 0.838143 0.727427 0.504123
H39   H     H_    0.987290 0.831196 0.696060 0.058445
O26   O     O_2   0.119771 0.852372 0.797856 -0.557057
O27   O     O_3   0.882399 0.142183 0.290529 -0.672873
C45   C     C_3   0.743436 0.136010 0.238665 0.256029
H40   H     H_    0.724550 0.202680 0.228391 0.144001
H41   H     H_    0.633718 0.096105 0.258964 0.019620
H42   H     H_    0.763560 0.102214 0.182395 0.081558
O28   O     O_3   0.912636 0.913454 0.300755 -0.670999
C46   C     C_3   0.024251 0.979366 0.272578 0.239813
H43   H     H_    0.138852 0.957226 0.264797 0.067711
H44   H     H_    0.054084 0.036482 0.317427 0.143502
H45   H     H_    0.976182 0.001641 0.218367 0.092639
C47   C     C_2   0.780453 0.640865 0.844717 0.467576
H46   H     H_    0.908296 0.639507 0.850988 0.025840
O29   O     O_2   0.689457 0.602151 0.887027 -0.534220
O30   O     O_3   0.565199 0.802275 0.284596 -0.713549
C48   C     C_3   0.583699 0.883535 0.330747 0.056310
H47   H     H_    0.629372 0.939846 0.298364 0.088494
H48   H     H_    0.662502 0.885635 0.384860 0.049940
H49   H     H_    0.462180 0.892164 0.344076 0.068736
O31   O     O_3   0.485174 0.271587 0.221308 -0.676914
C49   C     C_3   0.503954 0.354844 0.194746 0.173068
H50   H     H_    0.385461 0.365617 0.169880 0.009295
H51   H     H_    0.587252 0.357663 0.148415 0.114469
H52   H     H_    0.558558 0.406703 0.242093 0.081452
C50   C     C_2   0.154138 0.212839 0.203518 0.583625
H53   H     H_    0.115636 0.274939 0.198897 -0.016740
O32   O     O_2   0.118144 0.154362 0.149609 -0.542792
C51   C     C_2   0.700974 0.221402 0.744100 0.508511
H54   H     H_    0.768545 0.263096 0.706944 -0.133331
O33   O     O_2   0.769420 0.174793 0.782050 -0.574929
C52   C     C_2   0.035725 0.663906 0.228763 0.450390
H55   H     H_    0.995855 0.618504 0.269475 0.058332
O34   O     O_2   0.958790 0.655976 0.165464 -0.562173
C53   C     C_2   0.266460 0.587679 0.857121 0.604744
H56   H     H_    0.366903 0.595609 0.822160 0.073620
O35   O     O_2   0.281657 0.633536 0.919081 -0.550089
C54   C     C_2   0.457104 0.576133 0.081975 0.562243
H57   H     H_    0.546528 0.636568 0.095688 0.079272
O36   O     O_2   0.454136 0.533532 0.019190 -0.544402
C55   C     C_2   0.736694 0.400246 0.910559 0.554176
H58   H     H_    0.609153 0.402812 0.903338 0.088931
O37   O     O_2   0.784450 0.363023 0.963616 -0.592540
O38   O     O_3   0.783837 0.909965 0.590955 -0.660332
C56   C     C_3   0.922304 0.930177 0.550565 0.174362
H59   H     H_    0.897237 0.945922 0.490330 0.064307
H60   H     H_    0.988520 0.876008 0.552634 0.152493
H61   H     H_    0.006415 0.988489 0.582036 0.065159
C57   C     C_2   0.413822 0.078699 0.421815 0.483898
H62   H     H_    0.441351 0.039140 0.371960 -0.070304
O39   O     O_2   0.278400 0.094947 0.423973 -0.595416
O40   O     O_3   0.348564 0.674859 0.487644 -0.667131
C58   C     C_3   0.368861 0.626339 0.418580 0.381369
H63   H     H_    0.433489 0.573560 0.429662 0.103634
H64   H     H_    0.414409 0.667093 0.373232 -0.098010
H65   H     H_    0.255878 0.586560 0.393392 0.051187
C59   C     C_2   0.280967 0.863489 0.171962 0.584440
H66   H     H_    0.364894 0.910167 0.213152 -0.014429
O41   O     O_2   0.204304 0.890887 0.120760 -0.545889

loop_
_geom_bond_atom_site_label_1
_geom_bond_atom_site_label_2
_ccdc_geom_bond_type
Ba1   O8    S    
C55   O37   D    
C39   C40   S    
C46   H43   S    
C54   O36   D    
C24   H28   S    
C19   C55   S    
C7    C51   S    
C3    H12   S    
Ba2   O5    S    
O7    P4    S    
O12   P1    S    
C41   H7    S    
C48   H49   S    
O38   C56   S    
C5    C6    S    
C38   O25   S    
O8    P7    S    
C8    H23   S    
Ba1   O5    S    
C38   H2    S    
C10   C11   A    
C28   C36   S    
C35   C36   A    
O28   C46   S    
C30   P7    S    
O1    P1    D    
C23   H33   S    
C26   C27   A    
C33   C35   A    
C16   C17   A    
C52   O34   D    
C28   C29   A    
O9    P5    S    
C49   H52   S    
C9    H27   S    
C41   H8    S    
C11   H26   S    
C42   C47   S    
C50   H53   S    
C56   H61   S    
Ba2   P4    S    
O5    P4    S    
C12   C52   S    
Ba2   O6    S    
Ba1   Ba2   S    
O40   C58   S    
C17   C24   A    
C4    H14   S    
C59   H66   S    
C5    H17   S    
C45   H42   S    
C7    H22   S    
C1    H11   S    
C23   C59   S    
C14   C15   A    
C21   C22   T    
C39   O20   S    
Ba2   O9    S    
C23   H16   S    
C7    C8    S    
C51   O33   D    
O14   P7    D    
C43   H38   S    
C38   C44   S    
C6    H21   S    
Ba1   O12   S    
O19   P6    D    
C19   C20   A    
C57   O39   D    
C4    H13   S    
Ba2   O4    S    
C16   C53   S    
C42   H9    S    
O25   C43   S    
C3    O15   S    
C56   H60   S    
C2    H1    S    
O22   P2    D    
O17   P8    S    
O2    P2    S    
C13   C14   A    
C51   H54   S    
C32   C37   A    
C32   P3    S    
C3    O31   S    
C43   H36   S    
Ba1   O18   S    
C48   H48   S    
C27   H30   S    
C40   H5    S    
C46   H45   S    
C34   O7    S    
C5    O11   S    
O15   P7    S    
C55   H58   S    
C47   O29   D    
C41   C42   S    
C5    H18   S    
C27   C28   A    
C33   P2    S    
C18   P8    S    
O18   P6    S    
C29   C30   A    
Ba1   P1    S    
C29   C57   S    
C34   C38   S    
C49   H50   S    
C14   C54   S    
C31   C32   A    
C39   H3    S    
Ba2   O8    S    
C53   H56   S    
Ba2   O13   S    
C7    O17   S    
C45   H40   S    
C40   H6    S    
C31   H29   S    
C13   C22   S    
C6    H20   S    
Ba1   O13   S    
C11   C13   A    
O30   C48   S    
C41   O2    S    
C12   O3    S    
C1    C2    S    
Ba1   O22   S    
C54   H57   S    
O27   C45   S    
C35   O38   S    
C56   H59   S    
C50   O32   D    
C1    H15   S    
C9    C15   A    
C46   H44   S    
C25   C30   A    
C16   C20   A    
Ba2   O14   S    
C53   O35   D    
O6    P8    S    
C34   H35   S    
C15   P6    S    
C9    C10   A    
C1    O28   S    
C10   P1    S    
C48   H47   S    
C8    H24   S    
C31   C36   A    
C2    O21   S    
C12   H31   S    
C44   O26   D    
C47   H46   S    
O11   P5    S    
C37   O40   S    
C34   H34   S    
C44   H39   S    
C49   H51   S    
C40   O27   S    
C3    C4    S    
C57   H62   S    
C18   C24   A    
C26   P5    S    
C33   C37   A    
O10   P5    D    
C39   H4    S    
O4    P4    D    
O20   P1    S    
O24   P3    D    
O3    P3    S    
C12   C23   S    
Ba2   O12   S    
C59   O41   D    
C45   H41   S    
O31   C49   S    
C6    H19   S    
C8    H25   S    
C42   H10   S    
O13   P2    S    
O21   P6    S    
C18   C19   A    
C58   H63   S    
O23   P3    S    
C25   C26   A    
Ba1   O1    S    
C20   C21   S    
O16   P8    D    
C58   H64   S    
C4    C50   S    
C52   H55   S    
Ba1   O23   S    
C25   H32   S    
Ba1   P2    S    
C2    O30   S    
C43   H37   S    
C58   H65   S    
C17   P4    S    
