data_mof_unit_24796.cif
_audit_creation_date              2012-12-11T17:36:17-0500
_audit_creation_method            fapswitch 2.2
_symmetry_space_group_name_H-M    P1
_symmetry_Int_Tables_number       1
_space_group_crystal_system       triclinic
_cell_length_a                    25.900568
_cell_length_b                    6.901032
_cell_length_c                    21.694664
_cell_angle_alpha                 90.019315
_cell_angle_beta                  96.019324
_cell_angle_gamma                 90.01827
_cell_volume                      3856.33837922

loop_
_atom_site_label
_atom_site_type_symbol
_atom_type_description
_atom_site_fract_x
_atom_site_fract_y
_atom_site_fract_z
_atom_type_partial_charge
O1    O     O_R   0.208650 0.594520 0.175450 -0.541763
O2    O     O_R   0.791350 0.405480 0.824550 -0.542104
O3    O     O_R   0.291350 0.094520 0.324550 -0.542137
O4    O     O_R   0.708650 0.905480 0.675450 -0.536590
O5    O     O_R   0.192980 0.260780 0.300160 -0.539181
O6    O     O_R   0.807020 0.739220 0.699840 -0.536875
O7    O     O_R   0.307020 0.760780 0.199840 -0.539307
O8    O     O_R   0.692980 0.239220 0.800160 -0.537582
C1    C     C_R   0.179017 0.433085 0.318792 0.727555
C2    C     C_R   0.821520 0.566812 0.682010 0.727091
C3    C     C_R   0.320983 0.933088 0.181211 0.729005
C4    C     C_R   0.678482 0.066806 0.817991 0.724879
O9    O     O_R   0.202550 0.264660 0.174420 -0.536378
O10   O     O_R   0.797450 0.735340 0.825580 -0.539517
O11   O     O_R   0.297450 0.764660 0.325580 -0.536301
O12   O     O_R   0.702550 0.235340 0.674420 -0.542024
O13   O     O_R   0.300990 0.096480 0.197920 -0.500997
O14   O     O_R   0.699010 0.903520 0.802080 -0.504632
O15   O     O_R   0.199010 0.596480 0.302080 -0.501251
O16   O     O_R   0.800990 0.403520 0.697920 -0.505599
C5    C     C_R   0.191216 0.433349 0.151087 0.716609
C6    C     C_R   0.808811 0.566636 0.848894 0.696328
C7    C     C_R   0.308929 0.933321 0.348882 0.718094
C8    C     C_R   0.690954 0.066313 0.651243 0.695940
O17   O     O_3   0.282290 0.427760 0.257860 -0.361787
O18   O     O_3   0.717710 0.572240 0.742140 -0.350520
O19   O     O_3   0.217710 0.927760 0.242140 -0.361708
O20   O     O_3   0.782290 0.072240 0.757860 -0.352976
V1    V     V_3+5 0.244010 0.152080 0.248540 1.547979
V2    V     V_3+5 0.755990 0.847920 0.751460 1.562798
V3    V     V_3+5 0.255990 0.652080 0.251460 1.547451
V4    V     V_3+5 0.744010 0.347920 0.748540 1.555423
C9    C     C_R   0.657465 0.056783 0.592007 -0.087082
C10   C     C_R   0.342530 0.937325 0.408153 -0.098624
C11   C     C_R   0.842478 0.560204 0.907949 -0.089401
C12   C     C_R   0.157579 0.439709 0.092010 -0.097406
C13   C     C_R   0.649022 0.065704 0.480217 -0.120030
C14   C     C_R   0.354134 0.858839 0.517127 -0.124773
C15   C     C_R   0.852374 0.596552 0.019101 -0.120840
C16   C     C_R   0.147712 0.402872 0.980871 -0.122271
C17   C     C_R   0.679881 0.074186 0.536617 -0.162990
C18   C     C_R   0.322248 0.874199 0.461695 -0.145584
C19   C     C_R   0.821248 0.601345 0.962893 -0.162113
C20   C     C_R   0.178825 0.398283 0.037094 -0.147390
C21   C     C_R   0.603509 0.029494 0.590589 -0.108979
C22   C     C_R   0.395660 0.983200 0.410367 -0.133627
C23   C     C_R   0.895864 0.520962 0.909330 -0.119061
C24   C     C_R   0.104193 0.478953 0.090589 -0.133211
C25   C     C_R   0.571255 0.009492 0.533418 0.103011
C26   C     C_R   0.430138 0.954123 0.465431 0.108680
C27   C     C_R   0.929535 0.529643 0.965742 0.102546
C28   C     C_R   0.070537 0.469949 0.034176 0.107876
C29   C     C_R   0.595251 0.034925 0.478145 0.029063
C30   C     C_R   0.407534 0.897358 0.519444 0.027278
C31   C     C_R   0.905802 0.558781 0.021055 0.030125
C32   C     C_R   0.094280 0.440638 0.978883 0.026502
C33   C     C_R   0.516353 0.968578 0.528794 -0.144666
C34   C     C_R   0.485754 0.978398 0.469256 -0.141609
C35   C     C_R   0.985184 0.505800 0.969894 -0.145155
C36   C     C_R   0.014889 0.493657 0.030011 -0.141389
C37   C     C_R   0.512507 0.999804 0.415789 0.630842
C38   C     C_R   0.491324 0.907001 0.580545 0.633533
C39   C     C_R   0.987505 0.502172 0.083327 0.630818
C40   C     C_R   0.012574 0.497051 0.916582 0.636991
C41   C     C_R   0.565861 0.027116 0.420746 -0.236860
C42   C     C_R   0.438265 0.873319 0.575428 -0.236573
C43   C     C_R   0.934830 0.542900 0.078441 -0.237130
C44   C     C_R   0.065252 0.456299 0.921489 -0.232092
H1    H     H_    0.584598 0.040932 0.378537 0.158601
H2    H     H_    0.421030 0.824120 0.616115 0.162733
H3    H     H_    0.915974 0.554309 0.120637 0.158602
H4    H     H_    0.084111 0.444694 0.879301 0.163254
H5    H     H_    0.408231 0.042086 0.368586 0.187545
H6    H     H_    0.588136 0.032464 0.634729 0.189503
H7    H     H_    0.091091 0.520847 0.134009 0.187337
H8    H     H_    0.908944 0.479342 0.865875 0.195043
H9    H     H_    0.281535 0.836464 0.460505 0.139373
H10   H     H_    0.721353 0.096037 0.537092 0.108384
H11   H     H_    0.219848 0.366578 0.037661 0.139404
H12   H     H_    0.780226 0.632976 0.962362 0.108510
H13   H     H_    0.667368 0.082459 0.437863 0.118302
H14   H     H_    0.337127 0.812033 0.558209 0.124266
H15   H     H_    0.834525 0.621925 0.061393 0.118437
H16   H     H_    0.165571 0.377316 0.938597 0.124698
C45   C     C_R   0.432804 0.797336 0.087279 -0.121663
C46   C     C_R   0.581513 0.201811 0.932277 -0.126641
C47   C     C_R   0.067172 0.297326 0.412693 -0.121546
C48   C     C_R   0.918477 0.701786 0.567708 -0.125321
H17   H     H_    0.455436 0.669828 0.078881 0.132149
H18   H     H_    0.570717 0.329381 0.957061 0.129818
H19   H     H_    0.044518 0.169819 0.421065 0.132105
H20   H     H_    0.929263 0.829313 0.542909 0.129373
C49   C     C_R   0.393252 0.783729 0.126820 -0.202930
C50   C     C_R   0.620369 0.216523 0.891849 -0.218843
C51   C     C_R   0.106725 0.283714 0.373153 -0.202728
C52   C     C_R   0.879621 0.716498 0.608135 -0.215952
H21   H     H_    0.386564 0.645651 0.148268 0.204852
H22   H     H_    0.638983 0.355266 0.886884 0.199849
H23   H     H_    0.113391 0.145631 0.351678 0.204635
H24   H     H_    0.860995 0.855194 0.613085 0.198873
C53   C     C_R   0.363049 0.946776 0.138833 -0.175789
C54   C     C_R   0.635683 0.053150 0.859243 -0.178071
C55   C     C_R   0.136955 0.446766 0.361173 -0.176353
C56   C     C_R   0.864320 0.553175 0.640759 -0.174038
C57   C     C_R   0.373585 0.123933 0.109570 0.605895
C58   C     C_R   0.610286 0.874852 0.867757 0.619581
C59   C     C_R   0.126449 0.623929 0.390472 0.605031
C60   C     C_R   0.889729 0.374934 0.632264 0.616808
C61   C     C_R   0.413154 0.136472 0.070357 -0.202300
C62   C     C_R   0.571642 0.861140 0.908220 -0.203132
C63   C     C_R   0.086880 0.636473 0.429685 -0.202127
C64   C     C_R   0.928374 0.361223 0.591802 -0.201063
H25   H     H_    0.420334 0.273836 0.048594 0.137515
H26   H     H_    0.552964 0.722731 0.914002 0.139795
H27   H     H_    0.079723 0.773841 0.451476 0.137905
H28   H     H_    0.947061 0.222858 0.586034 0.139886
C65   C     C_R   0.443015 0.974061 0.058937 0.035383
C66   C     C_R   0.557138 0.023655 0.940917 0.034869
C67   C     C_R   0.056989 0.474061 0.441069 0.035239
C68   C     C_R   0.942865 0.523683 0.559086 0.035617
C69   C     C_1   0.483627 0.990259 0.017749 -0.013731
C70   C     C_1   0.517202 0.006235 0.982969 -0.013764
C71   C     C_1   0.016376 0.490270 0.482255 -0.013251
C72   C     C_1   0.982801 0.506256 0.517035 -0.013259
F1    F     F_    0.489205 0.976556 0.357427 -0.703667
F2    F     F_    0.517629 0.858462 0.635618 -0.689065
F3    F     F_    0.009571 0.460455 0.141124 -0.704071
F4    F     F_    0.990510 0.538387 0.858757 -0.691233
F5    F     F_    0.345310 0.285703 0.117812 -0.705994
F6    F     F_    0.622144 0.713130 0.836537 -0.685941
F7    F     F_    0.154753 0.785699 0.382265 -0.705817
F8    F     F_    0.877879 0.213267 0.663498 -0.689210

loop_
_geom_bond_atom_site_label_1
_geom_bond_atom_site_label_2
_ccdc_geom_bond_type
O17   V3    S    
C48   C52   A    
O1    C5    A    
C47   H19   S    
O19   V1    S    
C9    C21   A    
C16   H16   S    
O3    C7    A    
C10   C18   A    
C56   C60   A    
C11   C23   A    
C62   C66   A    
C61   C65   A    
C71   C72   T    
C5    C12   S    
O7    C3    A    
C6    C11   S    
O5    C1    A    
C26   C30   A    
C36   C39   A    
C40   C44   A    
O9    V1    S    
C23   H8    S    
C14   C18   A    
C58   C62   A    
O4    C8    A    
C51   H23   S    
C44   H4    S    
C50   H22   S    
O1    V3    S    
O13   V1    S    
O2    V4    S    
C66   C70   S    
O3    V1    S    
C65   C69   S    
C46   C50   A    
C45   C49   A    
C1    O15   A    
C15   C31   A    
C48   H20   S    
C2    O16   A    
C16   C32   A    
C47   C51   A    
O2    C6    A    
C54   C58   A    
C10   C22   A    
C21   C25   A    
C48   C68   A    
C11   C19   A    
C62   H26   S    
C16   C20   A    
C43   H3    S    
C1    C55   S    
C13   C29   A    
C34   C37   A    
O11   C7    A    
O15   V3    S    
C35   C36   A    
O12   C8    A    
C14   H14   S    
O17   V1    S    
C24   H7    S    
C13   H13   S    
C47   C67   A    
O10   V2    S    
C51   C55   A    
O5    V1    S    
C53   C57   A    
C39   C43   A    
O7    V3    S    
C38   C42   A    
O19   V3    S    
C26   C34   A    
C33   C38   A    
C59   F7    S    
C46   H18   S    
C49   C53   A    
C17   H10   S    
C64   C68   A    
C45   H17   S    
O18   V4    S    
C57   F5    S    
C40   F4    S    
C19   H12   S    
C32   C44   A    
C60   C64   A    
C68   C72   S    
C21   H6    S    
O8    V4    S    
C4    C54   S    
C23   C27   A    
C63   H27   S    
C31   C43   A    
C14   C30   A    
O20   V4    S    
O8    C4    A    
C7    C10   S    
C35   C40   A    
O9    C5    A    
C3    C53   S    
C45   C65   A    
C69   C70   T    
O14   V2    S    
C63   C67   A    
O6    V2    S    
O18   V2    S    
C67   C71   S    
C46   C66   A    
C12   C20   A    
C27   C35   A    
C49   H21   S    
C64   H28   S    
C29   C41   A    
C38   F2    S    
O16   V4    S    
C58   F6    S    
C57   C61   A    
C3    O13   A    
C59   C63   A    
C20   H11   S    
O6    C2    A    
C25   C33   A    
C15   C19   A    
O11   V3    S    
C30   C42   A    
C61   H25   S    
O12   V4    S    
C22   C26   A    
C8    C9    S    
C55   C59   A    
C9    C17   A    
O10   C6    A    
C52   C56   A    
C15   H15   S    
O20   V2    S    
C33   C34   A    
C42   H2    S    
C41   H1    S    
C52   H24   S    
C2    C56   S    
C12   C24   A    
C27   C31   A    
C13   C17   A    
O4    V2    S    
C60   F8    S    
C25   C29   A    
C37   C41   A    
C24   C28   A    
C50   C54   A    
C18   H9    S    
C28   C36   A    
C4    O14   A    
C37   F1    S    
C22   H5    S    
C39   F3    S    
C28   C32   A    
