data_mof_unit_50486.cif
_audit_creation_date              2012-12-10T20:40:03-0500
_audit_creation_method            fapswitch 2.2
_symmetry_space_group_name_H-M    P1
_symmetry_Int_Tables_number       1
_space_group_crystal_system       triclinic
_cell_length_a                    23.278901
_cell_length_b                    10.711916
_cell_length_c                    9.874681
_cell_angle_alpha                 89.773987
_cell_angle_beta                  88.522305
_cell_angle_gamma                 89.832504
_cell_volume                      2461.51872848

loop_
_atom_site_label
_atom_site_type_symbol
_atom_type_description
_atom_site_fract_x
_atom_site_fract_y
_atom_site_fract_z
_atom_type_partial_charge
C1    C     C_R   0.499884 0.260350 0.500019 0.910428
C2    C     C_R   0.116877 0.556883 0.634248 0.518899
C3    C     C_R   0.241687 0.623645 0.571136 -0.236889
C4    C     C_R   0.389529 0.500595 0.501813 0.961474
C5    C     C_R   0.301201 0.613705 0.568076 0.134727
C6    C     C_R   0.327392 0.508648 0.507315 -0.167971
C7    C     C_R   0.294093 0.412076 0.453358 0.032731
C8    C     C_R   0.233909 0.421428 0.460845 0.530529
C9    C     C_R   0.208079 0.529795 0.516320 0.131540
C10   C     C_R   0.765733 0.446710 0.559795 -0.089440
C11   C     C_R   0.706759 0.427914 0.557779 -0.229339
C12   C     C_R   0.973190 0.567867 0.262134 -0.168711
C13   C     C_R   0.671918 0.516622 0.495935 0.001995
C14   C     C_R   0.695525 0.625467 0.439395 -0.211828
C15   C     C_R   0.754422 0.644850 0.442443 -0.100238
C16   C     C_R   0.499365 0.739909 0.499139 0.917558
C17   C     C_R   0.789605 0.555267 0.502304 0.298471
C18   C     C_R   0.526059 0.062870 0.603492 0.070423
C19   C     C_R   0.502743 0.128745 0.496834 -0.160507
C20   C     C_R   0.485493 0.066891 0.380267 -0.334404
C21   C     C_R   0.485506 0.937406 0.376532 0.514323
C22   C     C_R   0.501994 0.872101 0.494115 -0.264080
C23   C     C_R   0.032861 0.564454 0.263908 -0.159272
C24   C     C_R   0.525951 0.935286 0.601601 0.046623
C25   C     C_3   0.512731 0.927472 0.750967 0.049180
C26   C     C_3   0.512675 0.069361 0.752361 -0.472278
C27   C     C_R   0.449955 0.485790 0.074197 0.139952
C28   C     C_R   0.610448 0.501042 0.498539 0.855870
C29   C     C_R   0.548730 0.528428 0.068680 0.553796
C30   C     C_R   0.548605 0.524400 0.924114 -0.287731
C31   C     C_R   0.449906 0.486464 0.931877 0.203418
C32   C     C_3   0.410096 0.377825 0.928779 -0.491226
C33   C     C_3   0.410285 0.376968 0.082644 -0.462267
C34   C     C_R   0.061146 0.564684 0.387613 -0.021329
C35   C     C_R   0.876255 0.585021 0.625728 0.525786
C36   C     C_R   0.880905 0.570294 0.384010 0.499751
C37   C     C_R   0.940796 0.573839 0.383808 0.010304
C38   C     C_R   0.968737 0.579074 0.508673 -0.081956
C39   C     C_R   0.936485 0.587184 0.631601 -0.138908
C40   C     C_3   0.487590 0.909184 0.144948 -0.268335
C41   C     C_3   0.617803 0.885660 0.783760 -0.738945
C42   C     C_3   0.625496 0.661177 0.089788 -0.304273
C43   C     C_3   0.938810 0.726477 0.925264 -0.245968
C44   C     C_3   0.350770 0.807310 0.525805 -0.754066
C45   C     C_R   0.029080 0.572969 0.510339 -0.026852
C46   C     C_3   0.340918 0.211962 0.483876 -0.788562
C47   C     C_3   0.176150 0.255729 0.512969 -0.280413
C48   C     C_R   0.057219 0.571943 0.634640 -0.093587
C49   C     C_R   0.025278 0.583464 0.756188 -0.261076
C50   C     C_R   0.965400 0.594572 0.755728 0.541632
C51   C     C_R   0.120887 0.554270 0.392065 0.574523
H1    H     H_    0.952549 0.563509 0.165342 0.217958
H2    H     H_    0.587886 0.538755 0.865875 0.186465
H3    H     H_    0.367710 0.403612 0.887319 0.215486
H4    H     H_    0.430472 0.293819 0.882507 0.201680
H5    H     H_    0.367973 0.402284 0.129656 0.224519
H6    H     H_    0.430849 0.292457 0.125967 0.202979
H7    H     H_    0.046457 0.583114 0.852632 0.202339
H8    H     H_    0.221333 0.706371 0.613427 0.178271
H9    H     H_    0.792987 0.377291 0.605959 0.146232
H10   H     H_    0.480181 0.833819 0.070720 0.177432
H11   H     H_    0.534970 0.920631 0.152433 0.152967
H12   H     H_    0.688345 0.344543 0.603493 0.142052
H13   H     H_    0.467892 0.995748 0.104546 0.159018
H14   H     H_    0.549067 0.781780 0.860412 0.225318
H15   H     H_    0.646668 0.854120 0.864814 0.224212
H16   H     H_    0.627908 0.984700 0.760428 0.245626
H17   H     H_    0.626367 0.827536 0.692429 0.237488
H18   H     H_    0.594171 0.739464 0.083289 0.139660
H19   H     H_    0.648746 0.646899 0.991525 0.169710
H20   H     H_    0.658227 0.688927 0.163055 0.197950
H21   H     H_    0.910542 0.735842 0.016848 0.212136
H22   H     H_    0.923424 0.794795 0.848829 0.163558
H23   H     H_    0.668151 0.696627 0.396855 0.130590
H24   H     H_    0.983318 0.749445 0.954908 0.135452
H25   H     H_    0.316883 0.748844 0.710545 0.235298
H26   H     H_    0.311915 0.856696 0.489934 0.239398
H27   H     H_    0.374431 0.765906 0.437748 0.271193
H28   H     H_    0.379092 0.876274 0.574426 0.224451
H29   H     H_    0.298616 0.268961 0.312217 0.273324
H30   H     H_    0.303928 0.168419 0.538988 0.239622
H31   H     H_    0.370588 0.252357 0.558093 0.233766
H32   H     H_    0.364354 0.138081 0.426351 0.244411
H33   H     H_    0.138223 0.304053 0.558828 0.175459
H34   H     H_    0.772729 0.729412 0.399407 0.142127
H35   H     H_    0.207372 0.232071 0.592808 0.147680
H36   H     H_    0.160870 0.166503 0.470332 0.194283
H37   H     H_    0.468020 0.118620 0.296302 0.177228
H38   H     H_    0.469745 0.886912 0.776102 0.126638
H39   H     H_    0.469371 0.109229 0.774869 0.169315
H40   H     H_    0.547906 0.112304 0.809830 0.213539
H41   H     H_    0.056604 0.558478 0.168331 0.195846
N1    N     N_R   0.850255 0.573238 0.503810 -0.364775
N2    N     N_R   0.147224 0.547078 0.514134 -0.335925
N3    N     N_R   0.499610 0.499140 0.142800 -0.149932
N4    N     N_R   0.499610 0.499180 0.857150 -0.130082
N5    N     N_2   0.558434 0.871609 0.829756 -0.301322
N6    N     N_2   0.334684 0.711397 0.622916 -0.298194
N7    N     N_2   0.321116 0.306560 0.390819 -0.292804
O1    O     O_R   0.500010 0.316790 0.614690 -0.622105
O2    O     O_R   0.583850 0.500060 0.614640 -0.632409
O3    O     O_R   0.583840 0.500020 0.385300 -0.543816
O4    O     O_2   0.843581 0.592950 0.740257 -0.493664
O5    O     O_3   0.460877 0.874799 0.269583 -0.596357
O6    O     O_3   0.599232 0.549635 0.135777 -0.563026
O7    O     O_3   0.935316 0.602717 0.877976 -0.558127
O8    O     O_3   0.200938 0.327545 0.406643 -0.589821
O9    O     O_2   0.853407 0.560583 0.265800 -0.541899
O10   O     O_2   0.152513 0.550930 0.275598 -0.527468
O11   O     O_2   0.144350 0.549793 0.752788 -0.556097
O12   O     O_R   0.500000 0.316760 0.385350 -0.621837
O13   O     O_R   0.416160 0.499980 0.614700 -0.613680
O14   O     O_R   0.416150 0.499940 0.385360 -0.606896
O15   O     O_R   0.500000 0.683240 0.614650 -0.624286
O16   O     O_R   0.499990 0.683210 0.385310 -0.564993
Zn1   Zn    Zn3+2 0.500000 0.500020 0.653130 0.941167
Zn2   Zn    Zn3+2 0.500000 0.499980 0.346870 1.012187

loop_
_geom_bond_atom_site_label_1
_geom_bond_atom_site_label_2
_ccdc_geom_bond_type
C43   H22   S    
C46   N7    S    
C8    O8    S    
C43   H21   S    
C36   O9    S    
C27   N3    A    
C19   C20   A    
C18   C26   S    
C7    C8    A    
C41   H16   S    
C27   C33   S    
C12   C23   A    
C34   C51   A    
C37   C38   A    
C7    N7    S    
C18   C24   A    
C14   H23   S    
C36   C37   A    
C35   O4    S    
C38   C39   A    
C10   C17   A    
H25   N6    S    
C31   N4    A    
C42   H19   S    
C40   H11   S    
C18   C19   A    
C12   C37   A    
C38   C45   A    
C30   N4    A    
C46   H31   S    
C21   O5    S    
C44   N6    S    
C28   O2    A    
C8    C9    A    
O16   Zn2   S    
O1    Zn1   S    
C33   H6    S    
C13   C28   S    
C32   H4    S    
C15   H34   S    
C33   H5    S    
C4    O13   A    
C51   O10   S    
C21   C22   A    
C29   O6    S    
C36   N1    A    
C1    O1    A    
C32   H3    S    
C12   H1    S    
C41   H17   S    
C35   N1    A    
C43   H24   S    
C30   H2    S    
C1    C19   S    
C27   C31   A    
C47   H35   S    
C4    O14   A    
C2    N2    A    
C24   C25   S    
C4    C6    S    
C29   N3    A    
C2    C48   A    
C26   H40   S    
C42   H18   S    
N3    Zn2   S    
C49   H7    S    
C43   O7    S    
C47   H36   S    
C10   H9    S    
C29   C30   A    
C3    C9    A    
C40   O5    S    
C46   H30   S    
C31   C32   S    
C23   C34   A    
C34   C45   A    
C47   H33   S    
C5    N6    S    
C41   H15   S    
O3    Zn2   S    
O14   Zn2   S    
C25   N5    S    
C48   C49   A    
C47   O8    S    
H29   N7    S    
C41   N5    S    
C17   N1    S    
C16   O16   A    
O13   Zn1   S    
C45   C48   A    
C15   C17   A    
C2    O11   S    
C16   C22   S    
C14   C15   A    
C44   H28   S    
C3    C5    A    
C16   O15   A    
O15   Zn1   S    
C6    C7    A    
C26   H39   S    
C44   H26   S    
C25   H38   S    
C40   H13   S    
O12   Zn2   S    
C32   C33   S    
C44   H27   S    
C25   C26   S    
H14   N5    S    
C1    O12   A    
C11   C13   A    
C5    C6    A    
C35   C39   A    
C20   H37   S    
C42   H20   S    
C22   C24   A    
C42   O6    S    
C10   C11   A    
C40   H10   S    
C51   N2    A    
C46   H32   S    
C28   O3    A    
C39   C50   A    
C20   C21   A    
C49   C50   A    
C50   O7    S    
O2    Zn1   S    
C23   H41   S    
N4    Zn1   S    
C13   C14   A    
C11   H12   S    
C9    N2    S    
C3    H8    S    
