data_mof_unit_39420.cif
_audit_creation_date              2012-12-11T15:24:42-0500
_audit_creation_method            fapswitch 2.2
_symmetry_space_group_name_H-M    P1
_symmetry_Int_Tables_number       1
_space_group_crystal_system       triclinic
_cell_length_a                    22.916496
_cell_length_b                    6.952973
_cell_length_c                    20.726329
_cell_angle_alpha                 89.931531
_cell_angle_beta                  93.281601
_cell_angle_gamma                 90.063797
_cell_volume                      3297.06779473

loop_
_atom_site_label
_atom_site_type_symbol
_atom_type_description
_atom_site_fract_x
_atom_site_fract_y
_atom_site_fract_z
_atom_type_partial_charge
O1    O     O_R   0.188030 0.379840 0.189340 -0.539928
O2    O     O_R   0.811970 0.620160 0.810660 -0.540394
O3    O     O_R   0.311970 0.879840 0.310660 -0.539767
O4    O     O_R   0.688030 0.120160 0.689340 -0.539243
O5    O     O_R   0.307090 0.708420 0.185790 -0.535061
O6    O     O_R   0.692910 0.291580 0.814210 -0.534491
O7    O     O_R   0.192910 0.208420 0.314210 -0.535846
O8    O     O_R   0.807090 0.791580 0.685790 -0.537394
C1    C     C_R   0.326698 0.540788 0.170635 0.726442
C2    C     C_R   0.673490 0.459134 0.829572 0.728488
C3    C     C_R   0.173260 0.040497 0.329296 0.727384
C4    C     C_R   0.826512 0.959532 0.670508 0.727641
O9    O     O_R   0.188180 0.709480 0.181650 -0.540208
O10   O     O_R   0.811820 0.290520 0.818350 -0.540136
O11   O     O_R   0.311820 0.209480 0.318350 -0.540208
O12   O     O_R   0.688180 0.790520 0.681650 -0.539787
O13   O     O_R   0.192210 0.880960 0.306500 -0.536457
O14   O     O_R   0.807790 0.119040 0.693500 -0.537066
O15   O     O_R   0.307790 0.380960 0.193500 -0.536875
O16   O     O_R   0.692210 0.619040 0.806500 -0.536551
C5    C     C_R   0.167552 0.540497 0.165700 0.706396
C6    C     C_R   0.832401 0.459606 0.834336 0.704219
C7    C     C_R   0.332383 0.040459 0.334373 0.706689
C8    C     C_R   0.667789 0.959538 0.665428 0.708099
O17   O     O_3   0.251460 0.546730 0.290970 -0.368768
O18   O     O_3   0.748540 0.453270 0.709030 -0.368696
O19   O     O_3   0.248540 0.046730 0.209030 -0.368838
O20   O     O_3   0.751460 0.953270 0.790970 -0.368057
V1    V     V_3+5 0.249730 0.821120 0.242400 1.427106
V2    V     V_3+5 0.750270 0.178880 0.757600 1.422904
V3    V     V_3+5 0.250270 0.321120 0.257600 1.425543
V4    V     V_3+5 0.749730 0.678880 0.742400 1.418562
C9    C     C_R   0.574452 0.831772 0.614048 -0.186376
C10   C     C_R   0.426234 0.167244 0.385100 -0.185739
C11   C     C_R   0.925950 0.332771 0.885501 -0.187218
C12   C     C_R   0.074003 0.668156 0.114519 -0.184769
C13   C     C_R   0.618846 0.970447 0.615742 -0.078920
C14   C     C_R   0.381657 0.029126 0.383675 -0.078275
C15   C     C_R   0.881591 0.471218 0.883700 -0.077457
C16   C     C_R   0.118299 0.529345 0.116365 -0.078936
C17   C     C_R   0.615764 0.122036 0.570823 -0.224942
C18   C     C_R   0.384997 0.876795 0.428297 -0.225255
C19   C     C_R   0.885039 0.624042 0.928037 -0.225568
C20   C     C_R   0.114796 0.376812 0.071979 -0.225895
C21   C     C_R   0.570371 0.131303 0.521781 0.047503
C22   C     C_R   0.430640 0.866666 0.477004 0.046907
C23   C     C_R   0.930357 0.633706 0.977138 0.046672
C24   C     C_R   0.069490 0.367590 0.022868 0.046744
C25   C     C_R   0.524469 0.994004 0.522397 0.020056
C26   C     C_R   0.476569 0.003863 0.476315 0.019830
C27   C     C_R   0.976064 0.495891 0.976864 0.020332
C28   C     C_R   0.023794 0.505348 0.023161 0.019482
C29   C     C_R   0.526591 0.845683 0.569008 0.086554
C30   C     C_R   0.474374 0.152452 0.429789 0.086458
C31   C     C_R   0.973884 0.347272 0.930434 0.087496
C32   C     C_R   0.026021 0.653868 0.069590 0.086843
C33   C     C_R   0.568966 0.274602 0.472659 -0.010386
C34   C     C_R   0.432184 0.722896 0.525975 -0.010007
C35   C     C_R   0.931827 0.777446 0.026083 -0.010972
C36   C     C_R   0.068084 0.224207 0.973879 -0.010331
C37   C     C_R   0.520358 0.284607 0.428207 -0.232609
C38   C     C_R   0.480738 0.713133 0.570464 -0.232297
C39   C     C_R   0.980261 0.786572 0.070821 -0.232304
C40   C     C_R   0.019674 0.214709 0.929177 -0.233320
H1    H     H_    0.576291 0.716145 0.649276 0.118017
H2    H     H_    0.424272 0.283190 0.349995 0.117709
H3    H     H_    0.923985 0.216757 0.850503 0.117693
H4    H     H_    0.076054 0.784280 0.149469 0.118945
H5    H     H_    0.649383 0.231278 0.574444 0.139352
H6    H     H_    0.351324 0.767745 0.424758 0.139510
H7    H     H_    0.851690 0.733809 0.923930 0.139876
H8    H     H_    0.148121 0.266931 0.076019 0.140032
H9    H     H_    0.518951 0.394308 0.390902 0.130337
H10   H     H_    0.482164 0.603404 0.607763 0.130902
H11   H     H_    0.981737 0.896127 0.108087 0.131163
H12   H     H_    0.018274 0.105121 0.891919 0.131722
C41   C     C_3   0.042085 0.115016 0.523602 -0.233506
C42   C     C_3   0.957314 0.875915 0.475855 -0.277471
C43   C     C_3   0.451074 0.555985 0.968269 -0.284701
C44   C     C_3   0.550754 0.438856 0.033764 -0.280726
C45   C     C_3   0.020786 0.929302 0.556086 0.511055
C46   C     C_3   0.978440 0.061753 0.443716 0.507263
C47   C     C_3   0.486683 0.373119 0.955002 0.501364
C48   C     C_3   0.515079 0.621822 0.047078 0.513816
H13   H     H_    0.077498 0.210602 0.543580 0.126525
H14   H     H_    0.921985 0.779843 0.455978 0.126080
H15   H     H_    0.410038 0.600953 0.941559 0.131126
H16   H     H_    0.591931 0.392242 0.059943 0.122024
H17   H     H_    0.040681 0.672649 0.482992 0.131053
H18   H     H_    0.959229 0.320603 0.514253 0.129525
H19   H     H_    0.485401 0.177585 0.048753 0.151963
H20   H     H_    0.516879 0.817899 0.954126 0.150042
C49   C     C_1   0.871564 0.970009 0.624409 -0.209241
C50   C     C_1   0.127767 0.029690 0.375024 -0.189614
C51   C     C_1   0.628589 0.468300 0.876000 -0.191288
C52   C     C_1   0.372173 0.530845 0.124864 -0.191416
C53   C     C_3   0.977453 0.174499 0.507764 -0.293226
C54   C     C_3   0.022387 0.817483 0.491615 -0.289075
C55   C     C_3   0.509057 0.673127 0.974583 -0.271309
C56   C     C_3   0.492727 0.321775 0.027587 -0.280365
C57   C     C_3   0.957005 0.988175 0.540646 0.050661
C58   C     C_3   0.042343 0.004639 0.458890 0.076497
C59   C     C_3   0.543876 0.488111 0.960786 0.068162
C60   C     C_3   0.457837 0.507119 0.041284 0.063785
C61   C     C_1   0.909786 0.978920 0.586360 -0.027043
C62   C     C_1   0.089368 0.018651 0.412896 0.008751
C63   C     C_1   0.590659 0.476704 0.914475 0.005089
C64   C     C_1   0.410618 0.520622 0.087035 0.004349
C65   C     C_R   0.617837 0.412424 0.464330 0.102453
C66   C     C_R   0.675741 0.347463 0.460634 -0.143838
C67   C     C_R   0.721006 0.478101 0.451634 -0.115232
C68   C     C_R   0.708826 0.674003 0.444428 -0.101842
C69   C     C_R   0.651313 0.739272 0.445924 -0.109299
C70   C     C_R   0.606069 0.609464 0.455681 -0.115585
H21   H     H_    0.685996 0.195963 0.464759 0.098013
H22   H     H_    0.765497 0.427142 0.449872 0.104357
H23   H     H_    0.743842 0.774885 0.437045 0.096154
H24   H     H_    0.641616 0.890226 0.439048 0.113991
H25   H     H_    0.561733 0.662295 0.455995 0.119907
C71   C     C_R   0.383540 0.584185 0.534164 0.101260
C72   C     C_R   0.395663 0.387301 0.542545 -0.114571
C73   C     C_R   0.350677 0.256456 0.552175 -0.110129
C74   C     C_R   0.293080 0.320584 0.553937 -0.103072
C75   C     C_R   0.280568 0.516413 0.547256 -0.110846
C76   C     C_R   0.325574 0.648046 0.538225 -0.145415
H26   H     H_    0.440095 0.335462 0.542192 0.120312
H27   H     H_    0.360634 0.105619 0.558844 0.115547
H28   H     H_    0.258271 0.218892 0.561260 0.104394
H29   H     H_    0.236031 0.566504 0.549577 0.108311
H30   H     H_    0.315096 0.799465 0.534473 0.100217
C77   C     C_R   0.883368 0.917233 0.033829 0.103353
C78   C     C_R   0.824969 0.855167 0.035962 -0.145150
C79   C     C_R   0.780133 0.988168 0.043588 -0.113502
C80   C     C_R   0.793208 0.183186 0.051605 -0.101806
C81   C     C_R   0.851162 0.245414 0.052164 -0.110045
C82   C     C_R   0.895970 0.113531 0.043359 -0.114387
H31   H     H_    0.813980 0.704173 0.031497 0.097952
H32   H     H_    0.735229 0.939981 0.043566 0.106467
H33   H     H_    0.758514 0.285748 0.058018 0.097844
H34   H     H_    0.861469 0.395734 0.059742 0.115707
H35   H     H_    0.940619 0.164294 0.044400 0.119632
C83   C     C_R   0.116795 0.085840 0.965993 0.103324
C84   C     C_R   0.104762 0.889048 0.957058 -0.113847
C85   C     C_R   0.149975 0.758539 0.948503 -0.108714
C86   C     C_R   0.207717 0.822844 0.948555 -0.097130
C87   C     C_R   0.220154 0.018604 0.955804 -0.116207
C88   C     C_R   0.174929 0.149956 0.963403 -0.145969
H36   H     H_    0.060275 0.836882 0.956355 0.119579
H37   H     H_    0.140116 0.607732 0.941470 0.114464
H38   H     H_    0.242699 0.721282 0.942311 0.099726
H39   H     H_    0.264809 0.069043 0.955252 0.107840
H40   H     H_    0.185425 0.301342 0.967565 0.098487
O21   O     O_3   0.043525 0.879991 0.618877 -0.575949
C89   C     C_3   0.043926 0.678962 0.629366 0.077374
H41   H     H_    0.074651 0.651695 0.671801 0.154883
H42   H     H_    0.061705 0.597370 0.588840 0.095608
C90   C     C_3   0.983351 0.603880 0.645118 -0.331747
H43   H     H_    0.963812 0.701872 0.680282 0.211882
H44   H     H_    0.954481 0.599550 0.600244 0.186898
C91   C     C_3   0.986761 0.402212 0.674283 -0.802965
H45   H     H_    0.008147 0.301890 0.641466 0.254568
H46   H     H_    0.941982 0.348798 0.681898 0.231558
H47   H     H_    0.011978 0.404835 0.721671 0.229764
O22   O     O_3   0.958716 0.127938 0.381871 -0.569126
C92   C     C_3   0.900493 0.192761 0.383500 0.071007
H48   H     H_    0.898769 0.325829 0.413151 0.115649
H49   H     H_    0.871893 0.080537 0.403689 0.109759
C93   C     C_3   0.877241 0.239095 0.314656 -0.272734
H50   H     H_    0.906009 0.347846 0.293184 0.204188
H51   H     H_    0.877767 0.106479 0.284780 0.200184
C94   C     C_3   0.814977 0.317376 0.313440 -0.848979
H52   H     H_    0.785336 0.211524 0.334945 0.230992
H53   H     H_    0.799033 0.345401 0.262697 0.237590
H54   H     H_    0.813934 0.454472 0.340808 0.228822
O23   O     O_3   0.475459 0.241593 0.903991 -0.571282
C95   C     C_3   0.419767 0.158264 0.908970 0.060355
H55   H     H_    0.385131 0.270506 0.904589 0.118439
H56   H     H_    0.417154 0.080951 0.955829 0.120311
C96   C     C_3   0.409145 0.013495 0.854108 -0.269600
H57   H     H_    0.413711 0.086827 0.806966 0.204449
H58   H     H_    0.442404 0.897376 0.858973 0.199396
C97   C     C_3   0.348290 0.924569 0.854783 -0.859645
H59   H     H_    0.342201 0.853386 0.901898 0.221353
H60   H     H_    0.342831 0.815349 0.815864 0.238405
H61   H     H_    0.314344 0.037117 0.846323 0.236297
O24   O     O_3   0.526312 0.757401 0.096927 -0.573699
C98   C     C_3   0.585708 0.814177 0.100315 0.063368
H62   H     H_    0.587227 0.973592 0.103804 0.137367
H63   H     H_    0.609812 0.775550 0.056830 0.104781
C99   C     C_3   0.616521 0.729317 0.161351 -0.295193
H64   H     H_    0.596197 0.788031 0.204592 0.203936
H65   H     H_    0.611020 0.570564 0.161527 0.192397
C100  C     C_3   0.681654 0.776572 0.165607 -0.844698
H66   H     H_    0.703420 0.707559 0.125098 0.224868
H67   H     H_    0.701937 0.720571 0.211809 0.238796
H68   H     H_    0.688516 0.934663 0.163914 0.233259

loop_
_geom_bond_atom_site_label_1
_geom_bond_atom_site_label_2
_ccdc_geom_bond_type
C34   C38   A    
C55   C59   S    
C94   H52   S    
O1    C5    A    
C92   H48   S    
C47   O23   S    
O19   V1    S    
O13   V1    S    
O3    C7    A    
C67   C68   A    
C56   C60   S    
C44   C48   S    
O4    V2    S    
O15   V3    S    
C10   H2    S    
C43   H15   S    
C86   C87   A    
C9    H1    S    
C74   C75   A    
C45   C57   S    
O7    C3    A    
C94   H53   S    
C35   C77   S    
C90   H43   S    
C47   C59   S    
C72   C73   A    
O9    V1    S    
O22   C92   S    
C14   C18   A    
C24   C28   A    
C68   H23   S    
O4    C8    A    
C45   C54   S    
C97   H60   S    
C84   C85   A    
O1    V3    S    
C45   O21   S    
O17   V3    S    
O2    V4    S    
C18   C22   A    
C73   H27   S    
O3    V1    S    
C97   H59   S    
C98   C99   S    
C99   C100  S    
C36   C83   S    
C66   C67   A    
C48   O24   S    
C76   H30   S    
C1    O15   A    
C95   C96   S    
C33   C65   S    
C2    O16   A    
C78   C79   A    
C100  H67   S    
C42   C54   S    
C99   H65   S    
C41   C53   S    
C67   H22   S    
O14   V2    S    
C41   C45   S    
H19   C56   S    
H18   C53   S    
C89   H42   S    
C70   H25   S    
C100  H66   S    
C96   C97   S    
C49   C61   T    
C69   H24   S    
C42   H14   S    
C93   H51   S    
C52   C64   T    
C41   H13   S    
C79   H32   S    
O12   C8    A    
C22   C34   A    
C42   C57   S    
O17   V1    S    
C41   C58   S    
C81   H34   S    
O10   V2    S    
C68   C69   A    
C24   C36   A    
O5    V1    S    
C93   C94   S    
C9    C29   A    
C84   H36   S    
C94   H54   S    
C75   C76   A    
C57   C61   S    
O7    V3    S    
C44   C59   S    
C11   C31   A    
C27   C28   A    
O8    V4    S    
C91   H47   S    
C81   C82   A    
C89   C90   S    
C8    C13   S    
C77   C82   A    
C80   H33   S    
C71   C76   A    
C15   C19   A    
C37   H9    S    
C78   H31   S    
C54   C58   S    
O19   V3    S    
C9    C13   A    
C96   H57   S    
C97   H61   S    
C91   H46   S    
C90   H44   S    
C11   C15   A    
C99   H64   S    
O5    C1    A    
C82   H35   S    
C12   C32   A    
C18   H6    S    
C29   C38   A    
C42   C46   S    
O23   C95   S    
O20   V4    S    
O8    C4    A    
C100  H68   S    
C21   C33   A    
C31   C40   A    
C34   C71   S    
C21   C25   A    
C46   C58   S    
C32   C39   A    
O9    C5    A    
C26   C30   A    
C33   C37   A    
C1    C52   S    
C89   H41   S    
C69   C70   A    
C51   C63   T    
C65   C70   A    
O24   C98   S    
C3    C50   S    
C95   H55   S    
O6    V2    S    
C10   C30   A    
C92   C93   S    
C47   C56   S    
C79   C80   A    
C48   C60   S    
C46   C53   S    
C43   C60   S    
C77   C78   A    
C60   C64   S    
C12   C16   A    
C71   C72   A    
C17   H5    S    
C87   C88   A    
O16   V4    S    
C43   C55   S    
C93   H50   S    
C19   H7    S    
C85   H37   S    
C10   C14   A    
C48   C55   S    
C83   C88   A    
C86   H38   S    
C85   C86   A    
C3    O13   A    
O6    C2    A    
C23   C27   A    
C12   H4    S    
O11   V3    S    
C80   C81   A    
O18   V4    S    
C30   C37   A    
C90   C91   S    
O12   V4    S    
C7    C14   S    
C22   C26   A    
C35   C39   A    
H17   C54   S    
C36   C40   A    
C59   C63   S    
C91   H45   S    
O10   C6    A    
O20   V2    S    
C88   H40   S    
C73   C74   A    
C72   H26   S    
C44   H16   S    
O2    C6    A    
C43   C47   S    
C74   H28   S    
C5    C16   S    
C39   H11   S    
C2    C51   S    
C25   C29   A    
C6    C15   S    
O11   C7    A    
C75   H29   S    
C20   H8    S    
C27   C31   A    
C13   C17   A    
C4    C49   S    
C53   C57   S    
C98   H63   S    
C50   C62   T    
C11   H3    S    
C23   C35   A    
C87   H39   S    
C46   O22   S    
C28   C32   A    
C16   C20   A    
C92   H49   S    
C25   C26   A    
C58   C62   S    
C4    O14   A    
C17   C21   A    
C83   C84   A    
C38   H10   S    
C98   H62   S    
C40   H12   S    
O21   C89   S    
C65   C66   A    
C19   C23   A    
C66   H21   S    
C44   C56   S    
C20   C24   A    
H20   C55   S    
C95   H56   S    
C96   H58   S    
O18   V2    S    
