data_mof_unit_10864.cif
_audit_creation_date              2012-12-10T17:29:13-0500
_audit_creation_method            fapswitch 2.2
_symmetry_space_group_name_H-M    P1
_symmetry_Int_Tables_number       1
_space_group_crystal_system       triclinic
_cell_length_a                    12.045181
_cell_length_b                    12.82059
_cell_length_c                    13.140446
_cell_angle_alpha                 86.941891
_cell_angle_beta                  113.676915
_cell_angle_gamma                 93.42596
_cell_volume                      1854.14160195

loop_
_atom_site_label
_atom_site_type_symbol
_atom_type_description
_atom_site_fract_x
_atom_site_fract_y
_atom_site_fract_z
_atom_type_partial_charge
C1    C     C_R   0.476630 0.299702 0.497123 0.901269
C2    C     C_R   0.610617 0.528134 0.826648 -0.126137
C3    C     C_R   0.534319 0.811921 0.497507 -0.042633
C4    C     C_R   0.567374 0.506991 0.707784 0.870978
C5    C     C_R   0.460772 0.188495 0.495998 -0.039213
C6    C     C_R   0.389609 0.029630 0.559640 -0.223778
C7    C     C_R   0.390449 0.137478 0.547752 -0.201122
C8    C     C_R   0.524413 0.133080 0.450258 -0.296321
C9    C     C_R   0.527850 0.025987 0.465249 0.179608
C10   C     C_R   0.460216 0.974013 0.520815 0.186970
C11   C     C_R   0.464324 0.867170 0.536737 -0.288873
C12   C     C_R   0.558637 0.541410 0.985464 0.084630
C13   C     C_R   0.604473 0.862924 0.445554 -0.203378
C14   C     C_R   0.600655 0.970466 0.428757 -0.234195
C15   C     C_R   0.009932 0.604918 0.400140 -0.333986
C16   C     C_R   0.522552 0.700434 0.501432 0.869295
C17   C     C_R   0.129865 0.593904 0.409964 0.008395
C18   C     C_R   0.157441 0.454576 0.541821 -0.034892
C19   C     C_R   0.037574 0.462819 0.534164 0.079766
C20   C     C_R   0.962349 0.538894 0.463046 0.091732
C21   C     C_R   0.842057 0.546329 0.457185 -0.085522
C22   C     C_R   0.872920 0.405099 0.588456 0.133708
C23   C     C_R   0.530134 0.561223 0.871582 0.090711
C24   C     C_R   0.991875 0.396282 0.596293 -0.366660
C25   C     C_R   0.433311 0.505185 0.291195 0.870105
C26   C     C_R   0.265315 0.604494 0.997448 -0.203665
C27   C     C_R   0.394812 0.523255 0.171969 -0.056842
C28   C     C_R   0.730088 0.507512 0.898220 -0.195640
C29   C     C_R   0.764892 0.504309 0.012568 -0.156276
C30   C     C_R   0.679133 0.517044 0.056281 -0.193075
C31   C     C_R   0.835801 0.331597 0.659745 0.182507
C32   C     C_R   0.871082 0.353595 0.771862 -0.160177
C33   C     C_R   0.849265 0.279734 0.844671 -0.146383
C34   C     C_R   0.465856 0.548059 0.024269 0.076387
C35   C     C_R   0.797241 0.181413 0.806789 -0.115311
C36   C     C_R   0.770493 0.156034 0.697115 -0.140736
C37   C     C_R   0.791999 0.230226 0.624366 -0.128021
C38   C     C_R   0.355072 0.594204 0.956280 0.179643
C39   C     C_R   0.336736 0.630380 0.849114 -0.262207
C40   C     C_R   0.422998 0.613901 0.806947 -0.203040
C41   C     C_R   0.479465 0.506582 0.128106 -0.266944
C42   C     C_R   0.286157 0.570854 0.106172 -0.201984
H1    H     H_    0.219685 0.584750 0.139569 0.151306
H2    H     H_    0.165513 0.645139 0.361128 0.131882
H3    H     H_    0.254721 0.669470 0.797058 0.150023
H4    H     H_    0.215459 0.396124 0.596953 0.127420
H5    H     H_    0.180953 0.640950 0.946805 0.134452
H6    H     H_    0.557348 0.461809 0.177386 0.155543
H7    H     H_    0.796391 0.493628 0.865937 0.153892
H8    H     H_    0.710524 0.512322 0.145728 0.132730
H9    H     H_    0.857594 0.488389 0.067322 0.140145
H10   H     H_    0.406235 0.645800 0.724500 0.175782
H11   H     H_    0.411535 0.826602 0.578158 0.147069
H12   H     H_    0.658046 0.819391 0.414455 0.152725
H13   H     H_    0.919172 0.426847 0.803086 0.112919
H14   H     H_    0.875000 0.297947 0.930881 0.134390
H15   H     H_    0.781053 0.123925 0.863198 0.129833
H16   H     H_    0.735044 0.078403 0.669141 0.147697
H17   H     H_    0.775935 0.208671 0.540954 0.118750
H18   H     H_    0.337006 0.990176 0.601658 0.139426
H19   H     H_    0.653672 0.009960 0.387174 0.139583
H20   H     H_    0.340440 0.181088 0.582600 0.151864
H21   H     H_    0.575266 0.173879 0.407210 0.143328
H22   H     H_    0.783664 0.604779 0.402520 0.130777
H23   H     H_    0.955183 0.664491 0.343892 0.144749
H24   H     H_    0.048839 0.337074 0.651608 0.152054
N1    N     N_R   0.798200 0.480260 0.519790 -0.112532
N2    N     N_R   0.201820 0.519740 0.480210 -0.101082
O1    O     O_R   0.579910 0.341070 0.505280 -0.613899
O2    O     O_R   0.388440 0.353740 0.492580 -0.621071
O3    O     O_R   0.643280 0.490550 0.663120 -0.604890
O4    O     O_R   0.451810 0.503220 0.650420 -0.620932
O5    O     O_R   0.611560 0.646260 0.507420 -0.623981
O6    O     O_R   0.420090 0.658930 0.494720 -0.632127
O7    O     O_R   0.548190 0.496780 0.349580 -0.622447
O8    O     O_R   0.356720 0.509450 0.336880 -0.617054
Zn1   Zn    Zn3+2 0.627850 0.491540 0.508480 0.941199
Zn2   Zn    Zn3+2 0.372150 0.508460 0.491520 0.931787

loop_
_geom_bond_atom_site_label_1
_geom_bond_atom_site_label_2
_ccdc_geom_bond_type
O2    Zn2   S    
O1    Zn1   S    
C35   C36   A    
N1    Zn1   S    
C4    O4    A    
C12   C23   A    
C16   O6    A    
C36   C37   A    
O8    Zn2   S    
C36   H16   S    
C38   C39   A    
C18   N2    A    
C23   C40   A    
C15   H23   S    
C18   C19   A    
C21   H22   S    
O4    Zn2   S    
C19   C20   A    
C8    C9    A    
C9    C10   A    
C32   H13   S    
C3    C13   A    
C24   H24   S    
C39   H3    S    
C33   H14   S    
C30   H8    S    
C13   C14   A    
C21   N1    A    
C34   C41   A    
C18   H4    S    
N2    Zn2   S    
C15   C20   A    
C22   C31   S    
C16   O5    A    
C6    H18   S    
C39   C40   A    
C5    C7    A    
C26   C38   A    
C40   H10   S    
C14   H19   S    
C1    O1    A    
C31   C37   A    
C25   O7    A    
C2    C4    S    
C9    C14   A    
C7    H20   S    
C29   C30   A    
C28   H7    S    
C27   C41   A    
C31   C32   A    
O7    Zn1   S    
C37   H17   S    
C26   H5    S    
C1    C5    S    
C42   H1    S    
C12   C34   A    
O3    Zn1   S    
C26   C42   A    
C13   H12   S    
C29   H9    S    
C15   C17   A    
C28   C29   A    
C17   N2    A    
C12   C30   A    
C34   C38   A    
C11   H11   S    
C6    C10   A    
C5    C8    A    
C6    C7    A    
C25   C27   S    
C1    O2    A    
C35   H15   S    
C25   O8    A    
C32   C33   A    
C19   C24   A    
C17   H2    S    
C27   C42   A    
C33   C35   A    
C41   H6    S    
C22   C24   A    
C22   N1    A    
C3    C11   A    
C10   C11   A    
C8    H21   S    
C20   C21   A    
O6    Zn2   S    
C2    C23   A    
O5    Zn1   S    
C2    C28   A    
C4    O3    A    
C3    C16   S    
