data_mof_unit_11841.cif
_audit_creation_date              2012-12-10T18:28:05-0500
_audit_creation_method            fapswitch 2.2
_symmetry_space_group_name_H-M    P1
_symmetry_Int_Tables_number       1
_space_group_crystal_system       triclinic
_cell_length_a                    23.09629
_cell_length_b                    20.04219
_cell_length_c                    14.919581
_cell_angle_alpha                 89.969978
_cell_angle_beta                  99.465011
_cell_angle_gamma                 89.875183
_cell_volume                      6812.23799703

loop_
_atom_site_label
_atom_site_type_symbol
_atom_type_description
_atom_site_fract_x
_atom_site_fract_y
_atom_site_fract_z
_atom_type_partial_charge
C1    C     C_R   0.574227 0.089473 0.552768 0.876607
C2    C     C_R   0.425970 0.910412 0.447366 0.874301
C3    C     C_R   0.423209 0.086328 0.445178 0.876338
C4    C     C_R   0.573690 0.909856 0.552276 0.875287
C5    C     C_R   0.076838 0.586235 0.554791 0.877362
C6    C     C_R   0.923683 0.413022 0.445688 0.871758
C7    C     C_R   0.922839 0.585897 0.444990 0.876707
C8    C     C_R   0.073788 0.410077 0.552392 0.876064
C9    C     C_R   0.199405 0.166016 0.626776 -0.019346
C10   C     C_R   0.715537 0.730796 0.303040 -0.025216
C11   C     C_R   0.718946 0.264324 0.305964 -0.024870
C12   C     C_R   0.282112 0.734625 0.694004 -0.025918
C13   C     C_R   0.696964 0.663713 0.625445 -0.020434
C14   C     C_R   0.217788 0.234755 0.304576 -0.023446
C15   C     C_R   0.299554 0.667788 0.370687 -0.020731
C16   C     C_R   0.700596 0.332591 0.628620 -0.021774
C17   C     C_R   0.628498 0.977450 0.206050 -0.294788
C18   C     C_R   0.370540 0.982950 0.793905 -0.294501
C19   C     C_R   0.126085 0.469769 0.205487 -0.295236
C20   C     C_R   0.869060 0.489917 0.792079 -0.305254
C21   C     C_R   0.607386 0.990380 0.285883 0.010537
C22   C     C_R   0.392267 0.993751 0.714013 0.010354
C23   C     C_R   0.106179 0.483636 0.285700 0.009954
C24   C     C_R   0.891976 0.496012 0.712556 0.014481
C25   C     C_R   0.509757 0.998146 0.206587 -0.048851
C26   C     C_R   0.490011 0.996511 0.793550 -0.049136
C27   C     C_R   0.010211 0.505653 0.206909 -0.053854
C28   C     C_R   0.989203 0.497914 0.794037 -0.048713
C29   C     C_R   0.527607 0.979476 0.124381 -0.003114
C30   C     C_R   0.471316 0.979735 0.875825 -0.003451
C31   C     C_R   0.025716 0.485066 0.124189 -0.004088
C32   C     C_R   0.969174 0.484402 0.875926 -0.000800
C33   C     C_R   0.588719 0.971991 0.124963 0.159225
C34   C     C_R   0.409966 0.976031 0.875199 0.156236
C35   C     C_R   0.085865 0.469740 0.124574 0.158057
C36   C     C_R   0.907697 0.484716 0.874306 0.150383
C37   C     C_R   0.487633 0.970763 0.041758 0.005958
C38   C     C_R   0.510838 0.969534 0.958581 0.006465
C39   C     C_R   0.984734 0.480383 0.041882 0.000330
C40   C     C_R   0.007792 0.473660 0.958919 0.005262
C41   C     C_R   0.572052 0.956276 0.962568 -0.010925
C42   C     C_R   0.425927 0.961317 0.037892 -0.009798
C43   C     C_R   0.067902 0.454537 0.962786 -0.010663
C44   C     C_R   0.922089 0.479705 0.037655 -0.006620
C45   C     C_R   0.609744 0.957772 0.045245 -0.231001
C46   C     C_R   0.388339 0.964203 0.955114 -0.228137
C47   C     C_R   0.105580 0.452943 0.045007 -0.230402
C48   C     C_R   0.885119 0.480195 0.954325 -0.228573
C49   C     C_R   0.605914 0.847381 0.575745 -0.082615
C50   C     C_R   0.371991 0.126050 0.406156 -0.081140
C51   C     C_R   0.392617 0.849265 0.422575 -0.080014
C52   C     C_R   0.608057 0.150422 0.577768 -0.083852
C53   C     C_R   0.106563 0.348240 0.576391 -0.082305
C54   C     C_R   0.870654 0.624113 0.405579 -0.082216
C55   C     C_R   0.873273 0.371815 0.408021 -0.084162
C56   C     C_R   0.128099 0.625893 0.593446 -0.083271
C57   C     C_R   0.625800 0.748019 0.669959 -0.012921
C58   C     C_R   0.308548 0.174354 0.275860 -0.006974
C59   C     C_R   0.371011 0.751452 0.326426 -0.013338
C60   C     C_R   0.630667 0.247789 0.674590 -0.006470
C61   C     C_R   0.127331 0.249270 0.670880 -0.014151
C62   C     C_R   0.805917 0.669571 0.274493 -0.007090
C63   C     C_R   0.811067 0.321600 0.278495 -0.008899
C64   C     C_R   0.191670 0.674263 0.723224 -0.005711
C65   C     C_R   0.598785 0.810452 0.652587 -0.209081
C66   C     C_R   0.360613 0.141881 0.313699 -0.230509
C67   C     C_R   0.398827 0.813150 0.344731 -0.209423
C68   C     C_R   0.603444 0.185612 0.657072 -0.235136
C69   C     C_R   0.099063 0.310862 0.652612 -0.210170
C70   C     C_R   0.858605 0.638509 0.312727 -0.222468
C71   C     C_R   0.863681 0.352238 0.317140 -0.209184
C72   C     C_R   0.139695 0.641699 0.685831 -0.232937
C73   C     C_R   0.637119 0.819950 0.512848 -0.253555
C74   C     C_R   0.330344 0.140284 0.460359 -0.256957
C75   C     C_R   0.360959 0.822239 0.484864 -0.254266
C76   C     C_R   0.638682 0.178123 0.514517 -0.250904
C77   C     C_R   0.138876 0.321830 0.514447 -0.254877
C78   C     C_R   0.828719 0.637841 0.459728 -0.256472
C79   C     C_R   0.830634 0.359816 0.461348 -0.254737
C80   C     C_R   0.169501 0.640325 0.538803 -0.255587
C81   C     C_R   0.661788 0.756241 0.524605 0.076573
C82   C     C_R   0.276861 0.169999 0.424801 0.077617
C83   C     C_R   0.335752 0.759054 0.472462 0.076896
C84   C     C_R   0.664199 0.241191 0.527020 0.076370
C85   C     C_R   0.163699 0.258303 0.525986 0.077296
C86   C     C_R   0.774910 0.666952 0.423934 0.078184
C87   C     C_R   0.777502 0.329383 0.425991 0.078489
C88   C     C_R   0.222906 0.670261 0.573846 0.077005
C89   C     C_R   0.661036 0.721511 0.607964 0.054856
C90   C     C_R   0.267102 0.192838 0.332885 0.057367
C91   C     C_R   0.335917 0.724929 0.388556 0.054670
C92   C     C_R   0.664639 0.275014 0.611341 0.055607
C93   C     C_R   0.163062 0.223396 0.609229 0.055176
C94   C     C_R   0.764786 0.688828 0.331645 0.054663
C95   C     C_R   0.768481 0.305473 0.334606 0.051874
C96   C     C_R   0.232845 0.692864 0.665842 0.057238
C97   C     C_R   0.691365 0.729424 0.457007 0.059520
C98   C     C_R   0.235315 0.182219 0.482552 0.061518
C99   C     C_R   0.306278 0.732334 0.540108 0.060321
C100  C     C_R   0.693580 0.267967 0.459148 0.059398
C101  C     C_R   0.193343 0.231989 0.458309 0.060724
C102  C     C_R   0.733362 0.679638 0.481617 0.061471
C103  C     C_R   0.735618 0.317517 0.483463 0.062385
C104  C     C_R   0.264179 0.682902 0.515648 0.060698
C105  C     C_R   0.235585 0.147260 0.564762 -0.275127
C106  C     C_R   0.680864 0.751865 0.366110 -0.276875
C107  C     C_R   0.683176 0.245315 0.368377 -0.276183
C108  C     C_R   0.317032 0.754678 0.630962 -0.277121
C109  C     C_R   0.733476 0.644913 0.563882 -0.274539
C110  C     C_R   0.182855 0.254962 0.367650 -0.279546
C111  C     C_R   0.263647 0.648614 0.432898 -0.275241
C112  C     C_R   0.735827 0.352218 0.565774 -0.273901
H1    H     H_    0.341065 0.129800 0.532170 0.163385
H2    H     H_    0.643472 0.849963 0.455106 0.161791
H3    H     H_    0.643918 0.148612 0.455863 0.162770
H4    H     H_    0.354828 0.852180 0.542756 0.162709
H5    H     H_    0.839490 0.627713 0.531651 0.162354
H6    H     H_    0.145708 0.352357 0.457412 0.159966
H7    H     H_    0.158584 0.629869 0.467055 0.164583
H8    H     H_    0.840528 0.372420 0.532497 0.163261
H9    H     H_    0.391617 0.127359 0.269956 0.164589
H10   H     H_    0.570511 0.829222 0.698093 0.181988
H11   H     H_    0.576969 0.165697 0.704465 0.166710
H12   H     H_    0.426978 0.831960 0.299100 0.181574
H13   H     H_    0.889501 0.623705 0.268953 0.164443
H14   H     H_    0.069650 0.328622 0.696936 0.184193
H15   H     H_    0.108907 0.627143 0.729849 0.164530
H16   H     H_    0.896394 0.363189 0.274885 0.178055
H17   H     H_    0.262994 0.103554 0.580739 0.146846
H18   H     H_    0.644368 0.784879 0.342378 0.157203
H19   H     H_    0.646279 0.213170 0.344334 0.154545
H20   H     H_    0.353836 0.787062 0.654683 0.157144
H21   H     H_    0.760894 0.601215 0.580019 0.146171
H22   H     H_    0.146207 0.287827 0.344132 0.156174
H23   H     H_    0.236254 0.605102 0.416559 0.148587
H24   H     H_    0.762726 0.396167 0.581616 0.144963
H25   H     H_    0.656263 0.948115 0.047417 0.153945
H26   H     H_    0.341467 0.957495 0.953008 0.155004
H27   H     H_    0.151145 0.438383 0.047045 0.157255
H28   H     H_    0.837816 0.478858 0.951826 0.158349
H29   H     H_    0.534882 0.007903 0.788909 0.143267
H30   H     H_    0.465376 0.011961 0.211385 0.141604
H31   H     H_    0.034377 0.508374 0.790099 0.140553
H32   H     H_    0.968438 0.526777 0.213165 0.141503
H33   H     H_    0.362607 0.996092 0.649910 0.132052
H34   H     H_    0.637151 0.991281 0.349933 0.135174
H35   H     H_    0.862989 0.497747 0.647774 0.128725
H36   H     H_    0.135718 0.479931 0.349766 0.133377
H37   H     H_    0.675220 0.970314 0.207947 0.148817
H38   H     H_    0.323560 0.978787 0.791946 0.156459
H39   H     H_    0.171879 0.457004 0.207007 0.155152
H40   H     H_    0.821877 0.488698 0.789301 0.166274
N1    N     N_R   0.549130 1.000000 0.284090 -0.104584
N2    N     N_R   0.450870 1.000000 0.715910 -0.103544
N3    N     N_R   0.049130 0.500000 0.284090 -0.103239
N4    N     N_R   0.950870 0.500000 0.715910 -0.102193
O1    O     O_R   0.541320 0.066090 0.608930 -0.610600
O2    O     O_R   0.458680 0.933910 0.391070 -0.602479
O3    O     O_R   0.458680 0.066090 0.391070 -0.612938
O4    O     O_R   0.541320 0.933910 0.608930 -0.600853
O5    O     O_R   0.041320 0.566090 0.608930 -0.611094
O6    O     O_R   0.958680 0.433910 0.391070 -0.602639
O7    O     O_R   0.958680 0.566090 0.391070 -0.612534
O8    O     O_R   0.041320 0.433910 0.608930 -0.600810
O9    O     O_R   0.572880 0.066110 0.470280 -0.617128
O10   O     O_R   0.427120 0.933890 0.529720 -0.622881
O11   O     O_R   0.427120 0.066110 0.529720 -0.618261
O12   O     O_R   0.572880 0.933890 0.470280 -0.621968
O13   O     O_R   0.072880 0.566110 0.470280 -0.615111
O14   O     O_R   0.927120 0.433890 0.529720 -0.622121
O15   O     O_R   0.927120 0.566110 0.529720 -0.618656
O16   O     O_R   0.072880 0.433890 0.470280 -0.624717
Zn1   Zn    Zn3+2 0.478910 1.000000 0.592580 0.939752
Zn2   Zn    Zn3+2 0.521090 0.000000 0.407420 0.938911
Zn3   Zn    Zn3+2 0.978910 0.500000 0.592580 0.940407
Zn4   Zn    Zn3+2 0.021090 0.500000 0.407420 0.939365
C113  C     C_1   0.206191 0.128258 0.710469 0.153640
N5    N     N_1   0.212153 0.097663 0.777206 -0.227160
C114  C     C_1   0.702130 0.760010 0.213375 0.163041
N6    N     N_1   0.691048 0.783926 0.141948 -0.219983
C115  C     C_1   0.706438 0.233541 0.217301 0.157594
N7    N     N_1   0.696135 0.208376 0.146677 -0.219099
C116  C     C_1   0.295608 0.764507 0.783164 0.166278
N8    N     N_1   0.306792 0.789024 0.854122 -0.218558
C117  C     C_1   0.702788 0.625228 0.708456 0.154062
N9    N     N_1   0.707926 0.593916 0.774533 -0.219321
C118  C     C_1   0.204239 0.264460 0.215224 0.161349
N10   N     N_1   0.193005 0.288778 0.144069 -0.223938
C119  C     C_1   0.292445 0.630771 0.286462 0.153889
N11   N     N_1   0.286255 0.600744 0.219314 -0.224968
C120  C     C_1   0.708300 0.369594 0.712920 0.156428
N12   N     N_1   0.714989 0.399630 0.780079 -0.223844
C121  C     C_1   0.597888 0.932465 0.886697 0.127653
N13   N     N_1   0.619323 0.913583 0.826578 -0.228691
C122  C     C_1   0.399213 0.939810 0.114039 0.127101
N14   N     N_1   0.377167 0.922745 0.174417 -0.226698
C123  C     C_1   0.092583 0.428662 0.886958 0.130042
N15   N     N_1   0.113330 0.408361 0.826959 -0.230328
C124  C     C_1   0.891791 0.473203 0.114466 0.133445
N16   N     N_1   0.866480 0.468986 0.175011 -0.217454
C125  C     C_R   0.611746 0.711443 0.749722 0.110158
C126  C     C_R   0.632318 0.734697 0.837965 -0.142787
C127  C     C_R   0.616565 0.701889 0.913064 -0.128028
C128  C     C_R   0.580313 0.645773 0.900603 -0.124483
C129  C     C_R   0.559304 0.622688 0.812903 -0.121625
C130  C     C_R   0.574554 0.655665 0.737525 -0.128620
H41   H     H_    0.660543 0.778018 0.848467 0.149436
H42   H     H_    0.632544 0.719882 0.980952 0.161647
H43   H     H_    0.568360 0.620323 0.958882 0.121037
H44   H     H_    0.531006 0.579419 0.803318 0.120759
H45   H     H_    0.557577 0.637811 0.669807 0.124583
C131  C     C_R   0.298173 0.182172 0.176026 0.121889
C132  C     C_R   0.330488 0.228807 0.134412 -0.145430
C133  C     C_R   0.322176 0.233994 0.039654 -0.133454
C134  C     C_R   0.282348 0.192024 0.986076 -0.095017
C135  C     C_R   0.250821 0.144721 0.027162 -0.134310
C136  C     C_R   0.258556 0.139803 0.121866 -0.150310
H46   H     H_    0.361833 0.261109 0.175329 0.127990
H47   H     H_    0.346816 0.270323 0.007740 0.129702
H48   H     H_    0.276072 0.195995 0.912760 0.141391
H49   H     H_    0.220379 0.111862 0.985629 0.153636
H50   H     H_    0.234078 0.102821 0.153031 0.129969
C137  C     C_R   0.384497 0.715519 0.245791 0.112195
C138  C     C_R   0.365127 0.740928 0.158216 -0.146088
C139  C     C_R   0.381232 0.709366 0.082457 -0.129541
C140  C     C_R   0.416649 0.652358 0.093562 -0.124786
C141  C     C_R   0.436455 0.627112 0.180593 -0.124842
C142  C     C_R   0.420844 0.658817 0.256656 -0.129314
H51   H     H_    0.337756 0.785133 0.148775 0.148728
H52   H     H_    0.366242 0.729071 0.015117 0.162367
H53   H     H_    0.428937 0.627926 0.034766 0.123204
H54   H     H_    0.464211 0.583230 0.189157 0.125174
H55   H     H_    0.437080 0.639422 0.323892 0.124789
C143  C     C_R   0.617955 0.283606 0.755810 0.114605
C144  C     C_R   0.582044 0.340706 0.745879 -0.127967
C145  C     C_R   0.568612 0.373503 0.822612 -0.119450
C146  C     C_R   0.590053 0.348877 0.909429 -0.126363
C147  C     C_R   0.624795 0.291315 0.919635 -0.130793
C148  C     C_R   0.638763 0.258666 0.843174 -0.154423
H56   H     H_    0.564859 0.359880 0.678866 0.124062
H57   H     H_    0.541458 0.417885 0.814764 0.121321
H58   H     H_    0.579591 0.374247 0.968781 0.121821
H59   H     H_    0.641037 0.272121 0.986849 0.160921
H60   H     H_    0.665793 0.214159 0.851922 0.135310
C149  C     C_R   0.114161 0.212942 0.751334 0.112574
C150  C     C_R   0.135341 0.236719 0.839095 -0.137227
C151  C     C_R   0.120137 0.204460 0.914965 -0.134885
C152  C     C_R   0.083990 0.148236 0.903754 -0.123297
C153  C     C_R   0.062493 0.124542 0.816532 -0.122298
C154  C     C_R   0.077136 0.157026 0.740376 -0.133586
H61   H     H_    0.163594 0.280047 0.848623 0.148468
H62   H     H_    0.136485 0.222943 0.982475 0.161516
H63   H     H_    0.072499 0.123168 0.962632 0.125778
H64   H     H_    0.034243 0.081217 0.807921 0.127312
H65   H     H_    0.059743 0.138759 0.673034 0.125912
C155  C     C_R   0.794454 0.674714 0.174316 0.124636
C156  C     C_R   0.827384 0.718539 0.129312 -0.149215
C157  C     C_R   0.818221 0.720908 0.034340 -0.134297
C158  C     C_R   0.776879 0.678915 0.983908 -0.094652
C159  C     C_R   0.744674 0.634374 0.028341 -0.137116
C160  C     C_R   0.753320 0.632239 0.123286 -0.142619
H66   H     H_    0.859919 0.750811 0.167774 0.127510
H67   H     H_    0.843372 0.755070 0.999820 0.130075
H68   H     H_    0.769962 0.680782 0.910440 0.144774
H69   H     H_    0.713031 0.601489 0.989212 0.150146
H70   H     H_    0.728403 0.597271 0.157073 0.127186
C161  C     C_R   0.801019 0.314833 0.178418 0.132475
C162  C     C_R   0.760229 0.356655 0.124986 -0.127241
C163  C     C_R   0.754062 0.354593 0.030230 -0.143748
C164  C     C_R   0.788258 0.310621 0.988248 -0.097102
C165  C     C_R   0.829096 0.269077 0.041013 -0.128629
C166  C     C_R   0.835861 0.271463 0.135863 -0.148527
H71   H     H_    0.734002 0.391492 0.156824 0.126050
H72   H     H_    0.722936 0.387282 0.989362 0.152367
H73   H     H_    0.783325 0.308956 0.914882 0.144010
H74   H     H_    0.855856 0.235409 0.008416 0.131190
H75   H     H_    0.868287 0.239850 0.176136 0.126957
C167  C     C_R   0.202192 0.682407 0.822999 0.121033
C168  C     C_R   0.169552 0.728971 0.864377 -0.145235
C169  C     C_R   0.178437 0.734963 0.959049 -0.135465
C170  C     C_R   0.219218 0.693911 0.012802 -0.092804
C171  C     C_R   0.251078 0.646656 0.971989 -0.129144
C172  C     C_R   0.242701 0.640868 0.877353 -0.153514
H76   H     H_    0.137590 0.760689 0.823328 0.128469
H77   H     H_    0.153568 0.771270 0.990765 0.129661
H78   H     H_    0.225988 0.698590 0.086045 0.142344
H79   H     H_    0.282297 0.614537 0.013670 0.154031
H80   H     H_    0.267517 0.604013 0.846389 0.128442

loop_
_geom_bond_atom_site_label_1
_geom_bond_atom_site_label_2
_ccdc_geom_bond_type
N3    Zn4   S    
C24   N4    A    
C127  C128  A    
C88   C96   A    
N4    Zn3   S    
C166  H75   S    
C7    O15   A    
C33   C45   A    
C144  H56   S    
C5    C56   S    
C53   C77   A    
C157  H67   S    
C11   C115  S    
C6    C55   S    
C149  C154  A    
C53   C69   A    
C67   H12   S    
C76   C84   A    
C79   C87   A    
C3    O11   A    
C129  C130  A    
O12   Zn2   S    
C99   C108  A    
C30   C38   A    
C153  C154  A    
C98   C105  A    
C57   C89   A    
C146  H58   S    
C10   C114  S    
C32   C36   A    
C51   C75   A    
C23   N3    A    
C133  H47   S    
C50   C74   A    
C7    O7    A    
O10   Zn1   S    
O5    Zn3   S    
C61   C93   A    
C12   C116  S    
O6    Zn4   S    
C131  C136  A    
C10   C94   A    
C9    C105  A    
C140  H53   S    
C63   C95   A    
C136  H50   S    
C76   H3    S    
C145  C146  A    
C62   C70   A    
O8    Zn3   S    
C22   N2    A    
C156  C157  A    
C125  C126  A    
C37   C42   A    
C151  C152  A    
C169  H77   S    
C14   C90   A    
C41   C121  S    
C86   C94   A    
C21   N1    A    
C59   C67   A    
C115  N7    T    
C135  H49   S    
C85   C93   A    
C130  H45   S    
O2    Zn2   S    
C40   C43   A    
O15   Zn3   S    
C25   H30   S    
C29   C33   A    
C64   C167  S    
C56   C72   A    
O3    Zn2   S    
C87   C95   A    
C128  H43   S    
C19   H39   S    
C144  C145  A    
C36   C48   A    
C148  H60   S    
C34   C46   A    
C26   H29   S    
C43   C47   A    
C2    O10   A    
C97   C102  A    
C52   C68   A    
C111  H23   S    
C2    O2    A    
O11   Zn1   S    
C81   C89   A    
C78   C86   A    
C32   C40   A    
C141  H54   S    
C15   C119  S    
C80   H7    S    
C35   C47   A    
C124  N16   T    
C83   C99   A    
C163  C164  A    
C138  C139  A    
C3    O3    A    
C128  C129  A    
C82   C98   A    
C123  N15   T    
C17   C33   A    
C112  H24   S    
O7    Zn4   S    
C68   H11   S    
C73   C81   A    
C88   C104  A    
C3    C50   S    
C58   C66   A    
C62   C155  S    
O14   Zn3   S    
C60   C92   A    
C25   C29   A    
C165  H74   S    
C17   H37   S    
C13   C117  S    
C126  C127  A    
C48   H28   S    
C72   H15   S    
C27   C31   A    
C156  H66   S    
C84   C100  A    
C20   C24   A    
C28   C32   A    
C78   H5    S    
C60   C143  S    
C135  C136  A    
C64   C96   A    
C38   C41   A    
C107  H19   S    
C158  H68   S    
C8    O8    A    
C153  H64   S    
C39   C40   A    
C12   C108  A    
C149  C150  A    
C30   C34   A    
C152  H63   S    
C105  H17   S    
C122  N14   T    
O9    Zn2   S    
C151  H62   S    
C74   H1    S    
C25   N1    A    
N1    Zn2   S    
C100  C103  A    
C17   C21   A    
C73   H2    S    
C120  N12   T    
C103  C112  A    
C5    O5    A    
C145  H57   S    
C162  H71   S    
C121  N13   T    
C19   C23   A    
C116  N8    T    
C150  H61   S    
C37   C38   A    
C49   C65   A    
C16   C120  S    
C15   C111  A    
C106  H18   S    
C55   C79   A    
C161  C166  A    
C141  C142  A    
C54   C70   A    
C22   H33   S    
C1    O9    A    
C168  C169  A    
C55   C71   A    
C155  C156  A    
C45   H25   S    
C139  C140  A    
C171  C172  A    
C66   H9    S    
C119  N11   T    
C43   C123  S    
C28   H31   S    
C51   C67   A    
C168  H76   S    
C169  C170  A    
C18   C34   A    
C142  H55   S    
C59   C137  S    
C58   C90   A    
C87   C103  A    
C97   C106  A    
C163  H72   S    
C70   H13   S    
C63   C71   A    
C69   H14   S    
C113  N5    T    
C134  H48   S    
C126  H41   S    
C62   C94   A    
C42   C46   A    
C29   C37   A    
C49   C73   A    
C59   C91   A    
C110  H22   S    
C143  C144  A    
C57   C125  S    
C158  C159  A    
C86   C102  A    
C9    C93   A    
C75   C83   A    
C85   C101  A    
C152  C153  A    
C16   C112  A    
C6    O14   A    
C11   C95   A    
C154  H65   S    
C14   C110  A    
C165  C166  A    
C147  C148  A    
C100  C107  A    
C5    O13   A    
C65   H10   S    
N2    Zn1   S    
C13   C89   A    
C172  H80   S    
C133  C134  A    
C4    O12   A    
C164  H73   S    
C6    O6    A    
C139  H52   S    
C101  C110  A    
C57   C65   A    
C159  C160  A    
C52   C76   A    
C24   H35   S    
C56   C80   A    
C8    C53   S    
C104  C111  A    
C132  H46   S    
C50   C66   A    
C16   C92   A    
C39   C44   A    
C58   C131  S    
C13   C109  A    
C98   C101  A    
C83   C91   A    
C23   H36   S    
C170  H78   S    
C82   C90   A    
C164  C165  A    
C46   H26   S    
C4    C49   S    
C167  C172  A    
C161  C162  A    
C61   C69   A    
C21   H34   S    
C77   H6    S    
C150  C151  A    
C18   C22   A    
C157  C158  A    
C170  C171  A    
C160  H70   S    
C80   C88   A    
C44   C48   A    
C19   C35   A    
C138  H51   S    
C11   C107  A    
C14   C118  S    
C137  C142  A    
C27   H32   S    
C117  N9    T    
C4    O4    A    
C63   C161  S    
C129  H44   S    
C77   C85   A    
C132  C133  A    
C147  H59   S    
C109  H21   S    
C1    O1    A    
C81   C97   A    
O13   Zn4   S    
C31   C39   A    
C137  C138  A    
C99   C104  A    
C125  C130  A    
C31   C35   A    
C143  C148  A    
C64   C72   A    
C134  C135  A    
C42   C122  S    
C71   H16   S    
C1    C52   S    
C146  C147  A    
C108  H20   S    
C26   N2    A    
C2    C51   S    
C15   C91   A    
C114  N6    T    
C20   C36   A    
C79   H8    S    
C8    O16   A    
C171  H79   S    
C20   H40   S    
C131  C132  A    
C60   C68   A    
C44   C124  S    
C155  C160  A    
C140  C141  A    
C127  H42   S    
C47   H27   S    
C28   N4    A    
C10   C106  A    
C41   C45   A    
C167  C168  A    
C12   C96   A    
C102  C109  A    
C118  N10   T    
C75   H4    S    
C84   C92   A    
C7    C54   S    
C54   C78   A    
C159  H69   S    
C18   H38   S    
C61   C149  S    
O4    Zn1   S    
C74   C82   A    
O16   Zn4   S    
C9    C113  S    
O1    Zn1   S    
C162  C163  A    
C26   C30   A    
C27   N3    A    
