data_mof_unit_20733.cif
_audit_creation_date              2012-12-10T17:09:54-0500
_audit_creation_method            fapswitch 2.2
_symmetry_space_group_name_H-M    P1
_symmetry_Int_Tables_number       1
_space_group_crystal_system       triclinic
_cell_length_a                    10.831641
_cell_length_b                    13.08537
_cell_length_c                    11.723458
_cell_angle_alpha                 99.58789
_cell_angle_beta                  93.009066
_cell_angle_gamma                 91.848068
_cell_volume                      1634.74798635

loop_
_atom_site_label
_atom_site_type_symbol
_atom_type_description
_atom_site_fract_x
_atom_site_fract_y
_atom_site_fract_z
_atom_type_partial_charge
C1    C     C_R   0.500361 0.298784 0.478414 0.932024
C2    C     C_R   0.065460 0.512303 0.609055 0.012506
C3    C     C_R   0.127097 0.507262 0.504601 -0.086190
C4    C     C_R   0.058608 0.486822 0.398037 -0.255122
C5    C     C_R   0.930369 0.473532 0.393053 0.436951
C6    C     C_R   0.870504 0.472671 0.496794 -0.091751
C7    C     C_R   0.499133 0.812683 0.532742 -0.180306
C8    C     C_R   0.500409 0.184240 0.465273 -0.252560
C9    C     C_R   0.458525 0.013297 0.346712 0.425345
C10   C     C_R   0.481897 0.120578 0.354731 0.214204
C11   C     C_R   0.516739 0.137339 0.564874 0.407435
C12   C     C_R   0.262216 0.505741 0.501956 0.833513
C13   C     C_R   0.518347 0.028664 0.553281 -0.130621
C14   C     C_R   0.473515 0.967333 0.446921 -0.135399
C15   C     C_R   0.449579 0.860477 0.442861 0.441986
C16   C     C_R   0.557343 0.872178 0.631999 -0.339013
C17   C     C_R   0.565061 0.980134 0.644930 0.470803
C18   C     C_R   0.379133 0.406905 0.025338 -0.281701
C19   C     C_R   0.390120 0.414228 0.146486 0.610349
C20   C     C_R   0.554525 0.541735 0.156566 0.562470
C21   C     C_R   0.548051 0.535417 0.033230 -0.103187
C22   C     C_R   0.457452 0.466936 0.967636 -0.168845
C23   C     C_R   0.498318 0.700153 0.521093 0.860647
C24   C     C_R   0.447041 0.459759 0.845364 0.587434
C25   C     C_R   0.611452 0.584758 0.851193 -0.083709
C26   C     C_R   0.627808 0.594288 0.972683 0.409098
C27   C     C_R   0.736605 0.488405 0.498201 0.855363
C28   C     C_R   0.121740 0.552452 0.719500 -0.239493
C29   C     C_R   0.067303 0.534952 0.821153 0.305901
C30   C     C_R   0.957160 0.472971 0.811591 0.396202
C31   C     C_R   0.896755 0.440585 0.702036 0.340614
C32   C     C_R   0.942197 0.474443 0.602493 -0.161323
Cu1   Cu    Cu3+1 0.509250 0.507730 0.615930 1.040009
Cu2   Cu    Cu3+1 0.490750 0.492270 0.384070 1.127439
H1    H     H_    0.104597 0.482193 0.317589 0.188189
H2    H     H_    0.670771 0.629308 0.804531 0.134573
H3    H     H_    0.308721 0.353905 0.977572 0.208553
H4    H     H_    0.206154 0.600023 0.728236 0.176071
H5    H     H_    0.597865 0.834400 0.699703 0.170667
N1    N     N_R   0.523180 0.519350 0.790130 -0.223542
N2    N     N_R   0.476820 0.480650 0.209890 -0.240449
O1    O     O_R   0.506570 0.354460 0.582000 -0.473695
O2    O     O_R   0.490940 0.341410 0.386200 -0.515349
O3    O     O_R   0.327470 0.506530 0.597920 -0.570639
O4    O     O_R   0.311840 0.493480 0.402120 -0.547152
O5    O     O_R   0.509060 0.658590 0.613800 -0.620914
O6    O     O_R   0.493430 0.645540 0.418000 -0.511857
O7    O     O_R   0.688160 0.506520 0.597880 -0.591798
O8    O     O_R   0.672530 0.493470 0.402080 -0.498642
O9    O     O_3   0.627077 0.038141 0.741717 -0.651038
H6    H     H_    0.653666 0.991854 0.796508 0.340203
Cl1   Cl    Cl    0.498065 0.169397 0.223476 -0.520137
O10   O     O_3   0.529736 0.198567 0.672946 -0.569991
H7    H     H_    0.477794 0.165945 0.725347 0.372226
Cl2   Cl    Cl    0.335673 0.372026 0.763431 -0.584089
O11   O     O_3   0.722043 0.659202 0.030891 -0.633011
H8    H     H_    0.768622 0.692137 0.975027 0.327784
O12   O     O_3   0.313681 0.355605 0.203141 -0.664528
H9    H     H_    0.255601 0.311703 0.145657 0.321089
Cl3   Cl    Cl    0.659947 0.631364 0.243679 -0.428117
O13   O     O_3   0.123097 0.572800 0.929315 -0.713554
H10   H     H_    0.200943 0.611861 0.920225 0.341045
O14   O     O_3   0.905990 0.442254 0.906702 -0.652252
H11   H     H_    0.958605 0.469070 0.977628 0.374466
Cl4   Cl    Cl    0.782779 0.338868 0.688882 -0.445751
O15   O     O_3   0.862873 0.458943 0.287739 -0.652907
H12   H     H_    0.919200 0.463194 0.224489 0.344443
Cl5   Cl    Cl    0.342198 0.789505 0.336235 -0.510835
O16   O     O_3   0.436028 0.950729 0.239946 -0.613387
H13   H     H_    0.390028 0.989671 0.187168 0.373251

loop_
_geom_bond_atom_site_label_1
_geom_bond_atom_site_label_2
_ccdc_geom_bond_type
C17   O9    S    
C27   O7    A    
C6    C32   A    
C9    C14   A    
C29   C30   A    
Cu2   O6    S    
C28   H4    S    
C20   Cl3   S    
C1    C8    S    
C9    C10   A    
C12   O4    A    
C6    C27   S    
C11   O10   S    
C13   C17   A    
C21   C26   A    
C10   Cl1   S    
C7    C15   A    
C2    C3    A    
O12   H9    S    
C4    H1    S    
C19   N2    A    
C19   O12   S    
Cu2   O4    S    
C18   C22   A    
O10   H7    S    
O11   H8    S    
C24   Cl2   S    
Cu1   O5    S    
C11   C13   A    
O13   H10   S    
Cu2   N2    S    
C8    C11   A    
C5    C6    A    
C15   Cl5   S    
C2    C32   A    
C28   C29   A    
C24   N1    A    
C18   H3    S    
C9    O16   S    
C20   N2    A    
C29   O13   S    
O16   H13   S    
C25   N1    A    
C30   C31   A    
C22   C24   A    
Cu1   N1    S    
C23   O6    A    
Cu1   O1    S    
C25   H2    S    
O14   H11   S    
C16   C17   A    
C27   O8    A    
C1    O1    A    
C30   O14   S    
Cu1   Cu2   S    
C20   C21   A    
C8    C10   A    
C18   C19   A    
C12   O3    A    
O15   H12   S    
C23   O5    A    
Cu1   O7    S    
C31   Cl4   S    
C14   C15   A    
C4    C5    A    
Cu2   O8    S    
C2    C28   A    
C3    C12   S    
C16   H5    S    
C13   C14   A    
O9    H6    S    
C25   C26   A    
C21   C22   A    
Cu1   O3    S    
Cu2   O2    S    
C1    O2    A    
C7    C16   A    
C3    C4    A    
C31   C32   A    
C7    C23   S    
C5    O15   S    
C26   O11   S    
