data_mof_unit_5536.cif
_audit_creation_date              2012-12-10T17:19:56-0500
_audit_creation_method            fapswitch 2.2
_symmetry_space_group_name_H-M    P1
_symmetry_Int_Tables_number       1
_space_group_crystal_system       triclinic
_cell_length_a                    9.572411
_cell_length_b                    10.875723
_cell_length_c                    15.531725
_cell_angle_alpha                 86.993817
_cell_angle_beta                  73.49323
_cell_angle_gamma                 90.662219
_cell_volume                      1547.59384295

loop_
_atom_site_label
_atom_site_type_symbol
_atom_type_description
_atom_site_fract_x
_atom_site_fract_y
_atom_site_fract_z
_atom_type_partial_charge
C1    C     C_R   0.002650 0.263070 0.493573 0.798711
C2    C     C_R   0.659829 0.559022 0.895998 -0.123050
C3    C     C_R   0.753372 0.624200 0.935360 -0.123933
C4    C     C_R   0.507035 0.551803 0.939791 -0.076708
C5    C     C_R   0.458504 0.579033 0.031514 -0.090010
C6    C     C_R   0.551190 0.650306 0.066763 0.654187
C7    C     C_R   0.696167 0.673057 0.018968 -0.148989
C8    C     C_R   0.399226 0.528959 0.894911 0.547002
C9    C     C_R   0.252890 0.511460 0.944523 -0.167614
C10   C     C_R   0.210240 0.514593 0.038237 -0.105628
C11   C     C_R   0.315225 0.541911 0.083144 -0.073110
C12   C     C_R   0.917151 0.501857 0.671955 0.893399
C13   C     C_R   0.064241 0.491022 0.087867 0.689102
C14   C     C_R   0.023389 0.490617 0.181459 -0.317371
C15   C     C_R   0.276520 0.522162 0.178091 0.512721
C16   C     C_R   0.276543 0.124363 0.425272 -0.350004
C17   C     C_R   0.406586 0.065954 0.425094 0.453949
C18   C     C_R   0.399221 0.953140 0.473011 0.551133
C19   C     C_R   0.265450 0.891083 0.508953 -0.349317
C20   C     C_R   0.135904 0.941031 0.496859 0.026684
C21   C     C_R   0.139744 0.066697 0.469506 0.046629
C22   C     C_R   0.006569 0.129339 0.486740 -0.081048
C23   C     C_R   0.999451 0.737540 0.505221 0.783906
C24   C     C_R   0.874490 0.061844 0.509743 -0.147843
C25   C     C_R   0.873573 0.934473 0.516879 -0.141491
C26   C     C_R   0.003116 0.872111 0.510096 -0.084383
C27   C     C_R   0.703095 0.662434 0.378215 -0.229997
C28   C     C_R   0.658446 0.745198 0.320958 0.678666
C29   C     C_R   0.513649 0.747917 0.323097 -0.115755
C30   C     C_R   0.413483 0.665467 0.380260 -0.176299
C31   C     C_R   0.453911 0.580100 0.440206 0.185889
C32   C     C_R   0.603826 0.579418 0.439772 0.121068
C33   C     C_R   0.545581 0.427514 0.559516 -0.035986
C34   C     C_R   0.082995 0.500213 0.327385 0.847528
C35   C     C_R   0.397629 0.426957 0.559130 -0.067435
C36   C     C_R   0.869216 0.526779 0.767492 -0.265685
C37   C     C_R   0.128539 0.504373 0.227734 -0.258208
C38   C     C_R   0.902297 0.641723 0.889649 0.704926
C39   C     C_R   0.958815 0.595727 0.805163 -0.377455
C40   C     C_R   0.723719 0.500522 0.816083 0.651939
Cu1   Cu    Cu3+1 0.140660 0.499990 0.500010 0.944247
Cu2   Cu    Cu3+1 0.859340 0.500010 0.499990 0.959737
H1    H     H_    0.763751 0.728533 0.048160 0.238125
H2    H     H_    0.771315 0.107356 0.522354 0.172422
H3    H     H_    0.283255 0.211999 0.388027 0.181968
H4    H     H_    0.265987 0.805921 0.547670 0.210700
H5    H     H_    0.770395 0.884738 0.529658 0.218457
H6    H     H_    0.578013 0.367212 0.607627 0.186436
H7    H     H_    0.815946 0.669627 0.372602 0.220003
H8    H     H_    0.477726 0.815924 0.281215 0.219663
H9    H     H_    0.305572 0.674704 0.375653 0.228360
H10   H     H_    0.319324 0.366221 0.606902 0.160366
H11   H     H_    0.909419 0.475027 0.217847 0.199114
H12   H     H_    0.173042 0.493943 0.908922 0.216114
H13   H     H_    0.071342 0.617184 0.768128 0.195500
N1    N     N_R   0.648320 0.501210 0.499140 -0.196825
N2    N     N_R   0.352470 0.501290 0.499110 -0.200889
O1    O     O_R   0.118810 0.319640 0.500010 -0.586825
O2    O     O_R   0.881240 0.319660 0.500000 -0.594041
O3    O     O_R   0.055570 0.499980 0.629840 -0.586711
O4    O     O_R   0.818000 0.500010 0.629830 -0.528081
O5    O     O_R   0.118760 0.680340 0.500000 -0.617461
O6    O     O_R   0.881190 0.680360 0.499990 -0.592011
O7    O     O_R   0.182000 0.499990 0.370170 -0.555635
O8    O     O_R   0.944430 0.500020 0.370160 -0.613680
F1    F     F_    0.960659 0.468353 0.046021 -0.660478
O9    O     O_3   0.540786 0.112907 0.373329 -0.531567
C41   C     C_3   0.576055 0.219753 0.410824 -0.237547
H14   H     H_    0.567774 0.202287 0.483363 0.143607
H15   H     H_    0.506245 0.296928 0.401024 0.142826
H16   H     H_    0.690648 0.248084 0.375625 0.201517
F2    F     F_    0.522667 0.901493 0.482415 -0.685977
F3    F     F_    0.756212 0.825425 0.264532 -0.618688
O10   O     O_3   0.383367 0.513951 0.222174 -0.537513
C42   C     C_3   0.441286 0.395069 0.213531 -0.234040
H17   H     H_    0.497899 0.378199 0.142210 0.170457
H18   H     H_    0.355199 0.322668 0.242372 0.143955
H19   H     H_    0.523426 0.387855 0.251376 0.189422
F4    F     F_    0.991899 0.707545 0.925044 -0.657653
F5    F     F_    0.650002 0.410740 0.787946 -0.624209
F6    F     F_    0.497511 0.711541 0.142211 -0.654609
O11   O     O_3   0.431763 0.532459 0.802183 -0.533638
C43   C     C_3   0.430180 0.655816 0.769733 -0.270173
H20   H     H_    0.515525 0.713275 0.785677 0.155708
H21   H     H_    0.320953 0.695881 0.796763 0.177040
H22   H     H_    0.454441 0.658027 0.695416 0.202391

loop_
_geom_bond_atom_site_label_1
_geom_bond_atom_site_label_2
_ccdc_geom_bond_type
C8    C9    A    
C30   H9    S    
C16   C21   A    
C34   C37   S    
Cu1   Cu2   S    
C19   C20   A    
C4    C8    A    
C19   H4    S    
C8    O11   S    
C28   C29   A    
Cu1   O1    S    
C5    C11   A    
C3    C7    A    
C1    O2    A    
C30   C31   A    
C38   F4    S    
C18   C19   A    
C23   C26   S    
C15   C37   A    
Cu2   N1    S    
C11   C15   A    
C23   O5    A    
C39   H13   S    
C31   C32   A    
C3    C38   A    
C16   C17   A    
Cu2   O8    S    
C40   F5    S    
C7    H1    S    
C12   C36   S    
C9    C10   A    
C25   H5    S    
C13   F1    S    
C33   N1    A    
C23   O6    A    
C1    C22   S    
C6    F6    S    
C21   C22   A    
Cu1   O5    S    
C28   F3    S    
C34   O8    A    
C29   H8    S    
C18   F2    S    
C38   C39   A    
C17   O9    S    
O10   C42   S    
O9    C41   S    
C36   C40   A    
C24   C25   A    
C41   H14   S    
C25   C26   A    
C15   O10   S    
Cu2   O2    S    
C2    C4    A    
C42   H17   S    
C29   C30   A    
C43   H20   S    
C43   H22   S    
C34   O7    A    
C17   C18   A    
C42   H18   S    
Cu2   O4    S    
C43   H21   S    
C24   H2    S    
C22   C24   A    
C35   H10   S    
C27   C32   A    
C36   C39   A    
Cu1   O3    S    
C4    C5    A    
C10   C13   A    
C16   H3    S    
C6    C7    A    
C35   N2    A    
C31   N2    A    
C2    C3    A    
Cu1   N2    S    
C1    O1    A    
C14   C37   A    
C12   O4    A    
C5    C6    A    
C20   C26   A    
C41   H16   S    
C33   C35   A    
C42   H19   S    
C10   C11   A    
C12   O3    A    
C2    C40   A    
C14   H11   S    
C20   C21   A    
C41   H15   S    
O11   C43   S    
C27   C28   A    
C33   H6    S    
C9    H12   S    
Cu1   O7    S    
C13   C14   A    
Cu2   O6    S    
C32   N1    A    
C27   H7    S    
