data_mof_unit_52276.cif
_audit_creation_date              2012-12-10T16:56:28-0500
_audit_creation_method            fapswitch 2.2
_symmetry_space_group_name_H-M    P1
_symmetry_Int_Tables_number       1
_space_group_crystal_system       triclinic
_cell_length_a                    7.771533
_cell_length_b                    8.571658
_cell_length_c                    15.695626
_cell_angle_alpha                 91.29583
_cell_angle_beta                  85.989195
_cell_angle_gamma                 93.544887
_cell_volume                      1040.83093295

loop_
_atom_site_label
_atom_site_type_symbol
_atom_type_description
_atom_site_fract_x
_atom_site_fract_y
_atom_site_fract_z
_atom_type_partial_charge
C1    C     C_R   0.545672 0.794697 0.497851 0.962457
C2    C     C_3   0.424728 0.361973 0.023634 0.610110
C3    C     C_1   0.508321 0.506723 0.750770 -0.179125
C4    C     C_1   0.491613 0.491980 0.249226 -0.175160
C5    C     C_3   0.337670 0.484957 0.974258 -0.305459
C6    C     C_3   0.663996 0.510790 0.025980 -0.351450
C7    C     C_3   0.506565 0.505497 0.917036 0.073852
C8    C     C_3   0.494392 0.490753 0.082868 0.080977
C9    C     C_1   0.509945 0.508922 0.826099 -0.014130
C10   C     C_1   0.490319 0.488505 0.173875 -0.006109
C11   C     C_3   0.793361 0.834681 0.985090 0.057451
C12   C     C_R   0.454329 0.205304 0.502182 0.963664
C13   C     C_3   0.754395 0.888391 0.078313 -0.406557
C14   C     C_3   0.917055 0.957954 0.117310 -0.894285
C15   C     C_3   0.355091 0.095801 0.000661 0.083113
C16   C     C_3   0.244761 0.102765 0.923627 -0.398518
C17   C     C_3   0.243482 0.948772 0.872758 -0.903676
C18   C     C_R   0.502660 0.502101 0.661975 0.900778
C19   C     C_R   0.497336 0.497814 0.338022 0.901054
C20   C     C_2   0.569792 0.958093 0.496584 -0.376672
C21   C     C_2   0.430212 0.041909 0.503505 -0.375471
C22   C     C_3   0.409029 0.615835 0.034308 -0.298673
C23   C     C_3   0.592978 0.379903 0.965438 -0.349396
C24   C     C_3   0.576687 0.634031 0.976277 0.610671
H1    H     H_    0.335908 0.711843 0.064788 0.143450
H2    H     H_    0.892443 0.746038 0.980026 0.136121
H3    H     H_    0.656709 0.977696 0.081293 0.229356
H4    H     H_    0.701500 0.788461 0.117698 0.225288
H5    H     H_    0.018906 0.872148 0.113267 0.254212
H6    H     H_    0.886453 0.988642 0.185569 0.268892
H7    H     H_    0.966046 0.065895 0.083609 0.277737
H8    H     H_    0.311187 0.989881 0.037417 0.173115
H9    H     H_    0.492285 0.080641 0.979289 0.154541
H10   H     H_    0.110258 0.127611 0.945761 0.220833
H11   H     H_    0.297698 0.197906 0.880728 0.220622
H12   H     H_    0.670548 0.287807 0.933821 0.155066
H13   H     H_    0.376690 0.924562 0.847807 0.291564
H14   H     H_    0.161569 0.956190 0.817974 0.258122
H15   H     H_    0.190240 0.850696 0.913639 0.254863
H16   H     H_    0.794652 0.517845 0.050776 0.160845
H17   H     H_    0.205565 0.473146 0.951173 0.152848
H18   H     H_    0.701716 0.008886 0.489938 0.181205
H19   H     H_    0.298288 0.991116 0.510157 0.181105
H20   H     H_    0.013202 0.381653 0.436177 0.195116
H21   H     H_    0.986799 0.618347 0.563824 0.193484
H22   H     H_    0.850924 0.936938 0.948728 0.176474
N1    N     N_2   0.950320 0.457950 0.477300 -0.171981
N2    N     N_2   0.049680 0.542050 0.522700 -0.172651
O1    O     O_R   0.389250 0.738570 0.505570 -0.613200
O2    O     O_3   0.335358 0.225558 0.056958 -0.656845
O3    O     O_R   0.610750 0.261430 0.494430 -0.613235
O4    O     O_R   0.678390 0.711630 0.491020 -0.630587
O5    O     O_R   0.321610 0.288370 0.508980 -0.630543
O6    O     O_R   0.355460 0.513480 0.630490 -0.611996
O7    O     O_R   0.644540 0.486520 0.369510 -0.610568
O8    O     O_R   0.644600 0.486540 0.615950 -0.620189
O9    O     O_R   0.355400 0.513460 0.384050 -0.618836
O10   O     O_3   0.642167 0.781435 0.945461 -0.665510
Zn1   Zn    Zn3+2 0.306940 0.517990 0.509710 0.950635
Zn2   Zn    Zn3+2 0.693060 0.482010 0.490290 0.951202

loop_
_geom_bond_atom_site_label_1
_geom_bond_atom_site_label_2
_ccdc_geom_bond_type
C8    C22   S    
N2    Zn1   S    
C13   H4    S    
C3    C9    T    
C11   O10   S    
O4    Zn2   S    
C20   H18   S    
N1    N2    D    
O1    Zn1   S    
H20   N1    S    
C18   O8    A    
C14   H7    S    
C17   H14   S    
C6    C24   S    
O5    Zn1   S    
C15   H8    S    
C17   H13   S    
C13   C14   S    
C19   O9    A    
C11   C13   S    
C14   H6    S    
C7    C23   S    
C6    C23   S    
C2    C8    S    
C1    C20   S    
C8    C10   S    
C22   C24   S    
O6    Zn1   S    
C16   H11   S    
C1    O4    A    
C6    H16   S    
O9    Zn1   S    
C2    C5    S    
C15   C16   S    
C18   O6    A    
C14   H5    S    
C4    C10   T    
C7    C24   S    
C7    C9    S    
C12   O3    A    
O8    Zn2   S    
C20   C21   D    
C3    C18   S    
C24   O10   S    
C23   H12   S    
C17   H15   S    
C15   O2    S    
C19   O7    A    
C2    C23   S    
C5    C7    S    
C5    H17   S    
C13   H3    S    
C11   H22   S    
C6    C8    S    
O3    Zn2   S    
C2    O2    S    
C11   H2    S    
C16   H10   S    
N1    Zn2   S    
O7    Zn2   S    
C4    C19   S    
C1    O1    A    
C12   C21   S    
C15   H9    S    
C21   H19   S    
C5    C22   S    
C12   O5    A    
C16   C17   S    
H21   N2    S    
C22   H1    S    
