data_mof_unit_61154.cif
_audit_creation_date              2012-10-26T18:40:38-0400
_audit_creation_method            fapswitch 2.2
_symmetry_space_group_name_H-M    P1
_symmetry_Int_Tables_number       1
_space_group_crystal_system       triclinic
_cell_length_a                    15.162366
_cell_length_b                    13.97195
_cell_length_c                    11.703698
_cell_angle_alpha                 89.999977
_cell_angle_beta                  91.604206
_cell_angle_gamma                 90.000016
_cell_volume                      2478.43113237

loop_
_atom_site_label
_atom_site_type_symbol
_atom_type_description
_atom_site_fract_x
_atom_site_fract_y
_atom_site_fract_z
_atom_type_partial_charge
C1    C     C_R   0.329958 0.500023 0.500097 0.593725
C2    C     C_R   0.500135 0.500007 0.715923 0.551747
C3    C     C_R   0.534986 0.107428 0.593093 0.353733
C4    C     C_R   0.429889 0.892184 0.449831 0.358467
C5    C     C_R   0.465014 0.107428 0.406907 0.353733
C6    C     C_R   0.570110 0.892183 0.550169 0.358467
C7    C     C_1   0.499881 0.499994 0.162378 0.035927
C8    C     C_1   0.500119 0.499994 0.837621 0.035927
C9    C     C_1   0.499945 0.499964 0.059898 0.014204
C10   C     C_1   0.500055 0.499964 0.940102 0.014204
C11   C     C_R   0.540698 0.208126 0.587530 0.101127
C12   C     C_R   0.670042 0.500023 0.499903 0.593720
C13   C     C_R   0.434477 0.791503 0.442965 0.111463
C14   C     C_R   0.459302 0.208126 0.412470 0.101125
C15   C     C_R   0.565523 0.791503 0.557035 0.111463
C16   C     C_R   0.095723 0.581560 0.537711 -0.070289
C17   C     C_R   0.906252 0.419999 0.537530 -0.071925
C18   C     C_R   0.904277 0.581563 0.462299 -0.070290
C19   C     C_R   0.093748 0.420001 0.462467 -0.071925
C20   C     C_R   0.187420 0.581567 0.537910 0.344906
C21   C     C_R   0.814625 0.419192 0.536977 0.343311
C22   C     C_R   0.812580 0.581570 0.462099 0.344907
C23   C     C_R   0.233217 0.500229 0.500376 0.024481
C24   C     C_R   0.185375 0.419195 0.463018 0.343310
C25   C     C_1   0.592664 0.255483 0.675449 0.425142
C26   C     C_1   0.369690 0.743271 0.371507 0.412957
C27   C     C_1   0.407337 0.255483 0.324550 0.425141
C28   C     C_1   0.630310 0.743271 0.628493 0.412963
C29   C     C_R   0.766783 0.500229 0.499626 0.024477
C30   C     C_R   0.048377 0.500945 0.499926 -0.085010
C31   C     C_R   0.951624 0.500945 0.500079 -0.085010
C32   C     C_R   0.500000 0.054306 0.500000 0.075051
C33   C     C_R   0.500000 0.945311 0.500000 0.066771
C34   C     C_R   0.499865 0.500008 0.284077 0.551747
Cu1   Cu    Cu3+1 0.500000 0.596430 0.500000 1.065774
Cu2   Cu    Cu3+1 0.500000 0.403570 0.500000 1.053789
F1    F     F_    0.562099 0.062677 0.691010 -0.545680
F2    F     F_    0.355740 0.936854 0.409520 -0.533788
F3    F     F_    0.437901 0.062677 0.308990 -0.545680
F4    F     F_    0.644260 0.936854 0.590480 -0.533787
F5    F     F_    0.230914 0.660361 0.577436 -0.583487
F6    F     F_    0.773360 0.339604 0.574928 -0.588404
F7    F     F_    0.769087 0.660367 0.422579 -0.583486
F8    F     F_    0.226639 0.339610 0.425059 -0.588406
H1    H     H_    0.061714 0.644138 0.568807 0.177452
H2    H     H_    0.941830 0.357560 0.568607 0.176400
H3    H     H_    0.938287 0.644143 0.431209 0.177453
H4    H     H_    0.058170 0.357564 0.431385 0.176400
N1    N     N_R   0.500000 0.258690 0.500000 -0.344440
N2    N     N_R   0.500000 0.741310 0.500000 -0.344620
N3    N     N_1   0.634970 0.292327 0.746626 -0.179245
N4    N     N_1   0.317510 0.705445 0.313223 -0.220328
N5    N     N_1   0.365032 0.292327 0.253372 -0.179238
N6    N     N_1   0.682490 0.705444 0.686776 -0.220325
O1    O     O_R   0.371460 0.581430 0.500010 -0.463000
O2    O     O_R   0.628540 0.418570 0.499990 -0.455919
O3    O     O_R   0.628540 0.581430 0.499990 -0.462999
O4    O     O_R   0.371460 0.418570 0.500010 -0.455921
O5    O     O_R   0.500010 0.581440 0.337200 -0.498423
O6    O     O_R   0.499990 0.418560 0.662800 -0.515708
O7    O     O_R   0.499990 0.581440 0.662800 -0.498422
O8    O     O_R   0.500010 0.418560 0.337200 -0.515707

loop_
_geom_bond_atom_site_label_1
_geom_bond_atom_site_label_2
_ccdc_geom_bond_type
C16   H1    S    
C23   C24   A    
C27   N5    T    
C11   N1    A    
C22   C29   A    
C26   N4    T    
C14   C27   S    
C9    C10   S    
C22   F7    S    
C6    C33   A    
Cu1   O3    S    
C30   C31   S    
C16   C20   A    
C5    C32   A    
C18   H3    S    
Cu1   N2    S    
C25   N3    T    
C20   F5    S    
C15   C28   S    
Cu1   O7    S    
C18   C22   A    
C1    O4    A    
C32   C33   S    
C19   C30   A    
C5    C14   A    
C12   O2    A    
Cu1   Cu2   S    
C19   C24   A    
Cu2   O8    S    
C12   O3    A    
Cu1   O5    S    
Cu2   O2    S    
C17   C31   A    
C4    F2    S    
C1    C23   S    
Cu2   O4    S    
C5    F3    S    
C1    O1    A    
C3    C32   A    
C24   F8    S    
C7    C34   S    
C2    O6    A    
C13   C26   S    
C20   C23   A    
C14   N1    A    
C3    C11   A    
C11   C25   S    
C16   C30   A    
C13   N2    A    
C34   O8    A    
C6    F4    S    
C17   H2    S    
C3    F1    S    
C8    C10   T    
C15   N2    A    
C4    C13   A    
C7    C9    T    
C28   N6    T    
C4    C33   A    
C18   C31   A    
C6    C15   A    
C19   H4    S    
C34   O5    A    
C21   C29   A    
C12   C29   S    
Cu1   O1    S    
C2    C8    S    
Cu2   N1    S    
C21   F6    S    
Cu2   O6    S    
C2    O7    A    
C17   C21   A    
