data_mof_unit_26081.cif
_audit_creation_date              2012-10-26T18:44:10-0400
_audit_creation_method            fapswitch 2.2
_symmetry_space_group_name_H-M    P1
_symmetry_Int_Tables_number       1
_space_group_crystal_system       triclinic
_cell_length_a                    19.328102
_cell_length_b                    9.080523
_cell_length_c                    7.777074
_cell_angle_alpha                 89.999891
_cell_angle_beta                  89.999179
_cell_angle_gamma                 90.175482
_cell_volume                      1364.94221548

loop_
_atom_site_label
_atom_site_type_symbol
_atom_type_description
_atom_site_fract_x
_atom_site_fract_y
_atom_site_fract_z
_atom_type_partial_charge
C1    C     C_R   0.500387 0.220007 0.500003 0.540442
C2    C     C_R   0.254676 0.606957 0.403374 -0.020037
C3    C     C_R   0.181064 0.394435 0.594325 0.343346
C4    C     C_R   0.817874 0.395874 0.401191 0.342566
C5    C     C_R   0.818940 0.605535 0.594329 0.343353
C6    C     C_R   0.182127 0.604110 0.401202 0.342550
C7    C     C_R   0.145622 0.499763 0.497573 0.040867
C8    C     C_R   0.854384 0.500208 0.497574 0.040833
C9    C     C_R   0.290982 0.498929 0.499787 -0.068986
C10   C     C_R   0.709020 0.501061 0.499781 -0.068997
C11   C     C_R   0.930097 0.499622 0.497199 0.419488
C12   C     C_R   0.499612 0.779993 0.500002 0.540441
C13   C     C_R   0.069913 0.500345 0.497198 0.419604
C14   C     C_3   0.289448 0.264167 0.686592 -0.228893
C15   C     C_3   0.313475 0.146883 0.559324 -0.418053
C16   C     C_3   0.708705 0.270053 0.306704 -0.224647
C17   C     C_3   0.703908 0.304496 0.114814 -0.368876
C18   C     C_3   0.710556 0.735776 0.686656 -0.228891
C19   C     C_3   0.686512 0.853080 0.559438 -0.418035
C20   C     C_3   0.291292 0.730005 0.306814 -0.224641
C21   C     C_3   0.296083 0.695681 0.114891 -0.368852
C22   C     C_R   0.367130 0.498551 0.500042 0.543983
C23   C     C_R   0.632870 0.501444 0.500040 0.543980
C24   C     C_1   0.500164 0.065386 0.499989 -0.069439
C25   C     C_1   0.499836 0.934613 0.499989 -0.069443
C26   C     C_R   0.253668 0.390441 0.594200 -0.016567
C27   C     C_R   0.745324 0.393046 0.403346 -0.020050
C28   C     C_R   0.746336 0.609529 0.594214 -0.016567
Cu1   Cu    Cu3+1 0.500000 0.500000 0.669080 0.982687
Cu2   Cu    Cu3+1 0.500000 0.500000 0.330920 0.982812
F1    F     F_    0.144339 0.290855 0.682077 -0.587446
F2    F     F_    0.853233 0.292901 0.309839 -0.590042
F3    F     F_    0.855661 0.709119 0.682075 -0.587434
F4    F     F_    0.146762 0.707076 0.309854 -0.590060
H1    H     H_    0.349908 0.194257 0.463869 0.155196
H2    H     H_    0.656128 0.248633 0.358297 0.138682
H3    H     H_    0.650096 0.805719 0.463942 0.155191
H4    H     H_    0.659826 0.942934 0.629741 0.133994
H5    H     H_    0.731693 0.900518 0.490415 0.186984
H6    H     H_    0.666445 0.696143 0.764967 0.161340
H7    H     H_    0.745906 0.789602 0.780262 0.219239
H8    H     H_    0.324109 0.786095 0.048287 0.134580
H9    H     H_    0.324536 0.591273 0.093306 0.171500
H10   H     H_    0.243585 0.685694 0.057952 0.213369
H11   H     H_    0.262782 0.835052 0.324593 0.191494
H12   H     H_    0.340139 0.056971 0.629591 0.133983
H13   H     H_    0.343872 0.751406 0.358406 0.138659
H14   H     H_    0.268289 0.099512 0.490248 0.186981
H15   H     H_    0.333570 0.303771 0.764889 0.161342
H16   H     H_    0.254102 0.210332 0.780200 0.219241
H17   H     H_    0.675829 0.214193 0.048146 0.134598
H18   H     H_    0.675506 0.408980 0.093328 0.171504
H19   H     H_    0.756407 0.314411 0.057869 0.213328
H20   H     H_    0.737210 0.164992 0.324389 0.191527
N1    N     N_1   0.500000 0.500000 0.076820 -0.089199
N2    N     N_1   0.500000 0.500000 0.923180 -0.090328
N3    N     N_R   0.034426 0.500327 0.346715 -0.118294
N4    N     N_R   0.965601 0.500463 0.647612 -0.119358
N5    N     N_R   0.965587 0.499209 0.346717 -0.118134
N6    N     N_R   0.034410 0.499932 0.647613 -0.119525
O1    O     O_R   0.500000 0.288390 0.642760 -0.493915
O2    O     O_R   0.500000 0.711610 0.357240 -0.497789
O3    O     O_R   0.500000 0.711610 0.642760 -0.493911
O4    O     O_R   0.500000 0.288390 0.357240 -0.497792
O5    O     O_R   0.400140 0.500000 0.642830 -0.506092
O6    O     O_R   0.599860 0.500000 0.357170 -0.501655
O7    O     O_R   0.599860 0.500000 0.642830 -0.506093
O8    O     O_R   0.400140 0.500000 0.357170 -0.501644

loop_
_geom_bond_atom_site_label_1
_geom_bond_atom_site_label_2
_ccdc_geom_bond_type
C10   C27   A    
C5    C8    A    
N1    N2    T    
Cu1   O3    S    
C22   O5    A    
C6    C7    A    
C21   H9    S    
C19   H4    S    
Cu2   O4    S    
C10   C23   S    
C5    C28   A    
C12   O2    A    
Cu2   N1    S    
Cu1   O5    S    
C20   H11   S    
C12   C25   S    
C4    C8    A    
C10   C28   A    
C17   H17   S    
C16   C27   S    
C2    C6    A    
C13   N6    A    
C4    F2    S    
C14   C26   S    
Cu1   Cu2   S    
C3    F1    S    
C22   O8    A    
C14   H16   S    
C19   H5    S    
C15   H14   S    
C8    C11   S    
C11   N5    A    
C17   H18   S    
C15   H1    S    
Cu2   O6    S    
C9    C26   A    
C3    C7    A    
Cu2   O2    S    
Cu2   O8    S    
Cu1   N2    S    
C16   H20   S    
C9    C22   S    
N3    N5    A    
C14   H15   S    
C13   N3    A    
Cu1   O1    S    
C2    C20   S    
C21   H8    S    
C11   N4    A    
C1    O4    A    
C17   H19   S    
C7    C13   S    
C4    C27   A    
C18   C28   S    
C24   C25   T    
C23   O6    A    
C1    C24   S    
C18   C19   S    
C21   H10   S    
C18   H7    S    
C23   O7    A    
C12   O3    A    
C18   H6    S    
C14   C15   S    
C19   H3    S    
C15   H12   S    
C20   C21   S    
Cu1   O7    S    
C2    C9    A    
N4    N6    A    
C3    C26   A    
C16   H2    S    
C20   H13   S    
C6    F4    S    
C5    F3    S    
C16   C17   S    
C1    O1    A    
