data_mof_unit_19403.cif
_audit_creation_date              2012-12-10T17:52:33-0500
_audit_creation_method            fapswitch 2.2
_symmetry_space_group_name_H-M    P1
_symmetry_Int_Tables_number       1
_space_group_crystal_system       triclinic
_cell_length_a                    14.699264
_cell_length_b                    14.398915
_cell_length_c                    23.518909
_cell_angle_alpha                 76.932877
_cell_angle_beta                  102.254133
_cell_angle_gamma                 114.52927
_cell_volume                      4371.80018145

loop_
_atom_site_label
_atom_site_type_symbol
_atom_type_description
_atom_site_fract_x
_atom_site_fract_y
_atom_site_fract_z
_atom_type_partial_charge
C1    C     C_R   0.880751 0.310860 0.509040 0.793618
C2    C     C_R   0.119389 0.689549 0.489479 0.800349
C3    C     C_R   0.980753 0.567929 0.752275 -0.006083
C4    C     C_R   0.913260 0.468677 0.228695 -0.007192
C5    C     C_R   0.982681 0.575789 0.691250 -0.078606
C6    C     C_R   0.908106 0.468317 0.288245 -0.080420
C7    C     C_R   0.998314 0.498582 0.671264 -0.084792
C8    C     C_R   0.997620 0.489884 0.329373 -0.090415
C9    C     C_R   0.015239 0.417753 0.711725 -0.244303
C10   C     C_R   0.088444 0.505002 0.311340 -0.226605
C11   C     C_R   0.016851 0.412251 0.771540 -0.108380
C12   C     C_R   0.092171 0.500503 0.253641 -0.105110
C13   C     C_R   0.999863 0.486404 0.792336 0.301617
C14   C     C_R   0.005933 0.483482 0.211930 0.303554
C15   C     C_R   0.814426 0.200013 0.511147 -0.121372
C16   C     C_R   0.185767 0.801465 0.481731 -0.125529
C17   C     C_R   0.777727 0.021037 0.503620 -0.072853
C18   C     C_R   0.218916 0.985612 0.449813 -0.096579
C19   C     C_R   0.847459 0.123990 0.505018 -0.076593
C20   C     C_R   0.150995 0.881027 0.454565 -0.082204
C21   C     C_R   0.712664 0.172698 0.513924 -0.264965
C22   C     C_R   0.288168 0.827945 0.501419 -0.271871
C23   C     C_R   0.999791 0.500750 0.608740 0.803123
C24   C     C_R   0.998889 0.496725 0.391285 0.802933
C25   C     C_R   0.640655 0.073334 0.507320 0.072899
C26   C     C_R   0.359405 0.929315 0.490078 0.082421
C27   C     C_R   0.674589 0.993496 0.509109 0.040694
C28   C     C_R   0.324721 0.011321 0.467595 0.037955
C29   C     C_R   0.535525 0.052759 0.497479 0.063203
C30   C     C_R   0.464644 0.949735 0.500195 0.065883
C31   C     C_R   0.500855 0.869862 0.509839 -0.253333
C32   C     C_R   0.499928 0.133260 0.479780 -0.262913
C33   C     C_R   0.603112 0.890130 0.514836 -0.049058
C34   C     C_R   0.397975 0.114548 0.463335 -0.038177
C35   C     C_R   0.708906 0.655093 0.391161 -0.125778
C36   C     C_R   0.284633 0.330667 0.600172 -0.129883
C37   C     C_R   0.791596 0.626836 0.411017 0.100420
C38   C     C_R   0.204684 0.363803 0.584656 0.062434
C39   C     C_R   0.715865 0.514491 0.492790 0.022178
C40   C     C_R   0.283417 0.487289 0.506702 0.020973
C41   C     C_R   0.625992 0.534384 0.473802 -0.022810
C42   C     C_R   0.368400 0.458624 0.519607 -0.025723
C43   C     C_R   0.625237 0.611843 0.423812 0.064398
C44   C     C_R   0.366020 0.374155 0.565734 0.063814
C45   C     C_R   0.073902 0.565487 0.119793 0.523979
C46   C     C_R   0.939904 0.399106 0.886157 0.526986
C47   C     C_R   0.537898 0.479694 0.503294 0.089447
C48   C     C_R   0.454373 0.510529 0.487870 0.093956
C49   C     C_R   0.459310 0.592323 0.441065 -0.251885
C50   C     C_R   0.528757 0.390725 0.545222 -0.263596
C51   C     C_R   0.540662 0.641053 0.408626 0.004432
C52   C     C_R   0.444693 0.336910 0.575217 0.007620
C53   C     C_R   0.956419 0.390226 0.129130 0.552455
C54   C     C_R   0.081724 0.559857 0.881917 0.550345
C55   C     C_R   0.950042 0.388800 0.068467 -0.058336
C56   C     C_R   0.082719 0.564411 0.941460 -0.057235
C57   C     C_R   0.014234 0.477255 0.034663 -0.025667
C58   C     C_R   0.013867 0.478699 0.974289 -0.025831
C59   C     C_R   0.078649 0.564720 0.061068 -0.014150
C60   C     C_R   0.944188 0.394388 0.946781 -0.014673
C61   C     C_R   0.881736 0.303680 0.040121 -0.039107
C62   C     C_R   0.148559 0.651003 0.969294 -0.038372
C63   C     C_R   0.878775 0.308067 0.979871 -0.211029
C64   C     C_R   0.144808 0.650604 0.028151 -0.212814
Cu1   Cu    Cu3+1 0.081740 0.475680 0.515360 0.949993
Cu2   Cu    Cu3+1 0.918260 0.524320 0.484640 0.963694
H1    H     H_    0.450692 0.789832 0.510389 0.146396
H2    H     H_    0.551194 0.213257 0.473816 0.138381
H3    H     H_    0.276559 0.546626 0.471154 0.123516
H4    H     H_    0.724974 0.463302 0.532738 0.122468
H5    H     H_    0.141447 0.329246 0.609685 0.126558
H6    H     H_    0.853744 0.656963 0.385442 0.144132
H7    H     H_    0.399798 0.620914 0.427797 0.129721
H8    H     H_    0.583902 0.356446 0.552660 0.127825
H9    H     H_    0.824811 0.243088 0.958792 0.187471
H10   H     H_    0.194368 0.718220 0.048327 0.186219
H11   H     H_    0.028003 0.358677 0.696898 0.153981
H12   H     H_    0.157443 0.520716 0.342063 0.162403
H13   H     H_    0.032404 0.350381 0.802124 0.156814
H14   H     H_    0.162979 0.511048 0.241057 0.152078
H15   H     H_    0.311190 0.767209 0.526755 0.161414
H16   H     H_    0.690681 0.230873 0.521958 0.154781
N1    N     N_R   0.012642 0.479472 0.152350 -0.458221
N2    N     N_R   0.007358 0.481485 0.854935 -0.457489
N3    N     N_R   0.795430 0.560810 0.461550 -0.184336
N4    N     N_R   0.204570 0.439190 0.538450 -0.181665
O1    O     O_R   0.977900 0.338110 0.520250 -0.572087
O2    O     O_R   0.022100 0.661890 0.479750 -0.564261
O3    O     O_R   0.839850 0.379180 0.494310 -0.581590
O4    O     O_R   0.160150 0.620820 0.505690 -0.588338
O5    O     O_R   0.069020 0.479430 0.595090 -0.586164
O6    O     O_R   0.930980 0.520570 0.404910 -0.579713
O7    O     O_R   0.930970 0.520500 0.569150 -0.569630
O8    O     O_R   0.069030 0.479500 0.430850 -0.576222
O9    O     O_2   0.129316 0.651971 0.144079 -0.559350
O10   O     O_2   0.868338 0.322374 0.858438 -0.556811
O11   O     O_2   0.907634 0.303683 0.164991 -0.535591
O12   O     O_2   0.154335 0.632242 0.850975 -0.543623
C65   C     C_1   0.809628 0.212338 0.070093 0.341014
N5    N     N_1   0.751684 0.139152 0.093900 -0.254490
C66   C     C_1   0.217643 0.744185 0.938727 0.336907
N6    N     N_1   0.272940 0.818981 0.914404 -0.257447
C67   C     C_1   0.809948 0.949276 0.487268 0.191753
N7    N     N_1   0.835186 0.892431 0.473389 -0.249745
C68   C     C_1   0.176908 0.063556 0.424582 0.253638
N8    N     N_1   0.141979 0.124438 0.404287 -0.221219
C69   C     C_R   0.533627 0.725984 0.361114 0.099794
C70   C     C_R   0.465430 0.703540 0.309546 -0.156633
C71   C     C_R   0.454778 0.783750 0.265961 -0.108098
C72   C     C_R   0.511265 0.886608 0.273870 -0.086810
C73   C     C_R   0.578362 0.909416 0.325422 -0.112536
C74   C     C_R   0.589297 0.829407 0.369001 -0.108921
H17   H     H_    0.420606 0.624111 0.303260 0.132337
H18   H     H_    0.402389 0.766165 0.226187 0.151364
H19   H     H_    0.502796 0.948601 0.240153 0.133369
H20   H     H_    0.621742 0.989028 0.331684 0.134185
H21   H     H_    0.641214 0.847815 0.408630 0.147760
C75   C     C_R   0.439251 0.235985 0.610884 0.113083
C76   C     C_R   0.364131 0.143466 0.594311 -0.118271
C77   C     C_R   0.364517 0.048221 0.624781 -0.119445
C78   C     C_R   0.439307 0.044530 0.672064 -0.091793
C79   C     C_R   0.514141 0.136118 0.688893 -0.112605
C80   C     C_R   0.514609 0.231570 0.658264 -0.144265
H22   H     H_    0.306056 0.145222 0.557523 0.135381
H23   H     H_    0.307473 0.977219 0.611480 0.124413
H24   H     H_    0.439507 0.970686 0.695504 0.134018
H25   H     H_    0.572340 0.133160 0.725352 0.144724
H26   H     H_    0.573948 0.302017 0.671123 0.133588
C81   C     C_1   0.712304 0.722712 0.335259 0.231872
N9    N     N_1   0.715922 0.776619 0.290342 -0.249771
C82   C     C_1   0.282248 0.257878 0.653965 0.220516
N10   N     N_1   0.279800 0.199769 0.697176 -0.267537
C83   C     C_R   0.961154 0.645143 0.775117 0.099523
C84   C     C_R   0.029443 0.748823 0.770822 -0.055232
C85   C     C_R   0.011478 0.820308 0.793648 -0.134065
C86   C     C_R   0.925662 0.788856 0.821110 -0.114033
C87   C     C_R   0.857647 0.685845 0.825780 -0.132697
C88   C     C_R   0.875212 0.614127 0.802906 -0.175695
H27   H     H_    0.096920 0.773908 0.750354 0.151909
H28   H     H_    0.064325 0.900001 0.790268 0.146220
H29   H     H_    0.911971 0.844257 0.838881 0.135929
H30   H     H_    0.791344 0.661533 0.847190 0.138646
H31   H     H_    0.822041 0.534482 0.806860 0.150058
C89   C     C_R   0.822686 0.453773 0.183623 0.103274
C90   C     C_R   0.738649 0.359443 0.186615 -0.056042
C91   C     C_R   0.654873 0.345197 0.143174 -0.131842
C92   C     C_R   0.654427 0.424711 0.096445 -0.109633
C93   C     C_R   0.737746 0.518656 0.093110 -0.131108
C94   C     C_R   0.821630 0.533297 0.136511 -0.171495
H32   H     H_    0.738626 0.296696 0.222132 0.144391
H33   H     H_    0.590484 0.272325 0.145591 0.137058
H34   H     H_    0.589595 0.413469 0.062766 0.135339
H35   H     H_    0.737392 0.580106 0.056838 0.139682
H36   H     H_    0.885824 0.606374 0.133399 0.152310
C95   C     C_R   0.980103 0.669925 0.650219 0.109860
C96   C     C_R   0.066771 0.738439 0.624498 -0.151316
C97   C     C_R   0.070684 0.834139 0.592611 -0.141023
C98   C     C_R   0.988695 0.862410 0.586363 -0.079285
C99   C     C_R   0.901302 0.793791 0.610588 -0.096522
C100  C     C_R   0.896368 0.697294 0.641894 -0.114609
H37   H     H_    0.132464 0.719214 0.630851 0.120298
H38   H     H_    0.137993 0.887368 0.573725 0.130641
H39   H     H_    0.993367 0.937858 0.563055 0.146119
H40   H     H_    0.838198 0.816276 0.606125 0.150251
H41   H     H_    0.829079 0.645701 0.661564 0.133970
C101  C     C_R   0.808651 0.438590 0.307777 0.122764
C102  C     C_R   0.767984 0.344628 0.345164 -0.120704
C103  C     C_R   0.673528 0.314746 0.362757 -0.127059
C104  C     C_R   0.619021 0.378283 0.343302 -0.113055
C105  C     C_R   0.658624 0.471491 0.305747 -0.137075
C106  C     C_R   0.753389 0.502028 0.288199 -0.131411
H42   H     H_    0.809253 0.294417 0.360352 0.117792
H43   H     H_    0.642384 0.241910 0.391065 0.137212
H44   H     H_    0.545937 0.355075 0.357080 0.143330
H45   H     H_    0.615962 0.520233 0.290386 0.140906
H46   H     H_    0.783554 0.574658 0.259338 0.137450
C107  C     C_1   0.630639 0.801127 0.530358 0.220050
N11   N     N_1   0.651653 0.729340 0.542996 -0.290148
C108  C     C_1   0.374924 0.205972 0.442451 0.217754
N12   N     N_1   0.358037 0.280002 0.425908 -0.272780
C109  C     C_1   0.045928 0.857806 0.430764 0.299108
N13   N     N_1   0.962666 0.841553 0.411235 -0.262074
C110  C     C_1   0.951851 0.150868 0.498482 0.266679
N14   N     N_1   0.035073 0.172062 0.493384 -0.259949

loop_
_geom_bond_atom_site_label_1
_geom_bond_atom_site_label_2
_ccdc_geom_bond_type
C1    O1    A    
C87   H30   S    
C6    C101  S    
C97   C98   A    
C23   O5    A    
C69   C74   A    
C92   C93   A    
C110  N14   T    
C85   H28   S    
Cu2   N3    S    
C54   N2    A    
C90   C91   A    
C10   H12   S    
Cu1   N4    S    
C39   C41   A    
C45   N1    A    
C109  N13   T    
C27   C33   A    
C31   H1    S    
C13   N2    S    
C59   C64   A    
C66   N6    T    
C38   N4    A    
C60   C63   A    
C37   N3    A    
C96   C97   A    
C35   C37   A    
C73   C74   A    
C81   N9    T    
C29   C32   A    
C88   H31   S    
C50   H8    S    
Cu2   O2    S    
C74   H21   S    
C7    C23   S    
C57   C59   A    
C105  C106  A    
C58   C60   A    
C12   H14   S    
C70   C71   A    
C2    O4    A    
C104  C105  A    
Cu1   O4    S    
C40   N4    A    
C79   H25   S    
C61   C63   A    
C72   C73   A    
C62   C64   A    
C67   N7    T    
C17   C19   A    
C75   C76   A    
C39   H4    S    
C99   C100  A    
C49   C51   A    
C47   C48   A    
C50   C52   A    
C69   C70   A    
C31   C33   A    
C2    O2    A    
C73   H20   S    
C1    C15   S    
Cu2   O3    S    
C2    C16   S    
C35   C81   S    
C18   C20   A    
C90   H32   S    
C3    C13   A    
C16   C20   A    
C32   H2    S    
C62   C66   S    
C44   C52   A    
C40   C42   A    
C87   C88   A    
C28   C34   A    
C83   C88   A    
Cu1   O5    S    
C41   C43   A    
C34   C108  S    
C61   C65   S    
C11   H13   S    
C42   C44   A    
C14   N1    S    
C24   O6    A    
C41   C47   A    
Cu1   O1    S    
C47   C50   A    
C105  H45   S    
C53   C55   A    
C25   C29   A    
C103  H43   S    
C54   C56   A    
C72   H19   S    
C40   H3    S    
C33   C107  S    
C17   C27   A    
C22   H15   S    
C103  C104  A    
C85   C86   A    
C18   C28   A    
C93   C94   A    
C4    C6    A    
C36   C82   S    
C19   C110  S    
C102  C103  A    
C5    C7    A    
C77   H23   S    
C89   C90   A    
Cu2   O6    S    
C53   O11   S    
C76   H22   S    
C91   H33   S    
C16   C22   A    
C3    C83   S    
C32   C34   A    
C70   H17   S    
C42   C48   A    
C15   C19   A    
C94   H36   S    
C29   C30   A    
C24   O8    A    
C65   N5    T    
C15   C21   A    
C104  H44   S    
C64   H10   S    
C9    H11   S    
C100  H41   S    
C9    C11   A    
C78   C79   A    
C102  H42   S    
C10   C12   A    
C71   H18   S    
Cu2   O7    S    
C46   N2    A    
C98   H39   S    
C8    C10   A    
Cu1   O8    S    
C12   C14   A    
C96   H37   S    
C26   C30   A    
C55   C57   A    
C98   C99   A    
C83   C84   A    
C56   C62   A    
C36   C44   A    
C93   H35   S    
C39   N3    A    
C82   N10   T    
C45   O9    S    
C84   H27   S    
C35   C43   A    
C77   C78   A    
C91   C92   A    
C106  H46   S    
C7    C9    A    
C21   C25   A    
C38   H5    S    
C45   C59   A    
C1    O3    A    
C89   C94   A    
C46   C60   A    
C95   C100  A    
C86   C87   A    
C3    C5    A    
C4    C89   S    
C6    C8    A    
C76   C77   A    
C84   C85   A    
C25   C27   A    
C68   N8    T    
C26   C28   A    
C53   N1    A    
C36   C38   A    
C92   H34   S    
C17   C67   S    
C18   C68   S    
C78   H24   S    
C5    C95   S    
C71   C72   A    
C11   C13   A    
C43   C51   A    
C57   C58   A    
C30   C31   A    
C101  C102  A    
C63   H9    S    
C48   C49   A    
C55   C61   A    
C8    C24   S    
C86   H29   S    
C56   C58   A    
C49   H7    S    
C75   C80   A    
Cu1   Cu2   S    
C4    C14   A    
C108  N12   T    
C23   O7    A    
C101  C106  A    
C46   O10   S    
C21   H16   S    
C51   C69   S    
C107  N11   T    
C22   C26   A    
C37   H6    S    
C80   H26   S    
C95   C96   A    
C99   H40   S    
C54   O12   S    
C79   C80   A    
C97   H38   S    
C20   C109  S    
C52   C75   S    
