data_mof_unit_39940.cif
_audit_creation_date              2012-12-11T14:10:38-0500
_audit_creation_method            fapswitch 2.2
_symmetry_space_group_name_H-M    P1
_symmetry_Int_Tables_number       1
_space_group_crystal_system       triclinic
_cell_length_a                    19.719871
_cell_length_b                    17.197647
_cell_length_c                    15.463904
_cell_angle_alpha                 90.000201
_cell_angle_beta                  52.497187
_cell_angle_gamma                 90.000245
_cell_volume                      4160.47136813

loop_
_atom_site_label
_atom_site_type_symbol
_atom_type_description
_atom_site_fract_x
_atom_site_fract_y
_atom_site_fract_z
_atom_type_partial_charge
C1    C     C_R   0.374418 0.197110 0.994941 -0.122995
C2    C     C_R   0.625577 0.802889 0.005064 -0.123036
C3    C     C_R   0.660855 0.175050 0.951149 -0.101894
C4    C     C_R   0.339149 0.824945 0.048840 -0.101825
C5    C     C_R   0.839151 0.675057 0.048835 -0.101832
C6    C     C_R   0.160853 0.324949 0.951152 -0.101896
C7    C     C_R   0.125578 0.697111 0.005064 -0.123001
C8    C     C_R   0.874418 0.302890 0.994940 -0.122986
C9    C     C_3   0.203055 0.187983 0.589525 -0.454463
C10   C     C_3   0.796545 0.811832 0.410689 -0.454475
C11   C     C_3   0.704222 0.240503 0.431124 -0.435345
C12   C     C_3   0.295946 0.759411 0.568814 -0.435265
C13   C     C_3   0.796015 0.740633 0.568796 -0.435764
C14   C     C_3   0.204209 0.259489 0.431129 -0.435412
C15   C     C_3   0.296666 0.688112 0.410629 -0.454377
C16   C     C_3   0.703007 0.312041 0.589552 -0.454436
C17   C     C_2   0.190118 0.743569 0.095141 -0.150614
C18   C     C_2   0.809876 0.256435 0.904863 -0.150828
C19   C     C_2   0.713279 0.687161 0.045766 -0.187404
C20   C     C_2   0.286724 0.312840 0.954225 -0.187550
C21   C     C_2   0.786727 0.187159 0.954219 -0.187534
C22   C     C_2   0.213276 0.812840 0.045772 -0.187374
C23   C     C_2   0.309875 0.243564 0.904866 -0.150858
C24   C     C_2   0.690119 0.756431 0.095139 -0.150810
C25   C     C_R   0.390612 0.802626 0.213221 -0.121062
C26   C     C_R   0.609308 0.197398 0.786825 -0.121105
C27   C     C_R   0.651275 0.828121 0.779693 -0.095988
C28   C     C_R   0.348746 0.171905 0.220316 -0.096327
C29   C     C_R   0.848746 0.328093 0.220317 -0.096364
C30   C     C_R   0.151266 0.671890 0.779690 -0.096116
C31   C     C_R   0.109322 0.302606 0.786817 -0.121114
C32   C     C_R   0.890582 0.697365 0.213239 -0.121189
C33   C     C_R   0.329796 0.913281 0.951197 -0.138331
C34   C     C_R   0.670206 0.086718 0.048799 -0.138302
C35   C     C_R   0.634426 0.889776 0.103113 -0.152539
C36   C     C_R   0.365570 0.110222 0.896891 -0.152459
C37   C     C_R   0.865570 0.389778 0.896891 -0.152452
C38   C     C_R   0.134427 0.610224 0.103113 -0.152460
C39   C     C_R   0.170204 0.413282 0.048801 -0.138315
C40   C     C_R   0.829797 0.586719 0.951194 -0.138374
C41   C     C_R   0.355524 0.078548 0.316115 -0.099382
C42   C     C_R   0.644495 0.921474 0.683896 -0.099917
C43   C     C_R   0.599810 0.106297 0.691701 -0.155509
C44   C     C_R   0.400126 0.893729 0.308336 -0.155649
C45   C     C_R   0.900104 0.606263 0.308349 -0.155497
C46   C     C_R   0.099823 0.393708 0.691694 -0.155518
C47   C     C_R   0.144486 0.578536 0.683891 -0.099771
C48   C     C_R   0.855526 0.421451 0.316116 -0.099350
C49   C     C_R   0.347114 0.185931 0.932610 0.150534
C50   C     C_R   0.652880 0.814066 0.067396 0.150542
C51   C     C_R   0.712695 0.147862 0.976695 0.145646
C52   C     C_R   0.287308 0.852135 0.023296 0.145597
C53   C     C_R   0.787310 0.647867 0.023291 0.145627
C54   C     C_R   0.212693 0.352136 0.976699 0.145659
C55   C     C_R   0.152880 0.685934 0.067397 0.150544
C56   C     C_R   0.847114 0.314068 0.932609 0.150531
C57   C     C_R   0.376523 0.818723 0.309751 0.151188
C58   C     C_R   0.623341 0.181326 0.690326 0.151162
C59   C     C_R   0.693495 0.861449 0.677979 0.126013
C60   C     C_R   0.306544 0.138592 0.322036 0.125993
C61   C     C_R   0.806547 0.361405 0.322039 0.126003
C62   C     C_R   0.193479 0.638569 0.677974 0.126047
C63   C     C_R   0.123365 0.318683 0.690312 0.151194
C64   C     C_R   0.876473 0.681261 0.309781 0.151385
C65   C     C_3   0.165980 0.153997 0.533215 0.235140
C66   C     C_3   0.833811 0.846054 0.466652 0.235184
C67   C     C_3   0.741632 0.207114 0.486780 0.250031
C68   C     C_3   0.258394 0.792988 0.513419 0.250172
C69   C     C_3   0.758404 0.706978 0.513505 0.250218
C70   C     C_3   0.241638 0.292901 0.486751 0.250034
C71   C     C_3   0.333869 0.653966 0.466701 0.235137
C72   C     C_3   0.665951 0.346005 0.533206 0.235137
C73   C     C_3   0.717803 0.784620 0.522731 0.564283
C74   C     C_3   0.282007 0.215149 0.477633 0.564270
C75   C     C_3   0.375515 0.732828 0.455632 0.567899
C76   C     C_3   0.624486 0.267051 0.544188 0.567892
C77   C     C_3   0.124495 0.232939 0.544207 0.567902
C78   C     C_3   0.875525 0.767227 0.455559 0.567856
C79   C     C_3   0.781981 0.284877 0.477674 0.564256
C80   C     C_3   0.217863 0.715312 0.522618 0.564295
C81   C     C_3   0.754035 0.819320 0.578314 -0.080795
C82   C     C_3   0.245958 0.180688 0.421715 -0.080787
C83   C     C_3   0.338237 0.766849 0.401431 -0.093574
C84   C     C_3   0.661624 0.233210 0.598653 -0.093459
C85   C     C_3   0.161651 0.266802 0.598638 -0.093410
C86   C     C_3   0.838187 0.733132 0.401464 -0.093241
C87   C     C_3   0.745951 0.319316 0.421721 -0.080806
C88   C     C_3   0.254035 0.680688 0.578306 -0.080907
H1    H     H_    0.381806 0.251831 0.022599 0.083307
H2    H     H_    0.618187 0.748168 0.977408 0.083329
H3    H     H_    0.670813 0.224497 0.901897 0.087742
H4    H     H_    0.329194 0.775491 0.098079 0.087691
H5    H     H_    0.829197 0.724514 0.098069 0.087688
H6    H     H_    0.170811 0.275500 0.901903 0.087739
H7    H     H_    0.118188 0.751832 0.977407 0.083329
H8    H     H_    0.881805 0.248169 0.022599 0.083307
H9    H     H_    0.388505 0.746180 0.184189 0.091718
H10   H     H_    0.611405 0.253839 0.815879 0.091709
H11   H     H_    0.669976 0.777024 0.801000 0.096530
H12   H     H_    0.330046 0.222998 0.199001 0.096569
H13   H     H_    0.830046 0.277001 0.199002 0.096574
H14   H     H_    0.169966 0.722986 0.801001 0.096536
H15   H     H_    0.111421 0.246164 0.815867 0.091713
H16   H     H_    0.888471 0.753813 0.184215 0.091749
H17   H     H_    0.309476 0.947053 0.911678 0.097380
H18   H     H_    0.690526 0.052947 0.088318 0.097384
H19   H     H_    0.637977 0.915799 0.163948 0.093595
H20   H     H_    0.362019 0.084199 0.836056 0.093630
H21   H     H_    0.862020 0.415800 0.836055 0.093627
H22   H     H_    0.137977 0.584201 0.163948 0.093600
H23   H     H_    0.190525 0.447052 0.088321 0.097381
H24   H     H_    0.809478 0.552947 0.911675 0.097381
H25   H     H_    0.342986 0.043745 0.382606 0.087860
H26   H     H_    0.657027 0.956269 0.617402 0.087911
H27   H     H_    0.593855 0.078876 0.633672 0.089661
H28   H     H_    0.406090 0.921142 0.366360 0.089741
H29   H     H_    0.906075 0.578854 0.366369 0.089782
H30   H     H_    0.093868 0.421128 0.633664 0.089673
H31   H     H_    0.157021 0.543738 0.617398 0.087873
H32   H     H_    0.842986 0.456254 0.382607 0.087847
H33   H     H_    0.203781 0.159145 0.653171 0.160417
H34   H     H_    0.795547 0.840534 0.347176 0.160415
H35   H     H_    0.703323 0.211846 0.367514 0.166225
H36   H     H_    0.297049 0.787952 0.632325 0.166284
H37   H     H_    0.797192 0.712138 0.632280 0.166297
H38   H     H_    0.203285 0.288131 0.367532 0.166233
H39   H     H_    0.295749 0.659368 0.347082 0.160401
H40   H     H_    0.703706 0.340894 0.653213 0.160412
H41   H     H_    0.211415 0.723368 0.141391 0.124571
H42   H     H_    0.788574 0.276639 0.858621 0.124676
H43   H     H_    0.689986 0.666154 0.002123 0.120935
H44   H     H_    0.310023 0.333850 0.997860 0.120961
H45   H     H_    0.810026 0.166148 0.997852 0.120958
H46   H     H_    0.189981 0.833848 0.002132 0.120927
H47   H     H_    0.288573 0.223360 0.858622 0.124683
H48   H     H_    0.711414 0.776632 0.141392 0.124603
N1    N     N_R   0.408680 0.130810 0.995780 -0.045488
N2    N     N_R   0.591320 0.869190 0.004220 -0.045505
N3    N     N_R   0.591320 0.130810 0.004220 -0.047593
N4    N     N_R   0.408680 0.869190 0.995780 -0.047580
N5    N     N_R   0.908680 0.630810 0.995780 -0.047582
N6    N     N_R   0.091320 0.369190 0.004220 -0.047594
N7    N     N_R   0.091320 0.630810 0.004220 -0.045503
N8    N     N_R   0.908680 0.369190 0.995780 -0.045488
N9    N     N_R   0.421410 0.867210 0.153620 -0.046011
N10   N     N_R   0.578590 0.132790 0.846380 -0.046009
N11   N     N_R   0.578590 0.867210 0.846380 -0.048008
N12   N     N_R   0.421410 0.132790 0.153620 -0.048037
N13   N     N_R   0.921410 0.367210 0.153620 -0.048039
N14   N     N_R   0.078590 0.632790 0.846380 -0.048017
N15   N     N_R   0.078590 0.367210 0.846380 -0.046009
N16   N     N_R   0.921410 0.632790 0.153620 -0.046012
N17   N     N_R   0.403840 0.921910 0.935760 -0.041940
N18   N     N_R   0.596160 0.078090 0.064240 -0.041938
N19   N     N_R   0.596160 0.921910 0.064240 -0.040610
N20   N     N_R   0.403840 0.078090 0.935760 -0.040620
N21   N     N_R   0.903840 0.421910 0.935760 -0.040619
N22   N     N_R   0.096160 0.578090 0.064240 -0.040621
N23   N     N_R   0.096160 0.421910 0.064240 -0.041941
N24   N     N_R   0.903840 0.578090 0.935760 -0.041941
N25   N     N_R   0.426250 0.076100 0.213650 -0.042083
N26   N     N_R   0.573750 0.923900 0.786350 -0.042045
N27   N     N_R   0.573750 0.076100 0.786350 -0.041359
N28   N     N_R   0.426250 0.923900 0.213650 -0.041369
N29   N     N_R   0.926250 0.576100 0.213650 -0.041408
N30   N     N_R   0.073750 0.423900 0.786350 -0.041366
N31   N     N_R   0.073750 0.576100 0.786350 -0.042061
N32   N     N_R   0.926250 0.423900 0.213650 -0.042091
Ni1   Ni    Ni4+2 0.500000 0.131570 0.000000 0.213330
Ni2   Ni    Ni4+2 0.500000 0.868430 0.000000 0.213383
Ni3   Ni    Ni4+2 0.000000 0.631570 0.000000 0.213385
Ni4   Ni    Ni4+2 0.000000 0.368430 0.000000 0.213329
Ni5   Ni    Ni4+2 0.488900 0.000000 0.862310 0.217002
Ni6   Ni    Ni4+2 0.511100 0.000000 0.137690 0.217042
Ni7   Ni    Ni4+2 0.988900 0.500000 0.862310 0.217003
Ni8   Ni    Ni4+2 0.011100 0.500000 0.137690 0.217063
O1    O     O_3   0.633081 0.791519 0.560217 -0.734783
H49   H     H_    0.630014 0.841697 0.531234 0.301842
O2    O     O_3   0.366621 0.208045 0.440475 -0.734806
H50   H     H_    0.369464 0.157841 0.469595 0.301784
O3    O     O_3   0.460354 0.741878 0.416334 -0.732608
H51   H     H_    0.468054 0.798510 0.419335 0.301681
O4    O     O_3   0.539730 0.257834 0.583229 -0.732551
H52   H     H_    0.532183 0.201185 0.580098 0.301690
O5    O     O_3   0.039728 0.242134 0.583286 -0.732571
H53   H     H_    0.032174 0.298772 0.580101 0.301711
O6    O     O_3   0.960403 0.758232 0.416137 -0.732684
H54   H     H_    0.968023 0.701661 0.419670 0.301786
O7    O     O_3   0.866586 0.291998 0.440551 -0.734818
H55   H     H_    0.869409 0.342207 0.469681 0.301765
O8    O     O_3   0.133177 0.708349 0.560001 -0.734886
H56   H     H_    0.130176 0.658160 0.530983 0.301788
C89   C     C_3   0.122624 0.075572 0.556901 -0.882784
H57   H     H_    0.065419 0.072967 0.643632 0.256566
H58   H     H_    0.103021 0.067075 0.503807 0.259193
H59   H     H_    0.167861 0.029024 0.540547 0.230149
C90   C     C_3   0.877061 0.924568 0.442712 -0.882955
H60   H     H_    0.934158 0.927164 0.355911 0.256555
H61   H     H_    0.831693 0.971000 0.459142 0.230089
H62   H     H_    0.896820 0.933256 0.495613 0.259219
C91   C     C_3   0.788193 0.129717 0.457682 -0.916782
H63   H     H_    0.847679 0.131719 0.372472 0.261842
H64   H     H_    0.804690 0.118086 0.513470 0.262629
H65   H     H_    0.746784 0.082400 0.464936 0.215688
C92   C     C_3   0.211923 0.870452 0.542675 -0.917215
H66   H     H_    0.152524 0.868464 0.627943 0.261830
H67   H     H_    0.253432 0.917709 0.535315 0.215791
H68   H     H_    0.195287 0.882178 0.487052 0.262562
C93   C     C_3   0.711970 0.629484 0.542837 -0.917254
H69   H     H_    0.652616 0.631457 0.628153 0.261809
H70   H     H_    0.695250 0.617720 0.487303 0.262534
H71   H     H_    0.753543 0.582259 0.535401 0.215785
C94   C     C_3   0.288190 0.370304 0.457635 -0.916823
H72   H     H_    0.347660 0.368306 0.372414 0.261837
H73   H     H_    0.246767 0.417618 0.464916 0.215708
H74   H     H_    0.304712 0.381939 0.513396 0.262610
C95   C     C_3   0.377150 0.575482 0.442847 -0.882862
H75   H     H_    0.434237 0.572853 0.356041 0.256506
H76   H     H_    0.396931 0.566889 0.495736 0.259259
H77   H     H_    0.331793 0.529011 0.459355 0.230091
C96   C     C_3   0.622587 0.424426 0.556867 -0.882753
H78   H     H_    0.565362 0.427029 0.643586 0.256574
H79   H     H_    0.667809 0.470982 0.540542 0.230160
H80   H     H_    0.603013 0.432912 0.503741 0.259177

loop_
_geom_bond_atom_site_label_1
_geom_bond_atom_site_label_2
_ccdc_geom_bond_type
N2    N19   A    
C68   C80   S    
C13   H37   S    
C41   N25   A    
N2    Ni2   S    
N13   Ni4   S    
C77   O5    S    
C91   H63   S    
C8    H8    S    
C7    C55   A    
N6    N23   A    
C72   C76   S    
C75   C83   S    
C16   C72   S    
C76   C84   S    
C47   C62   A    
C7    N7    A    
N16   N29   A    
C91   H64   S    
C40   H24   S    
N26   Ni5   S    
C92   H66   S    
C95   H77   S    
C12   C68   S    
C27   H11   S    
C34   C51   A    
C10   C66   S    
C22   H46   S    
N12   N25   A    
N17   Ni5   S    
N6    Ni4   S    
N10   Ni1   S    
C35   N19   A    
C96   H80   S    
C11   C76   S    
C10   C73   S    
C33   N17   A    
C68   C83   S    
C23   C49   S    
C39   C54   A    
C36   H20   S    
N14   N31   A    
C45   H29   S    
C18   C21   D    
C13   C81   S    
C16   C84   S    
C93   H71   S    
C47   N31   A    
C46   H30   S    
C3    H3    S    
C1    C49   A    
C14   C77   S    
C37   N21   A    
C26   N10   A    
C2    C50   A    
C43   C58   A    
C9    C85   S    
N9    Ni2   S    
C37   C56   A    
C60   C82   S    
C42   H26   S    
C38   C55   A    
N14   Ni3   S    
C29   H13   S    
C11   C87   S    
C6    H6    S    
C48   N32   A    
C70   C74   S    
C9    H33   S    
C57   C83   S    
N5    Ni3   S    
N28   Ni6   S    
C6    N6    A    
C76   O4    S    
C61   C87   S    
C17   C55   S    
C37   H21   S    
C89   H57   S    
N11   Ni2   S    
C18   C56   S    
N4    N17   A    
C73   O1    S    
C78   C86   S    
C92   H67   S    
C19   C53   S    
C77   C85   S    
C67   C84   S    
C15   H39   S    
C79   C87   S    
C63   C85   S    
C24   C50   S    
C91   H65   S    
C14   C70   S    
C20   C54   S    
C8    C56   A    
C90   H60   S    
N13   N32   A    
C25   C57   A    
C6    C54   A    
C21   H45   S    
C65   C82   S    
C11   C67   S    
C93   H69   S    
C65   C89   S    
C34   N18   A    
C19   H43   S    
C66   C78   S    
C29   C61   A    
N20   Ni5   S    
C64   C86   S    
C28   N12   A    
C74   O2    S    
C17   H41   S    
O8    H56   S    
C2    N2    A    
C31   C63   A    
C65   C77   S    
C32   C64   A    
C48   H32   S    
C34   H18   S    
N16   Ni3   S    
N18   Ni6   S    
C15   C83   S    
N3    N18   A    
C89   H58   S    
C95   H75   S    
O3    H51   S    
C62   C88   S    
N21   Ni7   S    
N15   Ni4   S    
C71   C88   S    
N1    N20   A    
C43   H27   S    
C33   C52   A    
C69   C93   S    
C31   H15   S    
C20   H44   S    
C90   H62   S    
O4    H52   S    
C96   H78   S    
C67   C91   S    
C58   C84   S    
C4    N4    A    
C31   N15   A    
N5    N24   A    
C5    N5    A    
C15   C80   S    
C32   N16   A    
C20   C23   D    
C94   H72   S    
C44   C57   A    
C89   H59   S    
C30   H14   S    
C35   C50   A    
C32   H16   S    
N12   Ni1   S    
N30   Ni7   S    
C67   C79   S    
C8    N8    A    
C69   C73   S    
C26   C58   A    
C28   H12   S    
C38   N22   A    
C28   C60   A    
C15   C71   S    
C73   C81   S    
N19   Ni6   S    
C25   H9    S    
C26   H10   S    
O1    H49   S    
N23   Ni8   S    
C30   C62   A    
C80   O8    S    
C18   H42   S    
C38   H22   S    
C9    C74   S    
C14   C82   S    
N27   Ni5   S    
C21   C51   S    
C72   C87   S    
C1    N1    A    
C47   H31   S    
C36   N20   A    
N7    N22   A    
N31   Ni7   S    
C74   C82   S    
C92   H68   S    
N22   Ni8   S    
N32   Ni8   S    
C94   H74   S    
C13   C78   S    
C10   C86   S    
C1    H1    S    
C46   N30   A    
C30   N14   A    
C39   N23   A    
C70   C94   S    
N1    Ni1   S    
C40   N24   A    
C11   H35   S    
C59   C81   S    
C41   C60   A    
C41   H25   S    
C10   H34   S    
N11   N26   A    
C71   C95   S    
C42   C59   A    
C5    H5    S    
C42   N26   A    
C80   C88   S    
N4    Ni2   S    
N9    N28   A    
C95   H76   S    
N15   N30   A    
C7    H7    S    
N10   N27   A    
N8    Ni4   S    
C45   C64   A    
N29   Ni8   S    
C17   C22   D    
C14   H38   S    
C33   H17   S    
C23   H47   S    
C46   C63   A    
C16   C79   S    
C90   H61   S    
C19   C24   D    
C5    C53   A    
C94   H73   S    
N7    Ni3   S    
O6    H54   S    
C96   H79   S    
C27   N11   A    
C27   C59   A    
C66   C81   S    
C71   C75   S    
N25   Ni6   S    
C24   H48   S    
O5    H53   S    
C13   C69   S    
C72   C96   S    
C39   H23   S    
N24   Ni7   S    
C3    C51   A    
N3    Ni1   S    
C22   C52   S    
C4    C52   A    
C16   H40   S    
O7    H55   S    
C9    C65   S    
C66   C90   S    
C35   H19   S    
C36   C49   A    
C29   N13   A    
O2    H50   S    
C3    N3    A    
C44   H28   S    
C2    H2    S    
C40   C53   A    
C79   O7    S    
C12   C75   S    
C48   C61   A    
C68   C92   S    
C93   H70   S    
C25   N9    A    
C78   O6    S    
C44   N28   A    
N8    N21   A    
C70   C85   S    
C45   N29   A    
C12   H36   S    
C12   C88   S    
C69   C86   S    
C43   N27   A    
C4    H4    S    
C75   O3    S    
