data_mof_unit_40941.cif
_audit_creation_date              2013-03-05T15:42:19-0500
_audit_creation_method            fapswitch 2.2
_symmetry_space_group_name_H-M    P1
_symmetry_Int_Tables_number       1
_space_group_crystal_system       triclinic
_cell_length_a                    7.795871
_cell_length_b                    8.609615
_cell_length_c                    19.07967
_cell_angle_alpha                 91.21756
_cell_angle_beta                  86.143159
_cell_angle_gamma                 92.708099
_cell_volume                      1276.0798463

loop_
_atom_site_label
_atom_site_type_symbol
_atom_site_description
_atom_site_fract_x
_atom_site_fract_y
_atom_site_fract_z
_atom_type_partial_charge
O1    O     O_R   0.389250 0.738570 0.504600 -0.605987
O2    O     O_R   0.610750 0.261430 0.495400 -0.602850
O3    O     O_R   0.678400 0.711620 0.492580 -0.651392
O4    O     O_R   0.321600 0.288380 0.507420 -0.650802
C1    C     C_R   0.544367 0.794081 0.498717 0.934783
C2    C     C_R   0.455594 0.205939 0.501436 0.951989
O5    O     O_R   0.355380 0.513500 0.607880 -0.626174
O6    O     O_R   0.644620 0.486500 0.392120 -0.622071
O7    O     O_R   0.644530 0.486550 0.595850 -0.611268
O8    O     O_R   0.355470 0.513450 0.404150 -0.614628
C3    C     C_R   0.504337 0.507725 0.634463 0.898828
C4    C     C_R   0.496786 0.501104 0.365052 0.893180
Zn1   Zn    Zn3+2 0.306930 0.517990 0.508030 0.984734
Zn2   Zn    Zn3+2 0.693070 0.482010 0.491970 0.987364
C5    C     C_R   0.414297 0.659527 0.742102 -0.046808
C6    C     C_R   0.623559 0.457990 0.242774 -0.043688
C7    C     C_R   0.414386 0.686669 0.814987 -0.074306
C8    C     C_R   0.638397 0.497753 0.171460 -0.077330
C9    C     C_R   0.529609 0.606903 0.853494 -0.038948
C10   C     C_R   0.512554 0.589727 0.145192 -0.036573
C11   C     C_R   0.647439 0.504262 0.820341 -0.024911
C12   C     C_R   0.373330 0.642582 0.188946 -0.031834
C13   C     C_R   0.642596 0.474762 0.747873 -0.099908
C14   C     C_R   0.360117 0.602944 0.260125 -0.071025
C15   C     C_R   0.518190 0.544457 0.709578 -0.144804
C16   C     C_R   0.491195 0.518202 0.288243 -0.148493
N1    N     N_R   0.647378 0.690894 0.963946 -0.116406
N2    N     N_R   0.380310 0.542875 0.035222 -0.107280
N3    N     N_R   0.644069 0.685700 0.033554 -0.134262
N4    N     N_R   0.383362 0.548447 0.965836 -0.124001
C17   C     C_R   0.511292 0.609856 0.069873 0.333135
C18   C     C_R   0.517490 0.621138 0.929382 0.312746
C19   C     C_2   0.562296 0.955418 0.510766 -0.227937
C20   C     C_2   0.437294 0.044512 0.489876 -0.222394
N5    N     N_2   0.950330 0.457950 0.481240 -0.150800
N6    N     N_2   0.049670 0.542050 0.518760 -0.151332
C21   C     C_1   0.324000 0.762656 0.699544 0.308725
N7    N     N_1   0.253514 0.846045 0.665686 -0.156345
C22   C     C_1   0.730200 0.339186 0.267158 0.300028
N8    N     N_1   0.814095 0.243171 0.286177 -0.150899
C23   C     C_2   0.297279 0.799467 0.851944 0.437214
H1    H     H_    0.329769 0.852589 0.901724 0.102662
O9    O     O_2   0.161368 0.831076 0.828512 -0.542133
C24   C     C_2   0.780304 0.437652 0.123162 0.434468
H2    H     H_    0.760104 0.413176 0.068276 0.136387
O10   O     O_2   0.922635 0.418492 0.143770 -0.557961
C25   C     C_2   0.773592 0.422931 0.860689 0.457358
H3    H     H_    0.899911 0.399504 0.836467 0.082738
O11   O     O_2   0.736101 0.375907 0.919917 -0.556730
C26   C     C_2   0.241349 0.741609 0.161039 0.481213
H4    H     H_    0.109767 0.736294 0.183637 0.089009
O12   O     O_2   0.279362 0.833709 0.114085 -0.536598
C27   C     C_1   0.766253 0.372081 0.713633 0.241625
N9    N     N_1   0.867179 0.291761 0.686918 -0.129017
C28   C     C_1   0.209960 0.650294 0.303147 0.279707
N10   N     N_1   0.089260 0.687759 0.336827 -0.168457
C29   C     C_2   0.690385 0.006068 0.561974 0.422528
H5    H     H_    0.821283 0.968412 0.555013 0.079068
O13   O     O_2   0.647337 0.083906 0.613817 -0.556922
C30   C     C_2   0.308461 0.993482 0.439078 0.430995
H6    H     H_    0.175986 0.026059 0.447834 0.075996
O14   O     O_2   0.352313 0.920763 0.385804 -0.569645
C31   C     C_1   0.027964 0.363657 0.429965 0.398735
N11   N     N_1   0.091060 0.284510 0.386767 -0.231625
C32   C     C_1   0.972452 0.633034 0.571456 0.394260
N12   N     N_1   0.910160 0.709420 0.615930 -0.234930

loop_
_geom_bond_atom_site_label_1
_geom_bond_atom_site_label_2
_geom_bond_distance
_ccdc_geom_bond_type
C26   O12   1.221228 D    
O7    Zn2   1.992544 S    
O8    Zn1   1.992548 S    
C21   N7    1.157355 T    
C10   C17   1.451869 S    
C8    C24   1.495824 S    
N1    N3    1.328277 A    
C23   O9    1.221753 D    
C23   H1    1.085536 S    
O5    C3    1.301538 A    
C25   H3    1.085175 S    
C20   C30   1.487382 S    
C12   C26   1.498320 S    
O6    C4    1.306632 A    
C28   N10   1.157987 T    
N2    N4    1.324329 A    
C19   C20   1.353809 D    
C25   O11   1.220725 D    
C27   N9    1.157389 T    
C14   C28   1.453238 S    
N4    C18   1.351895 A    
O7    C3    1.294333 A    
C14   C16   1.423094 A    
C29   H5    1.084111 S    
O2    C2    1.278113 A    
O3    Zn2   1.985289 S    
O8    C4    1.295611 A    
O1    C1    1.277794 A    
C9    C18   1.447606 S    
O4    C2    1.287867 A    
C9    C11   1.414089 A    
C10   C12   1.410906 A    
C13   C27   1.452212 S    
C8    C10   1.413189 A    
C11   C13   1.403159 A    
C6    C16   1.413214 A    
O2    Zn2   1.976666 S    
C12   C14   1.403197 A    
C29   O13   1.220076 D    
C7    C23   1.497292 S    
C5    C15   1.415865 A    
C3    C15   1.471034 S    
C6    C22   1.451361 S    
C7    C9    1.409552 A    
C31   N11   1.157086 T    
O5    Zn1   1.968474 S    
C13   C15   1.415447 A    
O1    Zn1   1.976666 S    
C24   H2    1.084212 S    
Zn1   N6    2.022212 S    
C6    C8    1.406005 A    
C32   N12   1.157328 T    
C4    C16   1.479731 S    
C22   N8    1.156962 T    
C5    C7    1.405247 A    
C11   C25   1.496669 S    
N6    C32   1.384388 S    
C5    C21   1.452529 S    
C19   C29   1.487905 S    
O6    Zn2   1.968476 S    
C26   H4    1.084971 S    
N1    C18   1.355163 A    
N3    C17   1.355318 A    
N5    C31   1.384011 S    
Zn2   N5    2.022211 S    
N2    C17   1.353263 A    
C30   O14   1.220019 D    
C2    C20   1.404664 S    
O4    Zn1   1.985289 S    
C24   O10   1.221387 D    
C30   H6    1.084125 S    
O3    C1    1.288289 A    
N5    N6    1.279091 D    
C1    C19   1.405078 S    
