data_mof_unit_28675.cif
_audit_creation_date              2012-12-10T20:37:26-0500
_audit_creation_method            fapswitch 2.2
_symmetry_space_group_name_H-M    P1
_symmetry_Int_Tables_number       1
_space_group_crystal_system       triclinic
_cell_length_a                    15.721369
_cell_length_b                    10.662706
_cell_length_c                    9.857524
_cell_angle_alpha                 89.957185
_cell_angle_beta                  89.939447
_cell_angle_gamma                 90.078021
_cell_volume                      1652.43685298

loop_
_atom_site_label
_atom_site_type_symbol
_atom_type_description
_atom_site_fract_x
_atom_site_fract_y
_atom_site_fract_z
_atom_type_partial_charge
C1    C     C_R   0.502625 0.259921 0.500084 0.877224
C2    C     C_3   0.082908 0.497291 0.501309 0.073956
C3    C     C_3   0.972360 0.603260 0.565648 -0.323914
C4    C     C_3   0.917200 0.500795 0.498934 0.074857
C5    C     C_3   0.028452 0.599866 0.437621 0.594468
C6    C     C_3   0.972407 0.499419 0.369545 -0.320398
C7    C     C_1   0.173734 0.497873 0.500901 0.000053
C8    C     C_1   0.826347 0.500646 0.499267 0.002435
C9    C     C_R   0.514870 0.063802 0.623452 0.147186
C10   C     C_R   0.516450 0.128601 0.500878 -0.102206
C11   C     C_R   0.534606 0.064984 0.379782 -0.224231
C12   C     C_R   0.337898 0.499747 0.500075 0.907469
C13   C     C_R   0.534773 0.935319 0.379749 -0.227976
C14   C     C_R   0.516751 0.871382 0.500802 -0.102435
C15   C     C_R   0.515089 0.935951 0.623433 0.124805
C16   C     C_3   0.453041 0.928309 0.738240 -0.472177
C17   C     C_3   0.452652 0.070441 0.738047 -0.494720
C18   C     C_R   0.459688 0.406663 0.071412 0.215311
C19   C     C_R   0.545995 0.585652 0.071851 -0.127068
C20   C     C_R   0.545987 0.585681 0.927815 -0.128215
C21   C     C_R   0.459602 0.406754 0.928802 0.219031
C22   C     C_3   0.367081 0.376175 0.923559 -0.519821
C23   C     C_R   0.502801 0.740055 0.499976 0.879556
C24   C     C_3   0.367293 0.375661 0.077559 -0.505771
C25   C     C_R   0.662125 0.500134 0.499935 0.898302
C26   C     C_3   0.971686 0.398238 0.562534 0.594866
C27   C     C_3   0.027790 0.394817 0.434488 -0.321821
C28   C     C_1   0.249010 0.498729 0.500415 -0.194791
C29   C     C_1   0.751050 0.500421 0.499648 -0.179472
C30   C     C_3   0.027685 0.498621 0.630613 -0.320185
H1    H     H_    0.052482 0.309390 0.383700 0.153214
H2    H     H_    0.482022 0.887462 0.831107 0.202173
H3    H     H_    0.390515 0.111170 0.707163 0.196766
H4    H     H_    0.481222 0.111829 0.830947 0.205321
H5    H     H_    0.581786 0.656284 0.126127 0.141399
H6    H     H_    0.581751 0.656353 0.873316 0.146068
H7    H     H_    0.328418 0.453363 0.879558 0.224326
H8    H     H_    0.354930 0.282167 0.879126 0.196488
H9    H     H_    0.328571 0.452357 0.122418 0.227257
H10   H     H_    0.355753 0.281223 0.121788 0.200607
H11   H     H_    0.947353 0.501102 0.264365 0.154665
H12   H     H_    0.947793 0.688893 0.616213 0.155604
H13   H     H_    0.052121 0.495692 0.736191 0.154740
H14   H     H_    0.542633 0.114225 0.284434 0.171464
H15   H     H_    0.542902 0.886280 0.284399 0.166323
H16   H     H_    0.391085 0.886418 0.707883 0.207668
N1    N     N_R   0.499430 0.499140 0.142800 -0.106074
N2    N     N_R   0.499430 0.499180 0.857150 -0.105432
O1    O     O_R   0.500010 0.316790 0.614690 -0.615173
O2    O     O_R   0.500000 0.316760 0.385350 -0.624420
O3    O     O_R   0.376780 0.500010 0.614650 -0.618653
O4    O     O_R   0.376770 0.499970 0.385310 -0.609743
O5    O     O_R   0.500000 0.683240 0.614650 -0.621885
O6    O     O_R   0.499990 0.683210 0.385310 -0.625151
O7    O     O_R   0.623230 0.500030 0.614690 -0.609559
O8    O     O_R   0.623220 0.499990 0.385350 -0.617440
Zn1   Zn    Zn3+2 0.500010 0.500020 0.653130 0.948581
Zn2   Zn    Zn3+2 0.499990 0.499980 0.346870 0.947299
O9    O     O_3   0.934901 0.293567 0.627826 -0.642844
C31   C     C_3   0.998522 0.210159 0.674253 0.078274
H17   H     H_    0.988965 0.196202 0.784952 0.163591
H18   H     H_    0.065123 0.244626 0.660546 0.119287
C32   C     C_3   0.988511 0.083869 0.602411 -0.348280
H19   H     H_    0.923028 0.047463 0.619109 0.233023
H20   H     H_    0.998221 0.096833 0.491579 0.211153
C33   C     C_3   0.052407 0.987845 0.655128 -0.962370
H21   H     H_    0.118449 0.020699 0.636140 0.268158
H22   H     H_    0.042965 0.897127 0.602010 0.277370
H23   H     H_    0.043276 0.972487 0.765683 0.263495
O10   O     O_3   0.065631 0.705489 0.374644 -0.646157
C34   C     C_3   0.002843 0.780297 0.311443 0.059993
H24   H     H_    0.013568 0.879049 0.342988 0.165969
H25   H     H_    0.936122 0.756538 0.340966 0.124392
C35   C     C_3   0.012788 0.771890 0.157294 -0.327681
H26   H     H_    0.078087 0.801796 0.128281 0.232760
H27   H     H_    0.003762 0.673266 0.124073 0.215480
C36   C     C_3   0.948377 0.854933 0.084423 -0.972480
H28   H     H_    0.882540 0.825075 0.109818 0.266346
H29   H     H_    0.957493 0.846845 0.973041 0.266141
H30   H     H_    0.957275 0.954557 0.114128 0.263629

loop_
_geom_bond_atom_site_label_1
_geom_bond_atom_site_label_2
_ccdc_geom_bond_type
C33   H22   S    
C32   H20   S    
C3    H12   S    
C18   C21   A    
C19   C20   A    
C25   O8    A    
C4    C8    S    
C18   N1    A    
N2    Zn1   S    
C36   H28   S    
C26   C27   S    
C35   H27   S    
C12   C28   S    
C31   C32   S    
C18   C24   S    
C8    C29   T    
O6    Zn2   S    
C5    C6    S    
C19   N1    A    
C33   H23   S    
C15   C16   S    
C22   H8    S    
C24   H9    S    
O1    Zn1   S    
C31   H18   S    
C2    C7    S    
C16   C17   S    
C35   C36   S    
O10   C34   S    
O3    Zn1   S    
C13   C14   A    
C1    O2    A    
C21   N2    A    
C33   H21   S    
C32   C33   S    
O9    C31   S    
C2    C27   S    
C17   H3    S    
C9    C10   A    
C12   O4    A    
C23   O5    A    
C36   H29   S    
C25   C29   S    
C35   H26   S    
C27   H1    S    
O2    Zn2   S    
C4    C6    S    
C16   H16   S    
C34   H25   S    
O5    Zn1   S    
C22   H7    S    
C6    H11   S    
C7    C28   T    
C31   H17   S    
C14   C23   S    
C3    C30   S    
C5    O10   S    
C6    C27   S    
C11   H14   S    
C20   N2    A    
O4    Zn2   S    
C9    C17   S    
C26   C30   S    
O7    Zn1   S    
C22   C24   S    
C30   H13   S    
C2    C5    S    
C17   H4    S    
C3    C4    S    
C12   O3    A    
C23   O6    A    
C26   O9    S    
C36   H30   S    
C1    C10   S    
C25   O7    A    
C3    C5    S    
C34   C35   S    
C4    C26   S    
C16   H2    S    
C2    C30   S    
C9    C15   A    
C34   H24   S    
C19   H5    S    
N1    Zn2   S    
C13   H15   S    
C11   C13   A    
C24   H10   S    
O8    Zn2   S    
C10   C11   A    
C32   H19   S    
C20   H6    S    
C14   C15   A    
C21   C22   S    
C1    O1    A    
