data_mof_unit_24917.cif
_audit_creation_date              2012-12-10T18:02:51-0500
_audit_creation_method            fapswitch 2.2
_symmetry_space_group_name_H-M    P1
_symmetry_Int_Tables_number       1
_space_group_crystal_system       triclinic
_cell_length_a                    10.817328
_cell_length_b                    9.508533
_cell_length_c                    27.803722
_cell_angle_alpha                 89.896968
_cell_angle_beta                  90.035778
_cell_angle_gamma                 89.85613
_cell_volume                      2859.79101143

loop_
_atom_site_label
_atom_site_type_symbol
_atom_type_description
_atom_site_fract_x
_atom_site_fract_y
_atom_site_fract_z
_atom_type_partial_charge
C1    C     C_R   0.262045 0.500089 0.500011 0.781566
C2    C     C_R   0.737958 0.499884 0.500026 0.781007
C3    C     C_R   0.502226 0.509522 0.102428 -0.109858
C4    C     C_R   0.501334 0.510183 0.898614 -0.111885
C5    C     C_R   0.396957 0.556183 0.127749 -0.006403
C6    C     C_R   0.613022 0.492033 0.873305 -0.017857
C7    C     C_R   0.293611 0.604332 0.102379 -0.174810
C8    C     C_R   0.723401 0.472981 0.898675 -0.159774
C9    C     C_R   0.606811 0.461402 0.128237 -0.123118
C10   C     C_R   0.389793 0.527533 0.872786 -0.128363
C11   C     C_R   0.495574 0.501014 0.354834 -0.188137
C12   C     C_R   0.506392 0.500393 0.645433 -0.196201
C13   C     C_R   0.390828 0.539301 0.975020 -0.025340
C14   C     C_R   0.610506 0.471395 0.026028 -0.024584
C15   C     C_R   0.612948 0.482550 0.975099 0.086122
C16   C     C_R   0.393551 0.550053 0.025953 0.090410
C17   C     C_R   0.501657 0.510925 0.949721 0.071668
C18   C     C_R   0.502265 0.510603 0.051330 0.070987
C19   C     C_R   0.280269 0.554310 0.948523 -0.310286
C20   C     C_R   0.712168 0.419123 0.052462 -0.309292
C21   C     C_R   0.278984 0.551056 0.898314 0.473716
C22   C     C_R   0.711981 0.415228 0.102708 0.471547
C23   C     C_R   0.498477 0.500167 0.407561 0.852943
C24   C     C_R   0.502742 0.499961 0.592527 0.857211
C25   C     C_R   0.291409 0.600661 0.052498 -0.209710
C26   C     C_R   0.723558 0.467742 0.948567 -0.208862
C27   C     C_R   0.064188 0.372351 0.502145 -0.188118
C28   C     C_R   0.935804 0.627636 0.498193 -0.185412
C29   C     C_R   0.936433 0.372191 0.501863 -0.189305
C30   C     C_R   0.063593 0.627745 0.498120 -0.187959
C31   C     C_R   0.871776 0.499841 0.500029 -0.015984
C32   C     C_R   0.128231 0.500097 0.500090 -0.015301
C33   C     C_R   0.438698 0.074743 0.465133 -0.026135
C34   C     C_R   0.561363 0.925199 0.534847 -0.024650
C35   C     C_R   0.560616 0.073956 0.534986 -0.026748
C36   C     C_R   0.438246 0.925913 0.465235 -0.025066
C37   C     C_R   0.397627 0.554674 0.178133 0.588060
C38   C     C_R   0.612275 0.494644 0.822924 0.604063
C39   C     C_R   0.602164 0.460334 0.178984 0.549039
C40   C     C_R   0.392877 0.519972 0.822080 0.540143
C41   C     C_R   0.562677 0.605533 0.279750 -0.188635
C42   C     C_R   0.458544 0.617694 0.720575 -0.181207
C43   C     C_R   0.562310 0.603946 0.329793 -0.290324
C44   C     C_R   0.457614 0.615736 0.670530 -0.293002
C45   C     C_R   0.425206 0.401343 0.329160 0.298517
C46   C     C_R   0.559969 0.387850 0.671311 0.302655
C47   C     C_R   0.429518 0.400001 0.278600 0.392002
C48   C     C_R   0.550982 0.384583 0.721766 0.389241
C49   C     C_R   0.496698 0.504111 0.254049 0.217991
C50   C     C_R   0.503967 0.502226 0.746563 0.193780
Cu1   Cu    Cu3+1 0.500000 0.640660 0.500000 0.936842
Cu2   Cu    Cu3+1 0.500000 0.359340 0.500000 0.968142
H1    H     H_    0.209339 0.642342 0.035634 0.132413
H2    H     H_    0.812726 0.456079 0.965493 0.140045
H3    H     H_    0.112489 0.272560 0.503910 0.150896
H4    H     H_    0.887460 0.727457 0.496686 0.152745
H5    H     H_    0.888639 0.272318 0.503126 0.149276
H6    H     H_    0.111455 0.727576 0.496499 0.151766
N1    N     N_R   0.498808 0.506415 0.202503 -0.443236
N2    N     N_R   0.503048 0.505300 0.798339 -0.448901
N3    N     N_R   0.500000 0.852070 0.500000 -0.159226
N4    N     N_R   0.500000 0.147930 0.500000 -0.166395
O1    O     O_R   0.319640 0.618740 0.500000 -0.589191
O2    O     O_R   0.680360 0.381260 0.500000 -0.589469
O3    O     O_R   0.680360 0.618740 0.500000 -0.589550
O4    O     O_R   0.319640 0.381260 0.500000 -0.588705
O5    O     O_R   0.500020 0.618770 0.430260 -0.595753
O6    O     O_R   0.499980 0.381230 0.569740 -0.543807
O7    O     O_R   0.499980 0.618770 0.569740 -0.595924
O8    O     O_R   0.500020 0.381230 0.430260 -0.546887
O9    O     O_2   0.298056 0.601209 0.202704 -0.555632
O10   O     O_2   0.720126 0.487356 0.798633 -0.531262
O11   O     O_2   0.286904 0.525684 0.796540 -0.501431
O12   O     O_2   0.699516 0.413651 0.204876 -0.513496
O13   O     O_3   0.353031 0.304023 0.353149 -0.580606
C51   C     C_3   0.233833 0.362137 0.359457 0.113461
H7    H     H_    0.191975 0.392915 0.324311 0.177259
H8    H     H_    0.237466 0.455817 0.383427 0.117631
C52   C     C_3   0.150173 0.253161 0.382655 -0.789279
H9    H     H_    0.187210 0.222330 0.418360 0.233843
H10   H     H_    0.056048 0.297801 0.387520 0.211053
H11   H     H_    0.144156 0.158479 0.359450 0.251729
O14   O     O_3   0.623475 0.282168 0.647624 -0.575387
C53   C     C_3   0.750651 0.316608 0.648180 0.120666
H12   H     H_    0.785887 0.324570 0.685750 0.193459
H13   H     H_    0.767512 0.418046 0.629128 0.120011
C54   C     C_3   0.824633 0.202393 0.622889 -0.809671
H14   H     H_    0.803370 0.202410 0.583893 0.227109
H15   H     H_    0.925027 0.222719 0.627385 0.211816
H16   H     H_    0.802530 0.097785 0.638455 0.254362
H17   H     H_    0.389894 0.130935 0.437152 0.163515
H18   H     H_    0.610821 0.868977 0.562734 0.127675
H19   H     H_    0.607995 0.129521 0.563218 0.171133
H20   H     H_    0.388455 0.870193 0.437455 0.127072
O15   O     O_3   0.360727 0.303412 0.252972 -0.562325
C55   C     C_3   0.430195 0.178235 0.248688 0.072920
H21   H     H_    0.447147 0.129976 0.284637 0.172484
H22   H     H_    0.520430 0.198178 0.230630 0.162067
C56   C     C_3   0.358256 0.073683 0.218322 -0.741624
H23   H     H_    0.341380 0.118154 0.181924 0.246218
H24   H     H_    0.411857 0.974463 0.214743 0.206821
H25   H     H_    0.268150 0.050052 0.235643 0.257407
O16   O     O_3   0.596154 0.269976 0.746929 -0.546592
C57   C     C_3   0.499891 0.171191 0.751997 0.083705
H26   H     H_    0.466990 0.134364 0.716178 0.157810
H27   H     H_    0.420787 0.217127 0.772347 0.148902
C58   C     C_3   0.547709 0.044336 0.779808 -0.760319
H28   H     H_    0.580139 0.077396 0.815969 0.252204
H29   H     H_    0.472597 0.965909 0.784139 0.187047
H30   H     H_    0.625626 0.994709 0.760068 0.256669
H31   H     H_    0.213229 0.644976 0.121001 0.170933
H32   H     H_    0.810575 0.460283 0.880019 0.191705
H33   H     H_    0.418577 0.704735 0.651404 0.188164
H34   H     H_    0.615421 0.682278 0.349021 0.183104
H35   H     H_    0.422675 0.708850 0.739296 0.169882
H36   H     H_    0.614683 0.685441 0.260791 0.164950
O17   O     O_3   0.166959 0.564465 0.874680 -0.535440
C59   C     C_3   0.135404 0.708567 0.872316 0.078000
H37   H     H_    0.209776 0.770438 0.854373 0.143570
H38   H     H_    0.118530 0.751910 0.908925 0.121571
C60   C     C_3   0.017445 0.725749 0.843058 -0.692758
H39   H     H_    0.940322 0.669005 0.860780 0.240131
H40   H     H_    0.992879 0.838932 0.840309 0.189060
H41   H     H_    0.030979 0.682940 0.806287 0.274122
O18   O     O_3   0.810646 0.353045 0.126361 -0.537178
C61   C     C_3   0.911207 0.447444 0.127010 0.071160
H42   H     H_    0.883722 0.550623 0.142794 0.150910
H43   H     H_    0.948197 0.464410 0.090102 0.117987
C62   C     C_3   0.013875 0.385287 0.157932 -0.671166
H44   H     H_    0.046144 0.284194 0.142353 0.235444
H45   H     H_    0.092912 0.459095 0.159621 0.214672
H46   H     H_    0.979576 0.366402 0.195022 0.271206
H47   H     H_    0.191560 0.564650 0.965828 0.151253
H48   H     H_    0.791951 0.374314 0.034962 0.154868

loop_
_geom_bond_atom_site_label_1
_geom_bond_atom_site_label_2
_ccdc_geom_bond_type
C54   H14   S    
C61   H42   S    
C40   N2    A    
C5    C37   A    
C27   C29   A    
C8    C26   A    
C14   C18   A    
O15   C55   S    
Cu1   N3    S    
C53   C54   S    
C2    O3    A    
C59   H38   S    
C57   H27   S    
C28   H4    S    
C47   C49   A    
C19   C21   A    
C51   H8    S    
C8    H32   S    
C43   H34   S    
C27   H3    S    
C9    C22   A    
C39   O12   S    
C55   C56   S    
C26   H2    S    
C9    C39   A    
C33   C36   A    
C40   O11   S    
C3    C18   A    
C10   C40   A    
C34   C35   A    
Cu1   O3    S    
C45   C47   A    
C23   O5    A    
C11   C23   S    
C59   H37   S    
C60   H41   S    
C21   O17   S    
C56   H23   S    
C33   N4    A    
C55   H22   S    
C58   H28   S    
C6    C38   A    
C11   C43   A    
Cu2   O6    S    
C62   H46   S    
C48   C50   A    
C25   H1    S    
C41   C43   A    
C23   O8    A    
C42   C44   A    
C1    O1    A    
C41   C49   A    
C57   H26   S    
C2    O2    A    
C24   O7    A    
C46   C48   A    
C35   H19   S    
C10   C21   A    
C38   O10   S    
C13   C19   A    
Cu1   Cu2   S    
C14   C20   A    
Cu1   O1    S    
C53   H12   S    
C4    C6    A    
Cu2   O2    S    
C5    C7    A    
C15   C26   A    
C6    C8    A    
C61   C62   S    
C3    C5    A    
C48   O16   S    
C34   N3    A    
C46   O14   S    
C2    C31   S    
C59   C60   S    
O13   C51   S    
C3    C9    A    
O14   C53   S    
C39   N1    A    
C55   H21   S    
C1    O4    A    
C16   C18   A    
Cu1   O5    S    
C51   H7    S    
C60   H39   S    
C37   N1    A    
C42   C50   A    
C38   N2    A    
C4    C17   A    
C12   C46   A    
C56   H24   S    
C29   H5    S    
C44   H33   S    
C37   O9    S    
O18   C61   S    
C58   H30   S    
C11   C45   A    
C41   H36   S    
C4    C10   A    
C36   N3    A    
Cu2   O4    S    
C51   C52   S    
C52   H10   S    
C62   H44   S    
C16   C25   A    
C15   C17   A    
C61   H43   S    
C27   C32   A    
C28   C31   A    
C20   C22   A    
C22   O18   S    
C49   N1    S    
C52   H11   S    
C19   H47   S    
C12   C24   S    
C7    C25   A    
C13   C17   A    
C45   O13   S    
C50   N2    S    
C54   H15   S    
C13   C16   A    
C12   C44   A    
Cu2   N4    S    
O17   C59   S    
C30   C32   A    
C58   H29   S    
C30   H6    S    
C28   C30   A    
C7    H31   S    
C35   N4    A    
C1    C32   S    
C34   H18   S    
C60   H40   S    
Cu2   O8    S    
C24   O6    A    
C52   H9    S    
C36   H20   S    
C42   H35   S    
C56   H25   S    
C29   C31   A    
C54   H16   S    
O16   C57   S    
C47   O15   S    
C14   C15   A    
C53   H13   S    
Cu1   O7    S    
C20   H48   S    
C57   C58   S    
C62   H45   S    
C33   H17   S    
