data_mof_unit_42442.cif
_audit_creation_date              2013-03-05T15:53:31-0500
_audit_creation_method            fapswitch 2.2
_symmetry_space_group_name_H-M    P1
_symmetry_Int_Tables_number       1
_space_group_crystal_system       triclinic
_cell_length_a                    30.529398
_cell_length_b                    7.242184
_cell_length_c                    25.99475
_cell_angle_alpha                 89.618632
_cell_angle_beta                  111.958895
_cell_angle_gamma                 89.865084
_cell_volume                      5330.27369876

loop_
_atom_site_label
_atom_site_type_symbol
_atom_site_description
_atom_site_fract_x
_atom_site_fract_y
_atom_site_fract_z
_atom_type_partial_charge
O1    O     O_R   0.295360 0.592990 0.320420 -0.554333
O2    O     O_R   0.704640 0.407010 0.679580 -0.567330
O3    O     O_R   0.204640 0.092990 0.179580 -0.577759
O4    O     O_R   0.795360 0.907010 0.820420 -0.575828
O5    O     O_R   0.294060 0.265620 0.213230 -0.580036
O6    O     O_R   0.705940 0.734380 0.786770 -0.573129
O7    O     O_R   0.205940 0.765620 0.286770 -0.576021
O8    O     O_R   0.794060 0.234380 0.713230 -0.575008
C1    C     C_R   0.304450 0.432503 0.199730 0.985634
C2    C     C_R   0.694799 0.567327 0.799143 0.989306
C3    C     C_R   0.194985 0.932274 0.299378 1.001936
C4    C     C_R   0.805030 0.067711 0.700651 1.002502
O9    O     O_R   0.300850 0.263360 0.322080 -0.586407
O10   O     O_R   0.699150 0.736640 0.677920 -0.576158
O11   O     O_R   0.199150 0.763360 0.177920 -0.575712
O12   O     O_R   0.800850 0.236640 0.822080 -0.575461
O13   O     O_R   0.211480 0.091820 0.289210 -0.585518
O14   O     O_R   0.788520 0.908180 0.710790 -0.585698
O15   O     O_R   0.288520 0.591820 0.210790 -0.575988
O16   O     O_R   0.711480 0.408180 0.789210 -0.588549
C5    C     C_R   0.313256 0.430425 0.343731 0.984647
C6    C     C_R   0.686120 0.569462 0.656939 0.990816
C7    C     C_R   0.186595 0.932202 0.156987 1.004193
C8    C     C_R   0.813401 0.067804 0.843017 1.004110
O17   O     O_3   0.220670 0.426670 0.239090 -0.263508
O18   O     O_3   0.779330 0.573330 0.760910 -0.261992
O19   O     O_3   0.279330 0.926670 0.260910 -0.248881
O20   O     O_3   0.720670 0.073330 0.739090 -0.256123
V1    V     V_3+5 0.255440 0.152290 0.252020 1.272579
V2    V     V_3+5 0.744560 0.847710 0.747980 1.279460
V3    V     V_3+5 0.244560 0.652290 0.247980 1.290343
V4    V     V_3+5 0.755440 0.347710 0.752020 1.277695
C9    C     C_R   0.850974 0.060882 0.898829 -0.230949
C10   C     C_R   0.149008 0.939155 0.101184 -0.231857
C11   C     C_R   0.647706 0.572692 0.601043 -0.232015
C12   C     C_R   0.350088 0.426722 0.400987 -0.248752
C13   C     C_R   0.873687 0.117404 0.997180 0.429228
C14   C     C_R   0.126291 0.882933 0.002819 0.428883
C15   C     C_R   0.618080 0.717544 0.509761 0.416978
C16   C     C_R   0.378894 0.275500 0.491760 0.417485
C17   C     C_R   0.840612 0.128413 0.943092 -0.284104
C18   C     C_R   0.159378 0.871928 0.056897 -0.286777
C19   C     C_R   0.653420 0.692550 0.561776 -0.246899
C20   C     C_R   0.344847 0.296813 0.438407 -0.236123
C21   C     C_R   0.897241 0.000187 0.907770 0.282444
C22   C     C_R   0.102727 0.999619 0.092275 0.282031
C23   C     C_R   0.603556 0.485573 0.589234 0.278600
C24   C     C_R   0.392667 0.527483 0.416734 0.285613
C25   C     C_R   0.933672 0.018282 0.961637 -0.018089
C26   C     C_R   0.066290 0.981637 0.038401 -0.017612
C27   C     C_R   0.564226 0.533510 0.539281 -0.004547
C28   C     C_R   0.431511 0.477346 0.466295 -0.011695
C29   C     C_R   0.919624 0.047377 0.007399 -0.163757
C30   C     C_R   0.080339 0.952745 0.992624 -0.163527
C31   C     C_R   0.574109 0.627498 0.496426 -0.152295
C32   C     C_R   0.421735 0.375222 0.507505 -0.147688
C33   C     C_R   0.983242 0.007742 0.972296 0.052776
C34   C     C_R   0.016716 0.992144 0.027741 0.052659
C35   C     C_R   0.515641 0.493457 0.529771 0.054701
C36   C     C_R   0.479751 0.521007 0.476157 0.055000
C37   C     C_R   0.999259 0.969645 0.070190 -0.196686
C38   C     C_R   0.000687 0.030263 0.929840 -0.196507
C39   C     C_R   0.493661 0.572603 0.432539 -0.199935
C40   C     C_R   0.500870 0.443301 0.572968 -0.190109
C41   C     C_R   0.951927 0.003110 0.061384 0.356791
C42   C     C_R   0.048023 0.996978 0.938643 0.356456
C43   C     C_R   0.539628 0.628530 0.441833 0.356281
C44   C     C_R   0.455322 0.377518 0.562574 0.355837
H1    H     H_    0.194142 0.815359 0.064305 0.161842
H2    H     H_    0.805861 0.185190 0.935660 0.158081
H3    H     H_    0.313375 0.212346 0.426247 0.163477
H4    H     H_    0.686141 0.768228 0.571772 0.159406
H5    H     H_    0.021803 0.916788 0.110306 0.214470
H6    H     H_    0.978124 0.083006 0.889715 0.214673
H7    H     H_    0.469287 0.561551 0.390033 0.207976
H8    H     H_    0.523805 0.462917 0.615624 0.211116
C45   C     C_R   0.071886 0.828178 0.457415 0.491824
C46   C     C_R   0.928334 0.171961 0.542921 0.491688
C47   C     C_R   0.403420 0.448175 0.013776 0.479501
C48   C     C_R   0.589807 0.516403 0.976847 0.476459
N1    N     N_R   0.073111 0.972985 0.423559 -0.182093
N2    N     N_R   0.927065 0.027046 0.576714 -0.182243
N3    N     N_R   0.422827 0.450776 0.070694 -0.182133
N4    N     N_R   0.570505 0.514407 0.919920 -0.182761
C49   C     C_R   0.045973 0.128219 0.419376 0.514551
C50   C     C_R   0.954159 0.871730 0.580856 0.514559
C51   C     C_R   0.470883 0.460866 0.098357 0.494663
C52   C     C_R   0.522597 0.497829 0.892160 0.498122
C53   C     C_R   0.016470 0.142259 0.449914 -0.066226
C54   C     C_R   0.983694 0.857753 0.550355 -0.066351
C55   C     C_R   0.501211 0.472977 0.068869 -0.075387
C56   C     C_R   0.492211 0.484061 0.921614 -0.077309
C57   C     C_R   0.014861 0.994562 0.484658 -0.000684
C58   C     C_R   0.985322 0.005498 0.515634 -0.000636
C59   C     C_R   0.481751 0.471851 0.010496 -0.004820
C60   C     C_R   0.511620 0.485431 0.979997 -0.004609
C61   C     C_R   0.042718 0.835958 0.488501 -0.055971
C62   C     C_R   0.957482 0.164144 0.511812 -0.056005
C63   C     C_R   0.432495 0.457888 0.982569 -0.063751
C64   C     C_R   0.560827 0.500927 0.007969 -0.061580
C65   C     C_R   0.988432 0.299828 0.446339 -0.099345
C66   C     C_R   0.011737 0.700202 0.553938 -0.099374
C67   C     C_R   0.550423 0.487172 0.096353 -0.085216
C68   C     C_R   0.443008 0.468677 0.894154 -0.084143
C69   C     C_R   0.959296 0.310576 0.476869 -0.124136
C70   C     C_R   0.040901 0.689518 0.523440 -0.123967
C71   C     C_R   0.579850 0.501386 0.066281 -0.094718
C72   C     C_R   0.413519 0.456086 0.924246 -0.094267
O21   O     O_2   0.099157 0.677672 0.461512 -0.529088
O22   O     O_2   0.901127 0.322599 0.538913 -0.528892
O23   O     O_2   0.356132 0.439093 0.987367 -0.520762
O24   O     O_2   0.636884 0.535169 0.003351 -0.523170
O25   O     O_2   0.047057 0.267989 0.385297 -0.494778
O26   O     O_2   0.952991 0.731814 0.614849 -0.494419
O27   O     O_2   0.489368 0.458508 0.154321 -0.490905
O28   O     O_2   0.504380 0.492857 0.836235 -0.486006
H9    H     H_    0.988987 0.415761 0.420050 0.181813
H10   H     H_    0.011172 0.584246 0.580215 0.181893
H11   H     H_    0.566381 0.488337 0.141221 0.192835
H12   H     H_    0.427073 0.467035 0.849287 0.193209
H13   H     H_    0.938294 0.434349 0.473078 0.179298
H14   H     H_    0.061912 0.565765 0.527244 0.179347
H15   H     H_    0.617558 0.512861 0.088921 0.188877
H16   H     H_    0.375795 0.445320 0.901619 0.188811
C73   C     C_R   0.903916 0.176449 0.648232 -0.117038
C74   C     C_R   0.096488 0.822473 0.352361 -0.117219
C75   C     C_R   0.596597 0.678017 0.852522 -0.153153
C76   C     C_R   0.392611 0.597404 0.136324 -0.154268
H17   H     H_    0.932587 0.273165 0.655489 0.189124
H18   H     H_    0.068036 0.724915 0.345388 0.189394
H19   H     H_    0.569648 0.781649 0.847565 0.175281
H20   H     H_    0.415315 0.714057 0.138288 0.172526
C77   C     C_R   0.875510 0.186969 0.680145 0.323608
C78   C     C_R   0.124871 0.811842 0.320429 0.323226
C79   C     C_R   0.625490 0.691716 0.821271 0.326045
C80   C     C_R   0.365590 0.594079 0.169806 0.330499
C81   C     C_R   0.838306 0.058223 0.670950 -0.278187
C82   C     C_R   0.161767 0.941703 0.329170 -0.278740
C83   C     C_R   0.661055 0.556124 0.828230 -0.290333
C84   C     C_R   0.336071 0.440403 0.167619 -0.304750
C85   C     C_R   0.831907 0.919382 0.631159 -0.145088
C86   C     C_R   0.167932 0.081544 0.368618 -0.142107
C87   C     C_R   0.664998 0.406832 0.864745 -0.123907
C88   C     C_R   0.335579 0.293045 0.132250 -0.105546
H21   H     H_    0.803811 0.819477 0.623106 0.145794
H22   H     H_    0.195808 0.182275 0.376362 0.146050
H23   H     H_    0.691605 0.300764 0.870922 0.147412
H24   H     H_    0.313101 0.174694 0.129001 0.162887
C89   C     C_R   0.860779 0.909616 0.600305 -0.012962
C90   C     C_R   0.139111 0.091294 0.399536 -0.011935
C91   C     C_R   0.635303 0.393060 0.894453 -0.004396
C92   C     C_R   0.363624 0.296479 0.100217 -0.014022
H25   H     H_    0.854752 0.802313 0.569636 0.149951
H26   H     H_    0.144980 0.199364 0.429949 0.150504
H27   H     H_    0.639007 0.276276 0.922024 0.135727
H28   H     H_    0.363116 0.179967 0.074113 0.136974
C93   C     C_R   0.896929 0.038236 0.608392 0.133808
C94   C     C_R   0.103224 0.961735 0.391843 0.133025
C95   C     C_R   0.601081 0.528916 0.888917 0.144283
C96   C     C_R   0.392431 0.448612 0.102092 0.141521
N5    N     N_R   0.936478 0.965775 0.106202 0.265923
O29   O     O_R   0.962726 0.013115 0.156519 -0.287324
O30   O     O_R   0.901264 0.854281 0.098610 -0.300808
N6    N     N_R   0.063456 0.034437 0.893820 0.265928
O31   O     O_R   0.098615 0.146194 0.901391 -0.301027
O32   O     O_R   0.037234 0.986897 0.843513 -0.287252
N7    N     N_R   0.551786 0.662121 0.394338 0.265860
O33   O     O_R   0.522642 0.751571 0.351599 -0.282641
O34   O     O_R   0.587214 0.573871 0.389483 -0.295520
N8    N     N_R   0.442408 0.337322 0.609167 0.266671
O35   O     O_R   0.404755 0.413100 0.612196 -0.296438
O36   O     O_R   0.472354 0.254847 0.652847 -0.278381
Br1   Br    Br    0.094096 0.140886 0.150893 -0.414187
Br2   Br    Br    0.905877 0.858418 0.849244 -0.413381
Br3   Br    Br    0.392456 0.761890 0.380948 -0.410644
Br4   Br    Br    0.602086 0.278324 0.636027 -0.418761
Br5   Br    Br    0.855567 0.231463 0.052976 -0.344236
Br6   Br    Br    0.144434 0.769161 0.946999 -0.342864
Br7   Br    Br    0.629909 0.907461 0.464389 -0.377584
Br8   Br    Br    0.368027 0.078472 0.535567 -0.377047
N9    N     N_R   0.886412 0.323268 0.723022 0.249423
O37   O     O_R   0.888376 0.277257 0.772318 -0.354411
O38   O     O_R   0.901813 0.484822 0.715650 -0.322157
N10   N     N_R   0.114257 0.674137 0.277986 0.249305
O39   O     O_R   0.111600 0.719295 0.228361 -0.353182
O40   O     O_R   0.099835 0.511598 0.286164 -0.323997
N11   N     N_R   0.616507 0.838068 0.780985 0.251109
O41   O     O_R   0.612450 0.801179 0.730472 -0.343727
O42   O     O_R   0.604263 0.001116 0.791782 -0.356584
N12   N     N_R   0.371173 0.741578 0.208220 0.251092
O43   O     O_R   0.379665 0.703173 0.259950 -0.325829
O44   O     O_R   0.377743 0.909526 0.194651 -0.389686

loop_
_geom_bond_atom_site_label_1
_geom_bond_atom_site_label_2
_geom_bond_distance
_ccdc_geom_bond_type
O17   V3    1.771957 S    
N3    C51   1.373708 A    
C92   C96   1.401059 A    
O1    C5    1.338532 A    
C57   C58   1.418272 A    
C14   Br6   1.925097 S    
C51   C55   1.408105 A    
O19   V1    1.765942 S    
C9    C21   1.411603 A    
C86   H22   1.083387 S    
O3    C7    1.332118 A    
C59   C60   1.417687 A    
C10   C18   1.393531 A    
C56   C60   1.407900 A    
C71   H15   1.083020 S    
C48   N4    1.373118 A    
O15   V3    1.975030 S    
N5    O29   1.301494 A    
C25   C33   1.434689 A    
C33   C38   1.402086 A    
N7    O34   1.301602 A    
C5    C12   1.492659 S    
N9    O37   1.301325 A    
C77   C81   1.421789 A    
C6    C11   1.487318 S    
C35   C40   1.403656 A    
N12   O43   1.298734 A    
C62   C69   1.406346 A    
C39   H7    1.080527 S    
C36   C39   1.400283 A    
C40   C44   1.399102 A    
C47   C63   1.410292 A    
N6    O31   1.301620 A    
C3    C82   1.490177 S    
C75   C79   1.408225 A    
C14   C18   1.392469 A    
C76   C80   1.405500 A    
O4    C8    1.332148 A    
C1    C84   1.494734 S    
C59   C63   1.408473 A    
N8    O35   1.301569 A    
C74   H18   1.083247 S    
C73   C77   1.408785 A    
O1    V3    1.984336 S    
O13   V1    1.973576 S    
N10   O39   1.301370 A    
C20   H3    1.084198 S    
O2    V4    1.984335 S    
C57   C61   1.408186 A    
O3    V1    1.991327 S    
C89   H25   1.082840 S    
C54   C66   1.406385 A    
C28   C36   1.433730 A    
C16   Br8   1.925111 S    
C83   C87   1.408796 A    
C80   C84   1.421717 A    
C1    O15   1.325439 A    
C15   C31   1.416545 A    
N3    C96   1.447026 S    
C52   C56   1.409719 A    
C2    O16   1.324387 A    
O20   V2    1.765942 S    
C16   C32   1.416953 A    
C46   C62   1.409817 A    
C45   C61   1.409818 A    
C10   C22   1.411631 A    
C91   H27   1.082876 S    
C11   C19   1.395676 A    
C16   C20   1.395000 A    
C51   O27   1.349364 S    
C23   Br4   1.936804 S    
C66   H10   1.083222 S    
C85   H21   1.083373 S    
C24   Br3   1.929179 S    
C13   C29   1.418027 A    
C34   C37   1.402165 A    
O11   C7    1.330852 A    
C11   C23   1.416408 A    
C35   C36   1.426845 A    
O12   C8    1.330828 A    
C87   C91   1.396868 A    
C48   C64   1.408674 A    
C13   C17   1.392539 A    
C48   O24   1.349214 S    
C44   N8    1.435291 S    
C72   H16   1.082993 S    
C76   H20   1.083342 S    
C79   N11   1.436782 S    
N5    O30   1.301607 A    
N4    C95   1.447000 S    
N1    C49   1.374313 A    
C54   C58   1.408169 A    
O5    V1    1.990782 S    
N9    O38   1.301427 A    
C65   C69   1.398428 A    
C39   C43   1.393632 A    
O7    V3    1.994021 S    
C38   C42   1.396133 A    
C42   N6    1.435322 S    
C26   C34   1.434807 A    
C92   H28   1.082815 S    
C82   C86   1.408183 A    
C55   C67   1.406119 A    
N7    O33   1.301558 A    
N2    C93   1.448522 S    
C49   C53   1.409682 A    
O18   V4    1.771958 S    
C23   C27   1.440273 A    
C27   C31   1.427463 A    
C37   H5    1.079037 S    
O10   V2    2.005551 S    
C18   H1    1.084165 S    
C80   N12   1.433540 S    
C15   Br7   1.926803 S    
O8    V4    1.994028 S    
C52   O28   1.349117 S    
C87   H23   1.083311 S    
O5    C1    1.328117 A    
C63   C72   1.406327 A    
C73   H17   1.083290 S    
C46   N2    1.374042 A    
C74   C94   1.403475 A    
O7    C3    1.327148 A    
C14   C30   1.418007 A    
C45   N1    1.374150 A    
O8    C4    1.327138 A    
C7    C10   1.475595 S    
C70   H14   1.083128 S    
C21   C25   1.432941 A    
C40   H8    1.077893 S    
C22   Br1   1.938498 S    
C69   H13   1.083143 S    
C46   O22   1.349241 S    
C26   C30   1.424183 A    
C45   O21   1.349241 S    
O14   V2    1.973581 S    
C61   C70   1.406370 A    
C77   N9    1.437418 S    
O6    V2    1.990782 S    
C50   C54   1.409682 A    
C12   C20   1.400659 A    
C27   C35   1.440156 A    
C2    C83   1.490530 S    
O9    V1    2.005551 S    
C41   N5    1.435340 S    
C75   C95   1.403086 A    
C68   C72   1.398861 A    
C29   C41   1.414987 A    
C76   C96   1.400783 A    
O16   V4    1.975028 S    
C43   N7    1.435412 S    
C19   H4    1.084496 S    
C81   C85   1.408097 A    
C3    O13   1.325430 A    
C64   C71   1.405935 A    
N12   O44   1.300929 A    
N1    C94   1.448768 S    
C90   C94   1.401513 A    
C53   C65   1.406420 A    
C67   H11   1.083023 S    
C84   C88   1.409701 A    
C78   N10   1.437228 S    
C78   C82   1.421736 A    
C15   C19   1.389187 A    
O11   V3    1.993166 S    
C30   C42   1.414997 A    
O12   V4    1.993168 S    
C13   Br5   1.925062 S    
C22   C26   1.433058 A    
C8    C9    1.475576 S    
C47   O23   1.348953 S    
C50   O26   1.349309 S    
C79   C83   1.421843 A    
C31   C43   1.415880 A    
C65   H9    1.083191 S    
C86   C90   1.398042 A    
N6    O32   1.301486 A    
C9    C17   1.393612 A    
N11   O41   1.301557 A    
C88   C92   1.400023 A    
C32   C44   1.415463 A    
O2    C6    1.337543 A    
O9    C5    1.332627 A    
N2    C50   1.374204 A    
O10   C6    1.330549 A    
C33   C34   1.424832 A    
C85   C89   1.398002 A    
N4    C52   1.373687 A    
N8    O36   1.301489 A    
C25   C29   1.424059 A    
C60   C64   1.408217 A    
C49   O25   1.349315 S    
N10   O40   1.301472 A    
C12   C24   1.414340 A    
C73   C93   1.403409 A    
C53   C57   1.408119 A    
C75   H19   1.083191 S    
N11   O42   1.301403 A    
O6    C2    1.327175 A    
C56   C68   1.406530 A    
C55   C59   1.407649 A    
C47   N3    1.373075 A    
C37   C41   1.396228 A    
C24   C28   1.430759 A    
C74   C78   1.408625 A    
C90   H26   1.082868 S    
C66   C70   1.398426 A    
C4    O14   1.325294 A    
C58   C62   1.408212 A    
C4    C81   1.489911 S    
C38   H6    1.079090 S    
C67   C71   1.397646 A    
C21   Br2   1.938482 S    
C89   C93   1.401378 A    
O4    V2    1.991330 S    
C28   C32   1.418887 A    
C91   C95   1.400419 A    
C17   H2    1.084227 S    
C68   H12   1.083007 S    
C88   H24   1.083090 S    
