data_mof_unit_17752.cif
_audit_creation_date              2012-12-11T16:06:41-0500
_audit_creation_method            fapswitch 2.2
_symmetry_space_group_name_H-M    P1
_symmetry_Int_Tables_number       1
_space_group_crystal_system       triclinic
_cell_length_a                    8.267357
_cell_length_b                    12.637844
_cell_length_c                    17.339305
_cell_angle_alpha                 94.435181
_cell_angle_beta                  95.667766
_cell_angle_gamma                 97.669615
_cell_volume                      1779.11323032

loop_
_atom_site_label
_atom_site_type_symbol
_atom_type_description
_atom_site_fract_x
_atom_site_fract_y
_atom_site_fract_z
_atom_type_partial_charge
Ba1   Ba    Ba6+2 0.158660 0.552610 0.463110 1.639235
Ba2   Ba    Ba6+2 0.651510 0.447380 0.536830 1.626349
C1    C     C_3   0.373474 0.819659 0.166270 -0.250900
C2    C     C_R   0.734093 0.814755 0.467035 -0.277815
C3    C     C_R   0.700908 0.995967 0.438796 -0.095736
C4    C     C_3   0.927225 0.842843 0.271708 0.352161
C5    C     C_R   0.638098 0.886900 0.435388 -0.010661
C6    C     C_R   0.888910 0.849463 0.507549 0.068569
C7    C     C_R   0.952851 0.961560 0.513487 -0.066574
C8    C     C_R   0.857541 0.035935 0.478543 -0.057511
C9    C     C_R   0.921120 0.148211 0.486816 0.067193
C10   C     C_R   0.173677 0.110553 0.554315 0.017130
C11   C     C_R   0.109769 0.001931 0.552320 -0.088568
C12   C     C_3   0.416440 0.792905 0.249609 0.358834
C13   C     C_R   0.599588 0.544505 0.280093 -0.285491
C14   C     C_R   0.443802 0.488119 0.255729 0.067338
C15   C     C_R   0.382165 0.479868 0.176635 -0.118241
C16   C     C_3   0.857015 0.918079 0.216372 -0.224797
C17   C     C_R   0.478105 0.526696 0.122152 -0.005868
C18   C     C_R   0.638543 0.577948 0.146981 -0.139964
C19   C     C_R   0.699714 0.585045 0.225890 0.001242
C20   C     C_R   0.410238 0.546892 0.836876 -0.119351
C21   C     C_R   0.356791 0.534620 0.756936 0.039537
C22   C     C_R   0.096544 0.440399 0.781234 0.031870
C23   C     C_3   0.567991 0.775832 0.632932 0.267531
C24   C     C_R   0.148835 0.450042 0.861484 -0.123209
C25   C     C_R   0.306864 0.503165 0.889647 0.000056
C26   C     C_1   0.364447 0.511403 0.971957 -0.005498
C27   C     C_1   0.415154 0.518273 0.040472 -0.000665
C28   C     C_3   0.750099 0.318951 0.304938 0.308206
C29   C     C_R   0.201502 0.480684 0.729726 -0.293342
C30   C     C_3   0.711235 0.291039 0.217566 -0.386541
C31   C     C_3   0.060580 0.695391 0.699381 0.310772
C32   C     C_3   0.080102 0.729717 0.786278 -0.397457
C33   C     C_3   0.247488 0.227991 0.370903 0.298598
C34   C     C_3   0.564372 0.895602 0.640745 -0.333373
C35   C     C_3   0.200838 0.108572 0.348317 -0.396029
C36   C     C_1   0.435121 0.931576 0.156159 0.284588
C37   C     C_3   0.025338 0.066937 0.836542 -0.351549
C38   C     C_3   0.416997 0.278594 0.783408 -0.336275
C39   C     C_3   0.979076 0.960667 0.161501 -0.362488
C40   C     C_3   0.970799 0.175975 0.720010 0.317565
C41   C     C_3   0.985032 0.065164 0.748469 -0.184485
C42   C     C_3   0.501097 0.189415 0.747934 0.386684
C43   C     C_3   0.564299 0.125894 0.813363 -0.329304
C44   C     C_R   0.076188 0.182880 0.526158 -0.306689
H1    H     H_    0.354075 0.710504 0.254444 0.065912
H2    H     H_    0.139627 0.260918 0.390601 0.009621
H3    H     H_    0.349702 0.240487 0.418591 0.070973
H4    H     H_    0.238486 0.805911 0.151221 0.119884
H5    H     H_    0.082903 0.094802 0.310221 0.104944
H6    H     H_    0.185601 0.064653 0.400372 0.089339
H7    H     H_    0.297994 0.076850 0.317260 0.161145
H8    H     H_    0.551250 0.794136 0.260545 -0.098717
H9    H     H_    0.428272 0.766236 0.125462 0.030276
H10   H     H_    0.694865 0.760466 0.627273 0.020143
H11   H     H_    0.486193 0.741791 0.579618 0.068055
H12   H     H_    0.596965 0.232694 0.205195 0.149196
H13   H     H_    0.615192 0.928766 0.700157 0.118425
H14   H     H_    0.637905 0.935301 0.598373 0.078310
H15   H     H_    0.436003 0.911898 0.631069 0.141596
H16   H     H_    0.746726 0.873785 0.180509 0.104081
H17   H     H_    0.904446 0.162979 0.660359 0.021820
H18   H     H_    0.096065 0.218057 0.716664 -0.025167
H19   H     H_    0.868518 0.011460 0.730778 0.080835
H20   H     H_    0.081482 0.029632 0.719308 0.113610
H21   H     H_    0.605424 0.224384 0.718855 0.132163
H22   H     H_    0.460032 0.083344 0.839821 0.110004
H23   H     H_    0.693804 0.363847 0.187952 0.061853
H24   H     H_    0.644344 0.179984 0.859469 0.105373
H25   H     H_    0.031248 0.888090 0.311403 0.078198
H26   H     H_    0.637409 0.066069 0.790481 0.109956
H27   H     H_    0.623959 0.048481 0.411939 0.106746
H28   H     H_    0.184785 0.950385 0.581056 0.112744
H29   H     H_    0.125129 0.267278 0.532042 0.067793
H30   H     H_    0.683303 0.730898 0.464048 0.064884
H31   H     H_    0.531283 0.589318 0.857567 0.070802
H32   H     H_    0.716442 0.610110 0.105161 0.076887
H33   H     H_    0.068017 0.415514 0.901304 0.078786
H34   H     H_    0.813992 0.255498 0.193886 0.130073
H35   H     H_    0.261429 0.435839 0.157543 0.090508
H36   H     H_    0.647976 0.549746 0.340790 0.068147
H37   H     H_    0.830015 0.814961 0.308493 -0.075025
H38   H     H_    0.161134 0.470797 0.667936 0.063247
H39   H     H_    0.819115 0.986422 0.251096 0.092298
H40   H     H_    0.641845 0.346214 0.328549 0.007350
H41   H     H_    0.856059 0.384026 0.315615 0.071836
H42   H     H_    0.926922 0.096974 0.867501 0.147261
H43   H     H_    0.035090 0.984163 0.851914 0.109113
H44   H     H_    0.143687 0.117740 0.856794 0.118661
H45   H     H_    0.179053 0.676350 0.682049 0.015802
H46   H     H_    0.371749 0.324785 0.736784 0.102583
H47   H     H_    0.312672 0.245933 0.813725 0.084597
H48   H     H_    0.503615 0.332935 0.826573 0.116321
H49   H     H_    0.931189 0.025895 0.130818 0.122468
H50   H     H_    0.100365 0.992549 0.193855 0.139894
H51   H     H_    0.995150 0.895721 0.117228 0.140590
H52   H     H_    0.964342 0.624209 0.686918 0.053988
H53   H     H_    0.178994 0.799174 0.800283 0.127813
H54   H     H_    0.112176 0.663288 0.820069 0.068957
H55   H     H_    0.963208 0.753074 0.803844 0.121392
N1    N     N_1   0.483535 0.019804 0.148152 -0.309646
O1    O     O_2   0.163080 0.763400 0.536930 -0.469144
O2    O     O_2   0.755548 0.414921 0.775478 -0.503609
O3    O     O_3   0.883692 0.236032 0.769025 -0.627517
O4    O     O_3   0.893330 0.628980 0.538660 -0.491723
O5    O     O_3   0.422000 0.445190 0.409310 -0.492692
O6    O     O_2   0.648720 0.552000 0.685060 -0.458669
O7    O     O_3   0.517163 0.734375 0.700560 -0.642908
O8    O     O_2   0.512783 0.108710 0.560307 -0.497705
O9    O     O_3   0.389617 0.119588 0.694855 -0.637468
O10   O     O_3   0.379830 0.697590 0.399610 -0.482501
O11   O     O_2   0.304173 0.886680 0.447404 -0.484602
O12   O     O_3   0.295229 0.276367 0.305487 -0.632048
O13   O     O_3   0.016288 0.780996 0.660250 -0.647043
O14   O     O_3   0.362378 0.866811 0.302689 -0.605173
O15   O     O_2   0.161570 0.447940 0.314920 -0.459539
O16   O     O_3   0.953630 0.643360 0.361440 -0.474197
O17   O     O_2   0.027335 0.560264 0.224898 -0.484189
O18   O     O_3   0.985481 0.759891 0.228207 -0.595339
O19   O     O_2   0.647210 0.236530 0.463040 -0.472404
O20   O     O_3   0.916960 0.371010 0.461280 -0.494010
O21   O     O_3   0.430470 0.302400 0.600330 -0.484482
O22   O     O_3   0.787358 0.227135 0.338850 -0.638553
O23   O     O_3   0.388290 0.554800 0.590630 -0.477373
O24   O     O_3   0.856660 0.356630 0.638500 -0.479525
P1    P     P_3+3 0.990420 0.746550 0.559720 0.970499
P2    P     P_3+3 0.330880 0.415450 0.326700 0.986808
P3    P     P_3+3 0.915519 0.635699 0.259804 0.958171
P4    P     P_3+3 0.819870 0.253440 0.440220 0.975020
P5    P     P_3+3 0.897489 0.366649 0.740462 0.920755
P6    P     P_3+3 0.422883 0.836268 0.397001 0.951833
P7    P     P_3+3 0.478940 0.594833 0.685587 0.948073
P8    P     P_3+3 0.381239 0.162241 0.600357 0.917483

loop_
_geom_bond_atom_site_label_1
_geom_bond_atom_site_label_2
_ccdc_geom_bond_type
O17   P3    D    
O11   P6    D    
C17   C18   A    
C23   H10   S    
C30   H12   S    
C38   H47   S    
C2    C6    A    
C34   H13   S    
O3    P5    S    
Ba2   O21   S    
C24   C25   A    
C26   C27   T    
C33   C35   S    
C22   C24   A    
O5    P2    S    
Ba1   Ba2   S    
C31   H45   S    
Ba1   O10   S    
C35   H5    S    
C39   H50   S    
C14   C15   A    
C13   C14   A    
Ba2   O5    S    
O13   P1    S    
C33   O12   S    
C31   H52   S    
C7    C11   A    
Ba1   O20   S    
Ba2   P4    S    
C1    H9    S    
C1    C36   S    
C6    C7    A    
O2    P5    D    
C33   H3    S    
C32   H54   S    
Ba1   P2    S    
C28   H40   S    
O1    P1    D    
C7    C8    A    
O19   P4    D    
C37   H44   S    
C23   O7    S    
Ba1   O4    S    
C35   H7    S    
C10   P8    S    
C43   H26   S    
C23   H11   S    
C37   H42   S    
C2    C5    A    
C33   H2    S    
C4    O18   S    
C44   H29   S    
O15   P2    D    
C1    H4    S    
C42   H21   S    
C31   C32   S    
C13   H36   S    
Ba2   O20   S    
C4    H25   S    
C4    C16   S    
C31   O13   S    
C32   H55   S    
C21   P7    S    
O21   P8    S    
O7    P7    S    
O18   P3    S    
C16   H39   S    
C10   C44   A    
C16   C39   S    
C3    C5    A    
C35   H6    S    
C16   H16   S    
C37   C41   S    
O4    P1    S    
Ba2   O4    S    
O10   P6    S    
C29   H38   S    
C21   C29   A    
C42   O9    S    
O6    P7    D    
C30   H34   S    
O12   P2    S    
C6    P1    S    
O14   P6    S    
C38   C42   S    
C41   H19   S    
C18   C19   A    
C43   H22   S    
C32   H53   S    
O22   P4    S    
Ba1   O15   S    
C38   H46   S    
C14   P2    S    
C19   P3    S    
C5    P6    S    
C12   H1    S    
C1    C12   S    
Ba1   O5    S    
Ba2   O24   S    
C12   H8    S    
C28   O22   S    
C20   C25   A    
C39   H51   S    
O8    P8    D    
C40   C41   S    
C34   H15   S    
C17   C27   S    
C9    P4    S    
C40   H18   S    
C42   C43   S    
Ba2   O19   S    
O23   P7    S    
Ba1   O1    S    
C4    H37   S    
C43   H24   S    
Ba1   P1    S    
C20   H31   S    
C38   H48   S    
C34   H14   S    
O9    P8    S    
C30   H23   S    
C24   H33   S    
C18   H32   S    
Ba1   O23   S    
C22   C29   A    
C3    C8    A    
C36   N1    T    
O16   P3    S    
C28   C30   S    
C22   P5    S    
C39   H49   S    
O24   P5    S    
C41   H20   S    
C12   O14   S    
Ba2   O6    S    
C15   C17   A    
O20   P4    S    
C15   H35   S    
Ba1   O16   S    
C3    H27   S    
C40   O3    S    
C2    H30   S    
C8    C9    A    
C23   C34   S    
Ba2   O23   S    
C13   C19   A    
C10   C11   A    
C25   C26   S    
C20   C21   A    
C9    C44   A    
C28   H41   S    
C40   H17   S    
C37   H43   S    
C11   H28   S    
