data_mof_unit_23195.cif
_audit_creation_date              2012-12-10T17:02:57-0500
_audit_creation_method            fapswitch 2.2
_symmetry_space_group_name_H-M    P1
_symmetry_Int_Tables_number       1
_space_group_crystal_system       triclinic
_cell_length_a                    9.84877
_cell_length_b                    11.043183
_cell_length_c                    13.42197
_cell_angle_alpha                 95.139844
_cell_angle_beta                  81.286095
_cell_angle_gamma                 111.178458
_cell_volume                      1344.52757369

loop_
_atom_site_label
_atom_site_type_symbol
_atom_type_description
_atom_site_fract_x
_atom_site_fract_y
_atom_site_fract_z
_atom_type_partial_charge
C1    C     C_R   0.555658 0.745162 0.509273 0.854327
C2    C     C_R   0.448903 0.453729 0.964329 -0.000460
C3    C     C_R   0.472149 0.512105 0.870273 -0.027847
C4    C     C_R   0.552978 0.512134 0.033283 0.101815
C5    C     C_R   0.691087 0.608013 0.001188 0.069544
C6    C     C_R   0.711488 0.666822 0.908418 -0.044926
C7    C     C_R   0.597948 0.623852 0.848187 -0.170070
C8    C     C_R   0.518654 0.486215 0.135878 -0.147484
C9    C     C_R   0.769354 0.605411 0.164490 -0.182890
C10   C     C_R   0.372818 0.455029 0.797942 -0.173365
C11   C     C_2   0.582552 0.883085 0.525799 -0.310423
C12   C     C_R   0.421664 0.485309 0.690462 0.847391
C13   C     C_2   0.479610 0.930792 0.513625 -0.172559
C14   C     C_2   0.412179 0.115498 0.495394 -0.356167
C15   C     C_2   0.495306 0.066579 0.538442 0.004294
C16   C     C_2   0.920983 0.486574 0.492968 -0.095474
C17   C     C_2   0.071576 0.501834 0.514609 0.067090
C18   C     C_R   0.442231 0.254713 0.496553 0.885224
C19   C     C_R   0.577992 0.513531 0.309730 0.798492
C20   C     C_R   0.801894 0.645351 0.065248 -0.123964
C21   C     C_R   0.625011 0.531994 0.201606 -0.063207
C22   C     C_R   0.243712 0.347781 0.824449 0.342542
C23   C     C_R   0.222309 0.290652 0.916207 -0.176874
C24   C     C_R   0.326931 0.335770 0.982634 0.311386
Cu1   Cu    Cu3+1 0.362000 0.479240 0.482530 1.031030
Cu2   Cu    Cu3+1 0.638000 0.520760 0.517470 1.004017
H1    H     H_    0.854040 0.640226 0.213889 0.164703
H2    H     H_    0.381034 0.868595 0.482209 0.214927
H3    H     H_    0.328919 0.053011 0.450238 0.163718
H4    H     H_    0.685191 0.943729 0.552208 0.205661
H5    H     H_    0.873216 0.418075 0.433586 0.174648
H6    H     H_    0.114017 0.397455 0.392433 0.204125
H7    H     H_    0.890776 0.619220 0.598736 0.242925
H8    H     H_    0.912933 0.707685 0.040396 0.181912
H9    H     H_    0.405844 0.438216 0.166944 0.197096
H10   H     H_    0.129260 0.201884 0.931824 0.208235
H11   H     H_    0.609809 0.678983 0.782624 0.169377
N1    N     N_2   0.845330 0.551960 0.543750 -0.276457
N2    N     N_2   0.154690 0.448120 0.456210 -0.315078
O1    O     O_R   0.426290 0.668220 0.490680 -0.561138
O2    O     O_R   0.659360 0.703290 0.520190 -0.571803
O3    O     O_R   0.326580 0.473880 0.629020 -0.531812
O4    O     O_R   0.559660 0.508940 0.658530 -0.563864
O5    O     O_R   0.340640 0.296710 0.479810 -0.536772
O6    O     O_R   0.573710 0.331780 0.509320 -0.573160
O7    O     O_R   0.440340 0.491060 0.341470 -0.584276
O8    O     O_R   0.673420 0.526120 0.370980 -0.585409
C25   C     C_2   0.119411 0.575945 0.608008 0.941126
O9    O     O_2   0.195256 0.691097 0.605167 -0.606382
O10   O     O_R   0.062573 0.517484 0.700767 -0.714099
H12   H     H_    0.098449 0.578672 0.759922 0.334190
C26   C     C_2   0.843839 0.779974 0.874881 0.844397
O11   O     O_2   0.895366 0.787474 0.785828 -0.569823
O12   O     O_R   0.905873 0.880573 0.943626 -0.744411
H13   H     H_    0.994536 0.952258 0.910993 0.360396
Cl1   Cl    Cl    0.116960 0.264682 0.739512 -0.531582
Cl2   Cl    Cl    0.312269 0.222523 0.072590 -0.605324
C27   C     C_2   0.594278 0.143789 0.613030 0.926696
O13   O     O_2   0.542199 0.183026 0.692310 -0.555690
O14   O     O_R   0.746196 0.175808 0.590746 -0.754983
H14   H     H_    0.801350 0.230842 0.646524 0.376489

loop_
_geom_bond_atom_site_label_1
_geom_bond_atom_site_label_2
_ccdc_geom_bond_type
Cu1   O3    S    
C2    C4    A    
C23   C24   A    
C13   H2    S    
C6    C7    A    
C18   O5    A    
C14   C18   S    
C9    C20   A    
H7    N1    S    
C1    C11   S    
C17   C25   S    
C22   Cl1   S    
C4    C8    A    
C20   H8    S    
C25   O10   S    
C2    C3    A    
C7    H11   S    
C19   O7    A    
C3    C10   A    
C10   C22   A    
C16   H5    S    
C11   C13   D    
C9    C21   A    
C16   C17   S    
Cu1   N2    S    
C10   C12   S    
Cu2   O8    S    
C11   H4    S    
Cu1   O5    S    
C1    O2    A    
C25   O9    D    
C19   C21   S    
C26   O12   S    
Cu2   O4    S    
O10   H12   S    
C12   O4    A    
C3    C7    A    
C13   C15   S    
Cu1   O1    S    
C2    C24   A    
C5    C6    A    
C15   C27   S    
C19   O8    A    
C27   O13   D    
C14   H3    S    
C27   O14   S    
C18   O6    A    
C26   O11   D    
C9    H1    S    
C23   H10   S    
C24   Cl2   S    
H6    N2    S    
C5    C20   A    
C17   N2    D    
O12   H13   S    
C4    C5    A    
C12   O3    A    
C1    O1    A    
C6    C26   S    
Cu1   Cu2   S    
C14   C15   D    
Cu1   O7    S    
C22   C23   A    
Cu2   N1    S    
Cu2   O2    S    
C16   N1    D    
O14   H14   S    
Cu2   O6    S    
C8    H9    S    
C8    C21   A    
