data_mof_unit_14821.cif
_audit_creation_date              2012-12-10T18:43:05-0500
_audit_creation_method            fapswitch 2.2
_symmetry_space_group_name_H-M    P1
_symmetry_Int_Tables_number       1
_space_group_crystal_system       triclinic
_cell_length_a                    10.752668
_cell_length_b                    9.861857
_cell_length_c                    10.693383
_cell_angle_alpha                 90.567408
_cell_angle_beta                  91.564869
_cell_angle_gamma                 89.692955
_cell_volume                      1133.44678331

loop_
_atom_site_label
_atom_site_type_symbol
_atom_type_description
_atom_site_fract_x
_atom_site_fract_y
_atom_site_fract_z
_atom_type_partial_charge
C1    C     C_R   0.259917 0.501213 0.501247 0.881539
C2    C     C_R   0.739910 0.500132 0.503215 0.897046
C3    C     C_R   0.485694 0.499460 0.263333 0.772433
C4    C     C_R   0.504599 0.500056 0.738200 0.789164
C5    C     C_2   0.464446 0.394311 0.931218 -0.267281
C6    C     C_2   0.468048 0.387561 0.065367 -0.304282
C7    C     C_2   0.518996 0.496816 0.871666 0.463365
C8    C     C_2   0.444720 0.498058 0.134147 0.461150
C9    C     C_R   0.062576 0.393499 0.457443 -0.252995
C10   C     C_R   0.935614 0.391993 0.458993 -0.263490
C11   C     C_R   0.872407 0.502190 0.509514 -0.087899
C12   C     C_R   0.127215 0.505890 0.503950 -0.097460
C13   C     C_R   0.935737 0.616011 0.560255 0.166779
C14   C     C_R   0.064715 0.620250 0.553318 0.147173
C15   C     C_R   0.563213 0.072294 0.591827 0.226198
C16   C     C_R   0.436675 0.070735 0.408150 0.234177
C17   C     C_R   0.560780 0.928326 0.592667 -0.126975
C18   C     C_R   0.439835 0.926671 0.407095 -0.141430
H1    H     H_    0.418607 0.311719 0.880454 0.140980
H2    H     H_    0.505030 0.295077 0.106095 0.133545
H3    H     H_    0.110211 0.307695 0.417456 0.181841
H4    H     H_    0.886809 0.305553 0.418504 0.166997
H5    H     H_    0.608753 0.873720 0.666784 0.165881
H6    H     H_    0.393347 0.870257 0.332470 0.159381
N1    N     N_R   0.500000 0.857200 0.500000 -0.098654
N2    N     N_R   0.500000 0.142810 0.500000 -0.108575
O1    O     O_R   0.316770 0.614620 0.499990 -0.598705
O2    O     O_R   0.683230 0.614620 0.500010 -0.582719
O3    O     O_R   0.316800 0.385290 0.500000 -0.604027
O4    O     O_R   0.683200 0.385290 0.500000 -0.612566
O5    O     O_R   0.500000 0.614630 0.319080 -0.593237
O6    O     O_R   0.500000 0.614630 0.680920 -0.580477
O7    O     O_R   0.500030 0.385300 0.319080 -0.637830
O8    O     O_R   0.499970 0.385300 0.680920 -0.632412
Zn1   Zn    Zn3+2 0.500000 0.653120 0.500000 0.980448
Zn2   Zn    Zn3+2 0.500000 0.346880 0.500000 0.963265
O9    O     O_3   0.587633 0.598474 0.932217 -0.559118
C19   C     C_3   0.700969 0.544449 0.981236 -0.324119
H7    H     H_    0.768849 0.628176 0.992599 0.191720
H8    H     H_    0.742524 0.465626 0.919402 0.127658
H9    H     H_    0.689184 0.502211 0.075747 0.167130
O10   O     O_3   0.391832 0.613440 0.080950 -0.542592
C20   C     C_3   0.270598 0.630342 0.126001 -0.342007
H10   H     H_    0.272276 0.655523 0.227607 0.155014
H11   H     H_    0.212702 0.538721 0.106905 0.150954
H12   H     H_    0.225418 0.716503 0.076324 0.191362
N3    N     N_2   0.869702 0.723475 0.620106 -0.295098
H13   H     H_    0.904589 0.819509 0.610517 0.225000
C21   C     C_3   0.836479 0.694666 0.746782 -0.789593
H14   H     H_    0.921351 0.677586 0.806289 0.215427
H15   H     H_    0.776950 0.603467 0.747468 0.254310
H16   H     H_    0.783496 0.781279 0.786044 0.245105
N4    N     N_2   0.131785 0.734239 0.602743 -0.282204
H17   H     H_    0.105000 0.766382 0.690049 0.223585
C22   C     C_3   0.146172 0.844979 0.516168 -0.748205
H18   H     H_    0.056553 0.898060 0.497657 0.204706
H19   H     H_    0.181543 0.807608 0.425473 0.246421
H20   H     H_    0.213504 0.919143 0.557004 0.241291
N5    N     N_2   0.629965 0.143725 0.687524 -0.260194
H21   H     H_    0.601268 0.119770 0.775834 0.207731
C23   C     C_3   0.763767 0.135519 0.678633 -0.778484
H22   H     H_    0.797211 0.031789 0.701878 0.212684
H23   H     H_    0.807679 0.208710 0.745668 0.233762
H24   H     H_    0.792710 0.161047 0.582875 0.256393
N6    N     N_2   0.372181 0.140729 0.310803 -0.252202
H25   H     H_    0.419761 0.136475 0.228639 0.217066
C24   C     C_3   0.242922 0.104271 0.290904 -0.847174
H26   H     H_    0.234967 0.004869 0.241622 0.225536
H27   H     H_    0.195854 0.182196 0.231939 0.241702
H28   H     H_    0.195259 0.098640 0.381454 0.246087

loop_
_geom_bond_atom_site_label_1
_geom_bond_atom_site_label_2
_ccdc_geom_bond_type
C23   H24   S    
C3    O5    A    
C20   H10   S    
C5    C7    D    
O7    Zn2   S    
O9    C19   S    
C5    H1    S    
C6    H2    S    
C9    C10   A    
N4    C22   S    
N3    H13   S    
O4    Zn2   S    
C22   H18   S    
C24   H28   S    
C17   N1    A    
C21   H16   S    
C21   H15   S    
C1    O3    A    
C7    O9    S    
N5    H21   S    
N3    C21   S    
C16   C18   A    
C17   H5    S    
C13   C14   A    
C10   H4    S    
C19   H8    S    
C20   H11   S    
O3    Zn2   S    
C9    H3    S    
C4    O6    A    
C1    C12   S    
O1    Zn1   S    
N1    Zn1   S    
C4    C7    S    
C18   H6    S    
C2    C11   S    
N2    Zn2   S    
C9    C12   A    
C12   C14   A    
N6    H25   S    
O8    Zn2   S    
C22   H19   S    
C4    O8    A    
C16   N2    A    
C5    C6    S    
C20   H12   S    
O5    Zn1   S    
N5    C23   S    
C2    O2    A    
C10   C11   A    
C3    O7    A    
C18   N1    A    
C24   H26   S    
O6    Zn1   S    
C11   C13   A    
C14   N4    S    
C19   H7    S    
C3    C8    S    
C19   H9    S    
C13   N3    S    
C21   H14   S    
O10   C20   S    
C22   H20   S    
C1    O1    A    
C15   N2    A    
C6    C8    D    
C16   N6    S    
C24   H27   S    
C15   C17   A    
O2    Zn1   S    
C15   N5    S    
C23   H23   S    
C2    O4    A    
N4    H17   S    
C8    O10   S    
N6    C24   S    
C23   H22   S    
