data_mof_unit_38976.cif
_audit_creation_date              2012-12-11T17:09:26-0500
_audit_creation_method            fapswitch 2.2
_symmetry_space_group_name_H-M    P1
_symmetry_Int_Tables_number       1
_space_group_crystal_system       monoclinic
_cell_length_a                    14.817458
_cell_length_b                    6.973505
_cell_length_c                    13.487779
_cell_angle_alpha                 90.0
_cell_angle_beta                  99.867369
_cell_angle_gamma                 90.0
_cell_volume                      1373.07034779

loop_
_atom_site_label
_atom_site_type_symbol
_atom_type_description
_atom_site_fract_x
_atom_site_fract_y
_atom_site_fract_z
_atom_type_partial_charge
O1    O     O_R   0.586930 0.505770 0.416350 -0.537764
O2    O     O_R   0.413070 0.005770 0.583650 -0.537764
O3    O     O_R   0.397900 0.173100 0.389630 -0.539128
O4    O     O_R   0.602100 0.673100 0.610370 -0.539127
C1    C     C_R   0.364365 0.345361 0.362985 0.760203
C2    C     C_R   0.635635 0.845361 0.637015 0.760202
O5    O     O_R   0.585280 0.175870 0.404330 -0.526165
O6    O     O_R   0.414720 0.675870 0.595670 -0.526165
O7    O     O_R   0.601790 0.008380 0.598460 -0.530894
O8    O     O_R   0.398210 0.508380 0.401540 -0.530895
C3    C     C_R   0.615539 0.344716 0.383995 0.769399
C4    C     C_R   0.384461 0.844716 0.616005 0.769399
O9    O     O_3   0.505200 0.340120 0.563670 -0.378680
O10   O     O_3   0.494800 0.840120 0.436330 -0.378680
V1    V     V_3+5 0.499040 0.064180 0.488190 1.515786
V2    V     V_3+5 0.500960 0.564180 0.511810 1.515786
C5    C     C_R   0.306992 0.019487 0.740795 -0.124348
C6    C     C_R   0.693008 0.519487 0.259205 -0.124347
C7    C     C_R   0.316394 0.854228 0.685042 -0.186310
C8    C     C_R   0.683606 0.354228 0.314958 -0.186311
C9    C     C_R   0.251493 0.708813 0.687134 0.632248
C10   C     C_R   0.748507 0.208813 0.312866 0.632249
C11   C     C_R   0.187868 0.717114 0.753513 -0.239295
C12   C     C_R   0.812132 0.217114 0.246487 -0.239295
H1    H     H_    0.137536 0.604070 0.751235 0.161518
H2    H     H_    0.862464 0.104070 0.248765 0.161518
C13   C     C_R   0.183557 0.878237 0.815379 -0.147563
C14   C     C_R   0.816443 0.378237 0.184621 -0.147563
C15   C     C_R   0.243840 0.030271 0.807358 0.014801
C16   C     C_R   0.756160 0.530271 0.192642 0.014801
C17   C     C_3   0.216110 0.228561 0.774224 -0.372357
C18   C     C_3   0.783890 0.728561 0.225776 -0.372357
C19   C     C_3   0.278361 0.210569 0.696883 0.274843
C20   C     C_3   0.721639 0.710569 0.303117 0.274843
H3    H     H_    0.240740 0.334961 0.834127 0.115142
H4    H     H_    0.759259 0.834961 0.165872 0.115142
H5    H     H_    0.142125 0.240798 0.741670 0.212007
H6    H     H_    0.857875 0.740798 0.258329 0.212007
H7    H     H_    0.336048 0.314509 0.706984 0.110137
H8    H     H_    0.663952 0.814509 0.293016 0.110137
C21   C     C_1   0.783587 0.877150 0.782764 -0.159948
C22   C     C_1   0.216413 0.377150 0.217236 -0.159949
C23   C     C_1   0.716237 0.860052 0.716669 -0.137599
C24   C     C_1   0.283763 0.360052 0.283331 -0.137599
O11   O     O_R   0.101720 0.231700 0.098560 -0.536319
O12   O     O_R   0.898280 0.731700 0.901440 -0.536319
O13   O     O_R   0.914700 0.558980 0.095690 -0.539789
O14   O     O_R   0.085300 0.058980 0.904310 -0.539789
C25   C     C_R   0.885778 0.389861 0.117513 0.730314
C26   C     C_R   0.114222 0.889861 0.882487 0.730315
O15   O     O_R   0.102080 0.561590 0.110390 -0.535506
O16   O     O_R   0.897920 0.061590 0.889610 -0.535506
O17   O     O_R   0.086950 0.728940 0.916330 -0.546019
O18   O     O_R   0.913050 0.228940 0.083670 -0.546019
C27   C     C_R   0.135905 0.391955 0.137452 0.735277
C28   C     C_R   0.864095 0.891955 0.862548 0.735278
O19   O     O_3   0.994770 0.394510 0.936380 -0.370232
O20   O     O_3   0.005230 0.894510 0.063620 -0.370232
V3    V     V_3+5 0.000970 0.670520 0.011800 1.444545
V4    V     V_3+5 0.999030 0.170520 0.988200 1.444545
F1    F     F_    0.240731 0.575859 0.613835 -0.657716
F2    F     F_    0.759269 0.075860 0.386165 -0.657716
Br1   Br    Br    0.208350 0.186008 0.559738 -0.410590
Br2   Br    Br    0.791649 0.686008 0.440262 -0.410590

loop_
_geom_bond_atom_site_label_1
_geom_bond_atom_site_label_2
_ccdc_geom_bond_type
O4    V2    S    
C16   C18   S    
C17   C19   S    
O11   V4    S    
C6    C16   A    
C11   C13   A    
O12   V3    S    
C10   F2    S    
C5    C15   A    
C14   C25   S    
C9    F1    S    
O1    C3    A    
C13   C26   S    
O6    C4    A    
C19   Br1   S    
O2    C4    A    
O3    C1    A    
C2    O7    A    
C20   Br2   S    
O7    V1    S    
C1    O8    A    
C21   C28   S    
O1    V2    S    
O18   V4    S    
O5    C3    A    
O2    V1    S    
C21   C23   T    
C19   H7    S    
C22   C24   T    
C6    C20   S    
C20   H8    S    
C2    C23   S    
C18   H4    S    
C4    C7    S    
O14   C26   A    
C7    C9    A    
C1    C24   S    
C8    C10   A    
O14   V4    S    
C6    C8    A    
C18   H6    S    
O9    V1    S    
C9    C11   A    
O17   V3    S    
O10   V1    S    
C22   C27   S    
O10   V2    S    
C3    C8    S    
O19   V3    S    
O4    C2    A    
O15   V3    S    
O20   V4    S    
C25   O18   A    
C26   O17   A    
O16   C28   A    
C11   H1    S    
O3    V1    S    
C13   C15   A    
O11   C27   A    
C12   C14   A    
O13   C25   A    
O6    V2    S    
C10   C12   A    
O12   C28   A    
C17   H3    S    
O9    V2    S    
O19   V4    S    
O8    V2    S    
O5    V1    S    
O16   V4    S    
O15   C27   A    
C5    C7    A    
O20   V3    S    
C15   C17   S    
O13   V3    S    
C17   H5    S    
C12   H2    S    
C14   C16   A    
C5    C19   S    
C18   C20   S    
