data_mof_unit_7969.cif
_audit_creation_date              2012-12-10T17:22:02-0500
_audit_creation_method            fapswitch 2.2
_symmetry_space_group_name_H-M    P1
_symmetry_Int_Tables_number       1
_space_group_crystal_system       triclinic
_cell_length_a                    10.181207
_cell_length_b                    10.466949
_cell_length_c                    15.737357
_cell_angle_alpha                 90.560237
_cell_angle_beta                  81.936238
_cell_angle_gamma                 95.065791
_cell_volume                      1653.996317

loop_
_atom_site_label
_atom_site_type_symbol
_atom_type_description
_atom_site_fract_x
_atom_site_fract_y
_atom_site_fract_z
_atom_type_partial_charge
C1    C     C_R   0.555289 0.734617 0.498057 0.960342
C2    C     C_2   0.507920 0.931551 0.571775 0.570315
C3    C     C_2   0.415886 0.128123 0.527520 -0.208618
C4    C     C_R   0.500807 0.500246 0.661492 0.907394
C5    C     C_2   0.509256 0.070515 0.562971 -0.342307
C6    C     C_2   0.930686 0.524634 0.498251 -0.007178
C7    C     C_2   0.075021 0.500225 0.485415 -0.115836
C8    C     C_R   0.444759 0.264919 0.508845 0.830649
C9    C     C_R   0.499291 0.500166 0.338467 0.901810
C10   C     C_3   0.420617 0.611737 0.956523 -0.441346
C11   C     C_3   0.649271 0.531477 0.938886 -0.128053
C12   C     C_3   0.415674 0.612166 0.055587 -0.126750
C13   C     C_3   0.646708 0.527749 0.037670 -0.354927
C14   C     C_1   0.498202 0.502290 0.249703 -0.169170
C15   C     C_3   0.504548 0.503832 0.916758 0.274684
C16   C     C_2   0.454374 0.744176 0.089331 0.385107
C17   C     C_3   0.392707 0.929608 0.710191 0.114048
C18   C     C_3   0.318902 0.838079 0.779446 -0.328170
C19   C     C_3   0.291745 0.905696 0.865676 -0.968134
C20   C     C_2   0.289781 0.062118 0.504835 0.430596
C21   C     C_2   0.889851 0.639049 0.547626 0.461158
C22   C     C_2   0.746836 0.443874 0.893037 0.372636
C23   C     C_3   0.500827 0.506298 0.082612 0.261826
C24   C     C_3   0.441038 0.374264 0.053744 -0.416615
C25   C     C_3   0.439754 0.374042 0.955882 -0.356142
C26   C     C_1   0.498686 0.504307 0.174372 -0.118795
C27   C     C_1   0.503962 0.502495 0.825271 -0.128097
C28   C     C_1   0.502828 0.501283 0.750106 -0.188244
C29   C     C_2   0.584161 0.871132 0.510243 -0.415309
H1    H     H_    0.317329 0.596366 0.940346 0.162107
H2    H     H_    0.686280 0.630627 0.916719 0.121285
H3    H     H_    0.696059 0.618766 0.059511 0.193825
H4    H     H_    0.704521 0.450063 0.057054 0.195016
H5    H     H_    0.335015 0.358229 0.942496 0.165317
H6    H     H_    0.492526 0.292632 0.926238 0.220300
H7    H     H_    0.337620 0.352890 0.087107 0.170527
H8    H     H_    0.393126 0.781744 0.144320 0.070821
H9    H     H_    0.328804 0.008139 0.701496 0.167539
H10   H     H_    0.487463 0.970300 0.731823 0.124348
H11   H     H_    0.222753 0.798805 0.759675 0.239324
H12   H     H_    0.310270 0.586780 0.084248 0.099945
H13   H     H_    0.379717 0.756812 0.786642 0.221815
H14   H     H_    0.386905 0.942570 0.887765 0.278384
H15   H     H_    0.237242 0.836847 0.914261 0.265436
H16   H     H_    0.229981 0.986763 0.860156 0.272948
H17   H     H_    0.222762 0.116694 0.474903 0.054963
H18   H     H_    0.801277 0.633761 0.594346 0.095956
H19   H     H_    0.818626 0.480869 0.839491 0.060273
H20   H     H_    0.500599 0.296641 0.071091 0.207864
H21   H     H_    0.598629 0.125434 0.578250 0.161132
H22   H     H_    0.659412 0.923841 0.464798 0.127147
H23   H     H_    0.111763 0.437261 0.433982 0.146478
H24   H     H_    0.120374 0.604146 0.586402 0.207686
H25   H     H_    0.463402 0.705682 0.927771 0.210661
H26   H     H_    0.876985 0.370834 0.431681 0.160240
N1    N     N_2   0.842720 0.448890 0.465540 -0.235031
N2    N     N_2   0.157250 0.551040 0.534500 -0.166088
O1    O     O_R   0.431050 0.692470 0.506940 -0.513845
O2    O     O_3   0.418447 0.860807 0.632876 -0.592919
O3    O     O_2   0.258813 0.948153 0.518650 -0.486677
O4    O     O_2   0.956430 0.741895 0.536272 -0.559984
O5    O     O_2   0.744508 0.331499 0.913800 -0.567306
O6    O     O_R   0.651130 0.659650 0.484820 -0.629685
O7    O     O_R   0.389910 0.516410 0.633920 -0.596437
O8    O     O_R   0.609990 0.483590 0.611800 -0.646496
O9    O     O_R   0.348870 0.340350 0.515180 -0.623771
O10   O     O_R   0.568950 0.307530 0.493060 -0.592297
O11   O     O_R   0.390010 0.516410 0.388200 -0.612365
O12   O     O_R   0.610090 0.483590 0.366080 -0.596521
O13   O     O_2   0.554993 0.808076 0.057311 -0.573360
Zn1   Zn    Zn3+2 0.353060 0.521920 0.514770 0.995681
Zn2   Zn    Zn3+2 0.646940 0.478080 0.485230 0.938891

loop_
_geom_bond_atom_site_label_1
_geom_bond_atom_site_label_2
_ccdc_geom_bond_type
O12   Zn2   S    
C22   H19   S    
C23   C24   S    
C19   H16   S    
C8    O9    A    
C6    C7    S    
C22   O5    D    
O8    Zn2   S    
C4    O7    A    
C13   H3    S    
C21   O4    D    
O9    Zn1   S    
C16   H8    S    
C9    C14   S    
H26   N1    S    
C1    C29   S    
C17   C18   S    
C9    O11   A    
C11   H2    S    
C3    C20   S    
O7    Zn1   S    
C1    O1    A    
C14   C26   T    
C13   H4    S    
C11   C13   S    
C12   C23   S    
C24   H7    S    
C10   C12   S    
C17   O2    S    
O11   Zn1   S    
C12   C16   S    
C1    O6    A    
O6    Zn2   S    
C4    C28   S    
C9    O12   A    
C7    H23   S    
C3    C8    S    
C11   C15   S    
C10   C15   S    
C2    C29   D    
C29   H22   S    
C4    O8    A    
C10   H25   S    
C20   H17   S    
O1    Zn1   S    
C15   C25   S    
C2    C5    S    
C20   O3    D    
N1    Zn2   S    
C19   H15   S    
C5    H21   S    
C24   H20   S    
C25   H5    S    
C16   O13   D    
C24   C25   S    
C13   C23   S    
C12   H12   S    
O10   Zn2   S    
C17   H10   S    
C23   C26   S    
C17   H9    S    
C27   C28   T    
C25   H6    S    
C18   H11   S    
C10   H1    S    
C2    O2    S    
C18   C19   S    
H24   N2    S    
C11   C22   S    
C18   H13   S    
C3    C5    D    
C6    C21   S    
C15   C27   S    
C7    N2    D    
N2    Zn1   S    
C8    O10   A    
C6    N1    D    
C21   H18   S    
C19   H14   S    
