data_mof_unit_58890.cif
_audit_creation_date              2012-12-11T15:52:29-0500
_audit_creation_method            fapswitch 2.2
_symmetry_space_group_name_H-M    P1
_symmetry_Int_Tables_number       1
_space_group_crystal_system       triclinic
_cell_length_a                    6.926425
_cell_length_b                    14.557016
_cell_length_c                    16.019279
_cell_angle_alpha                 90.286842
_cell_angle_beta                  89.976135
_cell_angle_gamma                 90.027384
_cell_volume                      1615.17257324

loop_
_atom_site_label
_atom_site_type_symbol
_atom_type_description
_atom_site_fract_x
_atom_site_fract_y
_atom_site_fract_z
_atom_type_partial_charge
O1    O     O_R   0.494400 0.415640 0.412830 -0.542698
O2    O     O_R   0.823920 0.405510 0.586560 -0.546106
O3    O     O_R   0.994250 0.584360 0.587170 -0.546929
C1    C     C_R   0.654796 0.383250 0.615341 0.715509
O4    O     O_R   0.824110 0.404610 0.413450 -0.544952
O5    O     O_R   0.994440 0.583460 0.412820 -0.539995
C2    C     C_R   0.655046 0.382185 0.384331 0.684481
O6    O     O_R   0.494210 0.416540 0.587180 -0.542962
O7    O     O_3   0.660810 0.558680 0.500000 -0.367778
V1    V     V_3+5 0.935650 0.489110 0.500000 1.413601
O8    O     O_R   0.324150 0.594490 0.413440 -0.541796
C3    C     C_R   0.155120 0.616670 0.384352 0.715424
O9    O     O_R   0.323970 0.595390 0.586550 -0.541049
C4    C     C_R   0.155140 0.617715 0.615563 0.719502
V2    V     V_3+5 0.435660 0.510890 0.500000 1.421404
O10   O     O_3   0.160630 0.441320 0.500000 -0.372673
C5    C     C_3   0.046664 0.645337 0.764294 -0.440202
H1    H     H_    0.898831 0.621034 0.748232 0.140513
H2    H     H_    0.130171 0.584399 0.785304 0.155325
C6    C     C_3   0.033598 0.716534 0.836749 -0.347188
H3    H     H_    0.110359 0.689556 0.892490 0.141635
H4    H     H_    0.879591 0.726246 0.854572 0.145070
H5    H     H_    0.875265 0.751453 0.643237 0.052972
H6    H     H_    0.859022 0.857450 0.748420 0.102679
C7    C     C_3   0.024389 0.773352 0.659924 0.513846
C8    C     C_3   0.349140 0.721236 0.712633 -0.297096
C9    C     C_3   0.144561 0.687916 0.686160 0.020509
H7    H     H_    0.424683 0.752847 0.658577 0.188037
H8    H     H_    0.437827 0.661705 0.733127 0.123995
C10   C     C_3   0.123076 0.809858 0.810642 0.029616
C11   C     C_3   0.013171 0.844691 0.732467 -0.335102
C12   C     C_3   0.336649 0.792019 0.784575 -0.316488
H9    H     H_    0.420348 0.766138 0.838917 0.139655
H10   H     H_    0.405384 0.857403 0.764380 0.154432
H11   H     H_    0.075406 0.911422 0.712092 0.192822
C13   C     C_R   0.953242 0.773595 0.215856 -0.153369
H12   H     H_    0.812410 0.791714 0.191720 0.114722
C14   C     C_R   0.964318 0.710457 0.281427 -0.137116
H13   H     H_    0.831454 0.681750 0.305580 0.118028
C15   C     C_R   0.143995 0.684653 0.315159 -0.039260
C16   C     C_R   0.312274 0.723818 0.281378 -0.141710
H14   H     H_    0.453105 0.705699 0.305515 0.118308
C17   C     C_R   0.301198 0.786958 0.215808 -0.148233
H15   H     H_    0.434061 0.815668 0.191658 0.118020
C18   C     C_R   0.121523 0.812749 0.182065 -0.045549
C19   C     C_R   0.809294 0.265996 0.708343 -0.228917
H16   H     H_    0.946991 0.278107 0.678259 0.147869
C20   C     C_R   0.799566 0.200679 0.771956 0.617466
C21   C     C_R   0.623053 0.182546 0.813012 -0.177279
C22   C     C_R   0.457619 0.230986 0.787728 -0.214011
H17   H     H_    0.319984 0.219349 0.817882 0.207021
C23   C     C_R   0.467666 0.295759 0.723609 -0.150011
H18   H     H_    0.337174 0.331813 0.706109 0.138100
C24   C     C_R   0.643832 0.314254 0.683249 -0.132203
C25   C     C_R   0.812162 0.273977 0.281427 -0.151916
H19   H     H_    0.952992 0.292366 0.305605 0.117446
C26   C     C_R   0.801088 0.210106 0.215888 -0.145765
H20   H     H_    0.933944 0.181122 0.191792 0.118861
C27   C     C_R   0.621413 0.183947 0.182109 -0.043236
C28   C     C_R   0.453121 0.223469 0.215814 -0.152308
H21   H     H_    0.312296 0.205076 0.191632 0.116252
C29   C     C_R   0.464195 0.287344 0.281356 -0.147607
H22   H     H_    0.331346 0.316331 0.305455 0.117941
C30   C     C_R   0.643875 0.313500 0.315133 -0.045589
O11   O     O_R   0.771300 0.080930 0.910090 -0.496925
O12   O     O_R   0.441270 0.092800 0.083770 -0.547091
O13   O     O_R   0.271080 0.913920 0.084380 -0.544975
C31   C     C_R   0.610299 0.115259 0.112912 0.674653
O14   O     O_R   0.441580 0.091910 0.910670 -0.537959
O15   O     O_R   0.271390 0.913020 0.910040 -0.542519
C32   C     C_R   0.610923 0.113931 0.881546 0.744171
O16   O     O_R   0.770990 0.081830 0.084440 -0.543942
O17   O     O_3   0.604750 0.938760 0.997250 -0.382864
V3    V     V_3+5 0.329850 0.008280 0.997210 1.445545
O18   O     O_R   0.941680 0.901940 0.910610 -0.542344
C33   C     C_R   0.110955 0.879693 0.881544 0.706221
O19   O     O_R   0.941370 0.902830 0.083720 -0.548250
C34   C     C_R   0.110398 0.880704 0.112847 0.670776
V4    V     V_3+5 0.829860 0.986420 0.997150 1.448632
O20   O     O_3   0.104830 0.056030 0.997180 -0.352377
F1    F     F_    0.105229 0.813827 0.589949 -0.689417
F2    F     F_    0.963334 0.154722 0.792137 -0.705308

loop_
_geom_bond_atom_site_label_1
_geom_bond_atom_site_label_2
_ccdc_geom_bond_type
C7    C11   S    
O12   C31   A    
C25   H19   S    
C8    C12   S    
O11   V4    S    
O17   V3    S    
C1    O6    A    
C6    C10   S    
O19   C34   A    
C8    C9    S    
C13   H12   S    
O16   V4    S    
O5    C3    A    
C10   C11   S    
C26   C27   A    
V2    O10   S    
O12   V3    S    
C5    C6    S    
C28   C29   A    
C16   H14   S    
O14   C32   A    
C29   C30   A    
O8    V2    S    
O15   V3    S    
C22   C23   A    
C18   C34   S    
O1    V2    S    
C4    C9    S    
C10   C12   S    
O7    V1    S    
C27   C28   A    
V3    O20   S    
O9    C4    A    
C7    F1    S    
C16   C17   A    
O13   C34   A    
C23   C24   A    
C22   H17   S    
O19   V4    S    
C19   C20   A    
C5    C9    S    
O14   V3    S    
O4    C2    A    
O11   C32   A    
C28   H21   S    
C12   H10   S    
C3    C15   S    
O2    C1    A    
O18   C33   A    
C29   H22   S    
C27   C31   S    
C10   C33   S    
C31   O16   A    
C25   C30   A    
C19   C24   A    
C5    H1    S    
O17   V4    S    
C13   C18   A    
O13   V3    S    
C17   C18   A    
O3    C4    A    
C20   C21   A    
C6    H4    S    
O6    V2    S    
O9    V2    S    
C17   H15   S    
O15   C33   A    
C11   H11   S    
O2    V1    S    
C23   H18   S    
C19   H16   S    
C15   C16   A    
C1    C24   S    
O1    C2    A    
O5    V1    S    
O8    C3    A    
C7    C9    S    
C8    H7    S    
C12   H9    S    
C25   C26   A    
O7    V2    S    
H6    C11   S    
O4    V1    S    
O3    V1    S    
V1    O10   S    
C14   C15   A    
C26   H20   S    
C14   H13   S    
C13   C14   A    
C5    H2    S    
C20   F2    S    
H5    C7    S    
C2    C30   S    
V4    O20   S    
C6    H3    S    
C8    H8    S    
C21   C22   A    
C21   C32   S    
O18   V4    S    
