data_mof_unit_55291.cif
_audit_creation_date              2012-12-10T18:43:12-0500
_audit_creation_method            fapswitch 2.2
_symmetry_space_group_name_H-M    P1
_symmetry_Int_Tables_number       1
_space_group_crystal_system       triclinic
_cell_length_a                    10.709739
_cell_length_b                    9.838733
_cell_length_c                    10.696741
_cell_angle_alpha                 90.140357
_cell_angle_beta                  89.72508
_cell_angle_gamma                 89.957493
_cell_volume                      1127.10173036

loop_
_atom_site_label
_atom_site_type_symbol
_atom_type_description
_atom_site_fract_x
_atom_site_fract_y
_atom_site_fract_z
_atom_type_partial_charge
C1    C     C_R   0.259901 0.499947 0.499678 0.852731
C2    C     C_R   0.936028 0.379973 0.528107 -0.203288
C3    C     C_R   0.872575 0.499668 0.498628 -0.004109
C4    C     C_R   0.127488 0.499791 0.498902 -0.003671
C5    C     C_R   0.936136 0.619198 0.468515 -0.199744
C6    C     C_R   0.064079 0.619233 0.468586 -0.207620
C7    C     C_R   0.592044 0.071726 0.439827 -0.078821
C8    C     C_R   0.407544 0.072203 0.559555 -0.053263
C9    C     C_R   0.592031 0.927844 0.439802 -0.070173
C10   C     C_R   0.407683 0.928311 0.559763 -0.088570
C11   C     C_3   0.530258 0.171458 0.935876 0.145748
C12   C     C_R   0.740114 0.499883 0.499561 0.851344
C13   C     C_3   0.552501 0.049294 0.851303 -0.828113
C14   C     C_3   0.233051 0.363117 0.142424 0.140430
C15   C     C_3   0.150721 0.262671 0.212395 -0.814012
C16   C     C_R   0.498662 0.499563 0.262439 0.995239
C17   C     C_R   0.491928 0.499893 0.737614 0.995480
C18   C     C_2   0.447528 0.387365 0.935329 0.428371
C19   C     C_2   0.428935 0.402568 0.069669 0.359741
C20   C     C_2   0.463411 0.501232 0.868232 -0.535497
C21   C     C_2   0.496568 0.496660 0.130128 -0.535705
C22   C     C_R   0.063923 0.380105 0.528458 -0.203385
H1    H     H_    0.453099 0.601176 0.910632 0.129354
H2    H     H_    0.334149 0.874062 0.608028 0.130007
H3    H     H_    0.493011 0.133737 0.026515 0.186363
H4    H     H_    0.622085 0.222148 0.951457 0.112939
H5    H     H_    0.593391 0.082914 0.760949 0.263458
H6    H     H_    0.618392 0.977741 0.896643 0.201598
H7    H     H_    0.463048 0.995682 0.833760 0.253535
H8    H     H_    0.192415 0.379770 0.047947 0.133523
H9    H     H_    0.232780 0.460803 0.195462 0.121926
H10   H     H_    0.190568 0.241603 0.306018 0.267297
H11   H     H_    0.055476 0.305649 0.224363 0.204898
H12   H     H_    0.557126 0.568501 0.082535 0.122837
H13   H     H_    0.144428 0.165915 0.159116 0.248715
H14   H     H_    0.112666 0.287341 0.552649 0.151462
H15   H     H_    0.887193 0.287138 0.552100 0.154956
H16   H     H_    0.887346 0.711954 0.444389 0.148941
H17   H     H_    0.112989 0.711977 0.444457 0.155261
H18   H     H_    0.665593 0.126012 0.391608 0.124563
H19   H     H_    0.334018 0.126861 0.607808 0.143900
H20   H     H_    0.665563 0.873209 0.391535 0.120697
N1    N     N_R   0.500000 0.857200 0.500000 -0.075680
N2    N     N_R   0.500000 0.142810 0.500000 -0.078810
O1    O     O_R   0.316770 0.614620 0.499990 -0.636066
O2    O     O_3   0.354952 0.309572 0.132981 -0.585478
O3    O     O_R   0.683230 0.614620 0.500010 -0.630997
O4    O     O_R   0.316800 0.385290 0.500000 -0.631992
O5    O     O_R   0.683200 0.385290 0.500000 -0.641664
O6    O     O_R   0.500000 0.614630 0.319080 -0.627908
O7    O     O_R   0.500000 0.614630 0.680920 -0.626401
O8    O     O_R   0.500030 0.385300 0.319080 -0.565391
O9    O     O_R   0.499970 0.385300 0.680920 -0.554589
O10   O     O_3   0.443474 0.259880 0.878754 -0.574797
Zn1   Zn    Zn3+2 0.500000 0.653120 0.500000 0.937424
Zn2   Zn    Zn3+2 0.500000 0.346880 0.500000 0.973007

loop_
_geom_bond_atom_site_label_1
_geom_bond_atom_site_label_2
_ccdc_geom_bond_type
C2    C22   A    
C7    H18   S    
C13   H6    S    
C16   C21   S    
N1    Zn1   S    
C17   O9    A    
O5    Zn2   S    
C4    C22   A    
N2    Zn2   S    
O7    Zn1   S    
O6    Zn1   S    
C21   H12   S    
C20   H1    S    
C14   H9    S    
C3    C5    A    
C1    C4    S    
C6    H17   S    
C7    C9    A    
C17   O7    A    
C2    C3    A    
C19   O2    S    
C15   H10   S    
C1    O4    A    
C5    H16   S    
C11   C13   S    
C2    H15   S    
C1    O1    A    
C9    H20   S    
C11   O10   S    
O8    Zn2   S    
C14   H8    S    
C12   O3    A    
C13   H7    S    
C19   C21   D    
C16   O6    A    
C12   O5    A    
C18   C20   D    
C5    C6    A    
C9    N1    A    
C18   O10   S    
C16   O8    A    
C17   C20   S    
C22   H14   S    
C8    H19   S    
O1    Zn1   S    
C4    C6    A    
C18   C19   S    
O9    Zn2   S    
C15   H13   S    
O4    Zn2   S    
O3    Zn1   S    
C11   H3    S    
C14   C15   S    
C13   H5    S    
C3    C12   S    
C11   H4    S    
C10   H2    S    
C10   N1    A    
C7    N2    A    
C15   H11   S    
C8    C10   A    
C8    N2    A    
C14   O2    S    
