data_mof_unit_46427.cif
_audit_creation_date              2012-12-11T16:24:08-0500
_audit_creation_method            fapswitch 2.2
_symmetry_space_group_name_H-M    P1
_symmetry_Int_Tables_number       1
_space_group_crystal_system       triclinic
_cell_length_a                    14.752723
_cell_length_b                    14.772088
_cell_length_c                    33.292686
_cell_angle_alpha                 96.120765
_cell_angle_beta                  96.326075
_cell_angle_gamma                 61.153849
_cell_volume                      6304.54143586

loop_
_atom_site_label
_atom_site_type_symbol
_atom_type_description
_atom_site_fract_x
_atom_site_fract_y
_atom_site_fract_z
_atom_type_partial_charge
C1    C     C_R   0.390813 0.699619 0.446170 0.551130
C2    C     C_R   0.338499 0.344946 0.307686 -0.008384
C3    C     C_R   0.414583 0.261528 0.328780 -0.129670
C4    C     C_R   0.430542 0.272840 0.370663 -0.159167
C5    C     C_R   0.402305 0.257222 0.163785 -0.174896
C6    C     C_R   0.389997 0.238947 0.122163 -0.151938
C7    C     C_R   0.211499 0.375862 0.122032 -0.114324
C8    C     C_R   0.222832 0.392671 0.164069 0.279776
C9    C     C_R   0.318077 0.331180 0.184894 0.046829
C10   C     C_1   0.326560 0.336368 0.228180 0.016539
C11   C     C_1   0.332059 0.339444 0.264454 -0.012701
C12   C     C_R   0.406014 0.386887 0.433746 0.558177
C13   C     C_R   0.293258 0.295274 0.101204 -0.024715
C14   C     C_R   0.756316 0.373022 0.409878 0.020879
C15   C     C_R   0.783382 0.438687 0.392620 -0.180719
C16   C     C_R   0.811028 0.419515 0.352801 -0.142167
C17   C     C_R   0.812765 0.333988 0.329452 -0.008533
C18   C     C_R   0.796335 0.262395 0.347725 -0.100872
C19   C     C_R   0.769488 0.280393 0.387910 0.250294
C20   C     C_R   0.830093 0.313648 0.204059 0.343687
C21   C     C_R   0.822327 0.325037 0.285527 0.350309
C22   C     C_R   0.833117 0.391277 0.141702 -0.131359
C23   C     C_R   0.700662 0.409874 0.447423 0.557052
C24   C     C_R   0.864664 0.379547 0.102761 -0.138210
C25   C     C_R   0.909173 0.198207 0.099063 -0.132616
C26   C     C_R   0.877833 0.209890 0.138138 -0.121572
C27   C     C_R   0.843919 0.305475 0.160447 0.031120
C28   C     C_R   0.907276 0.281897 0.081822 0.019921
C29   C     C_R   0.370450 0.754380 0.409183 0.022756
C30   C     C_R   0.276288 0.783825 0.385896 -0.115875
C31   C     C_R   0.266098 0.811588 0.346353 -0.116952
C32   C     C_R   0.349915 0.810294 0.329503 0.035826
C33   C     C_R   0.440528 0.790221 0.354056 -0.121468
C34   C     C_R   0.393542 0.701255 0.561279 0.540127
C35   C     C_R   0.450679 0.762596 0.393628 -0.133986
C36   C     C_R   0.342669 0.830459 0.204820 0.351127
C37   C     C_R   0.346121 0.821045 0.285856 0.336736
C38   C     C_R   0.262223 0.830586 0.135369 -0.163673
C39   C     C_R   0.242158 0.860585 0.095749 -0.148257
C40   C     C_R   0.377967 0.909895 0.105906 -0.115207
C41   C     C_R   0.396441 0.883085 0.146130 0.263216
C42   C     C_R   0.336686 0.844756 0.161345 0.036718
C43   C     C_R   0.297027 0.904350 0.081249 -0.024183
C44   C     C_R   0.371845 0.369381 0.585200 0.022842
C45   C     C_R   0.407410 0.388915 0.549041 0.539583
C46   C     C_R   0.285315 0.448903 0.604041 -0.132509
C47   C     C_R   0.266288 0.439683 0.643116 -0.122473
C48   C     C_R   0.333586 0.350890 0.663913 0.034899
C49   C     C_R   0.414473 0.267830 0.643650 -0.121647
C50   C     C_R   0.433337 0.276915 0.604620 -0.130847
C51   C     C_R   0.318445 0.347655 0.788471 0.346653
C52   C     C_R   0.325708 0.348057 0.707433 0.346642
C53   C     C_R   0.217993 0.402850 0.850310 -0.121946
C54   C     C_R   0.206855 0.383380 0.889061 -0.131250
C55   C     C_R   0.386121 0.248715 0.892962 -0.129771
C56   C     C_R   0.701312 0.413661 0.562700 0.538068
C57   C     C_R   0.397206 0.268113 0.854298 -0.120912
C58   C     C_R   0.311909 0.341961 0.831883 0.034379
C59   C     C_R   0.289503 0.302747 0.909887 0.022356
C60   C     C_R   0.754060 0.380720 0.602968 0.020044
C61   C     C_R   0.777654 0.448107 0.629665 -0.126920
C62   C     C_R   0.805859 0.427635 0.670449 -0.110844
C63   C     C_R   0.811286 0.339547 0.684926 0.041119
C64   C     C_R   0.794198 0.268859 0.658173 -0.111486
C65   C     C_R   0.766024 0.289075 0.617376 -0.127254
C66   C     C_R   0.886481 0.212603 0.822714 -0.110702
C67   C     C_R   0.370747 0.368050 0.391860 0.019353
C68   C     C_R   0.914077 0.201277 0.864102 -0.127330
C69   C     C_R   0.871532 0.382254 0.873432 -0.125841
C70   C     C_R   0.843804 0.393372 0.832104 -0.110907
C71   C     C_R   0.854159 0.307905 0.806553 0.041600
C72   C     C_1   0.838797 0.316697 0.763554 -0.022436
C73   C     C_1   0.827138 0.325769 0.727603 -0.022739
C74   C     C_R   0.910305 0.285199 0.889643 0.019557
C75   C     C_R   0.376561 0.754560 0.602048 0.020300
C76   C     C_R   0.280998 0.790373 0.619026 -0.126963
C77   C     C_R   0.271458 0.819502 0.660252 -0.111252
C78   C     C_R   0.287697 0.449320 0.370596 0.251444
C79   C     C_R   0.357017 0.813494 0.684928 0.041649
C80   C     C_R   0.450595 0.784052 0.667933 -0.111613
C81   C     C_R   0.460324 0.755082 0.626646 -0.127913
C82   C     C_R   0.396841 0.884011 0.832809 -0.111066
C83   C     C_R   0.377033 0.911534 0.873605 -0.125776
C84   C     C_R   0.227505 0.882529 0.862641 -0.126483
C85   C     C_R   0.247596 0.854933 0.821894 -0.111001
C86   C     C_R   0.330543 0.858362 0.806736 0.040247
C87   C     C_1   0.343010 0.842273 0.764009 -0.023226
C88   C     C_1   0.350448 0.829991 0.727987 -0.022915
C89   C     C_R   0.273546 0.437244 0.328518 -0.089019
C90   C     C_R   0.290145 0.914270 0.888661 0.019606
C91   C     C_R   0.963608 0.264219 0.045547 0.543268
C92   C     C_R   0.273118 0.259726 0.059852 0.545253
C93   C     C_R   0.259314 0.959798 0.043802 0.547107
C94   C     C_R   0.962635 0.267598 0.930702 0.543006
C95   C     C_R   0.270791 0.264008 0.945347 0.546131
C96   C     C_R   0.256029 0.965139 0.928921 0.543821
Cr1   Cr    Cr6+3 0.576280 0.580550 0.506370 1.006589
Cr2   Cr    Cr6+3 0.346780 0.572400 0.496520 1.024799
Cr3   Cr    Cr6+3 0.576960 0.347070 0.497150 1.028288
Cr4   Cr    Cr6+3 0.087320 0.083240 0.984860 1.014161
Cr5   Cr    Cr6+3 0.087720 0.316210 0.996740 1.014468
Cr6   Cr    Cr6+3 0.317350 0.090340 0.995890 1.014223
H1    H     H_    0.454613 0.176958 0.106834 0.144807
H2    H     H_    0.861225 0.445713 0.090032 0.133808
H3    H     H_    0.825896 0.474739 0.339710 0.139773
H4    H     H_    0.798375 0.195227 0.330326 0.144436
H5    H     H_    0.941266 0.122055 0.083525 0.133332
H6    H     H_    0.885794 0.142635 0.151601 0.138671
H7    H     H_    0.212703 0.779193 0.397260 0.143950
H8    H     H_    0.523885 0.741168 0.411019 0.128423
H9    H     H_    0.476110 0.210048 0.179773 0.123746
H10   H     H_    0.505788 0.790465 0.342126 0.133911
H11   H     H_    0.215903 0.800708 0.146274 0.149936
H12   H     H_    0.421920 0.942719 0.095198 0.141054
H13   H     H_    0.499945 0.213840 0.590706 0.127883
H14   H     H_    0.131528 0.426701 0.901452 0.130759
H15   H     H_    0.202564 0.504508 0.657799 0.131261
H16   H     H_    0.464850 0.189493 0.312667 0.122583
H17   H     H_    0.151210 0.461166 0.833943 0.132234
H18   H     H_    0.471265 0.221378 0.841223 0.133407
H19   H     H_    0.944216 0.125390 0.875568 0.128026
H20   H     H_    0.894544 0.146050 0.803110 0.110912
H21   H     H_    0.768801 0.519456 0.619608 0.125690
H22   H     H_    0.818489 0.467555 0.819828 0.110961
H23   H     H_    0.867750 0.448309 0.892260 0.127853
H24   H     H_    0.493907 0.208975 0.386059 0.152544
H25   H     H_    0.819237 0.482670 0.690994 0.112199
H26   H     H_    0.426570 0.935889 0.892777 0.128933
H27   H     H_    0.461393 0.886636 0.821311 0.112791
H28   H     H_    0.517217 0.779289 0.686854 0.110233
H29   H     H_    0.535113 0.727333 0.614579 0.126465
H30   H     H_    0.215124 0.790820 0.600935 0.124168
H31   H     H_    0.196022 0.834867 0.801885 0.113268
H32   H     H_    0.159921 0.884041 0.873219 0.127779
H33   H     H_    0.198607 0.842493 0.673184 0.109743
H34   H     H_    0.137042 0.421900 0.106257 0.134220
H35   H     H_    0.214912 0.502005 0.311970 0.131804
H36   H     H_    0.776538 0.508969 0.408913 0.137432
N1    N     N_R   0.811160 0.402481 0.226421 -0.246545
N2    N     N_R   0.243517 0.423050 0.726961 -0.236498
N3    N     N_R   0.404315 0.273431 0.729251 -0.235008
N4    N     N_R   0.400609 0.273056 0.768912 -0.235153
N5    N     N_R   0.807132 0.408170 0.266311 -0.229560
N6    N     N_R   0.840131 0.236306 0.263188 -0.232177
N7    N     N_R   0.844679 0.230495 0.223227 -0.228934
N8    N     N_R   0.258345 0.841628 0.221996 -0.237528
N9    N     N_R   0.260175 0.836589 0.261714 -0.227280
N10   N     N_R   0.430807 0.808836 0.268625 -0.240723
N11   N     N_R   0.428978 0.813794 0.228898 -0.161585
N12   N     N_R   0.239624 0.422451 0.766688 -0.236358
O1    O     O_R   0.679450 0.499830 0.463150 -0.532116
O2    O     O_R   0.356040 0.477400 0.534170 -0.509124
O3    O     O_R   0.495910 0.323070 0.537100 -0.525296
O4    O     O_R   0.663920 0.359620 0.542290 -0.507960
O5    O     O_3   0.500010 0.500010 0.500010 -0.243479
O6    O     O_R   0.170070 0.978950 0.027680 -0.515334
O7    O     O_R   0.001760 0.175230 0.026640 -0.501328
O8    O     O_R   0.984760 0.333570 0.037150 -0.520849
O9    O     O_R   0.183410 0.309240 0.041890 -0.502233
O10   O     O_R   0.340240 0.172500 0.045430 -0.518004
O11   O     O_R   0.309670 0.000990 0.032050 -0.504172
O12   O     O_R   0.480650 0.664000 0.464630 -0.505016
O13   O     O_R   0.168330 0.982130 0.939200 -0.519947
O14   O     O_R   0.000140 0.178170 0.944610 -0.501706
O15   O     O_R   0.983010 0.336750 0.948660 -0.518714
O16   O     O_R   0.181800 0.312190 0.959860 -0.501312
O17   O     O_R   0.338500 0.175680 0.956950 -0.519110
O18   O     O_R   0.308050 0.003930 0.950020 -0.500716
O19   O     O_3   0.164130 0.163270 0.992500 -0.238085
O20   O     O_R   0.323930 0.675950 0.455370 -0.497342
O21   O     O_R   0.354700 0.475360 0.451930 -0.450097
O22   O     O_R   0.494470 0.320860 0.448390 -0.510047
O23   O     O_R   0.662580 0.357570 0.460050 -0.446047
O24   O     O_R   0.680900 0.502040 0.551870 -0.521908
O25   O     O_R   0.481990 0.666040 0.546870 -0.503017
O26   O     O_R   0.325370 0.678160 0.544080 -0.525680
O27   O     O_3   0.743889 0.213325 0.403495 -0.536830
C97   C     C_3   0.834900 0.134020 0.421514 -0.005483
H37   H     H_    0.871549 0.166619 0.445671 0.120805
H38   H     H_    0.891668 0.087316 0.398378 0.120657
C98   C     C_3   0.807162 0.062607 0.440822 -0.360489
H39   H     H_    0.771364 0.027849 0.417454 0.152104
H40   H     H_    0.878237 0.999572 0.455048 0.083401
H41   H     H_    0.751512 0.106917 0.464431 0.159637
H42   H     H_    0.805609 0.466455 0.157837 0.137658
H43   H     H_    0.179920 0.854620 0.077215 0.143735
H44   H     H_    0.194565 0.828465 0.328384 0.138452
O28   O     O_3   0.470386 0.898272 0.170757 -0.538780
C99   C     C_3   0.425418 0.002977 0.185662 -0.003902
H45   H     H_    0.351710 0.026964 0.200060 0.135241
H46   H     H_    0.409645 0.054377 0.160786 0.128515
C100  C     C_3   0.500315 0.017042 0.217652 -0.354423
H47   H     H_    0.573002 0.998845 0.203962 0.158696
H48   H     H_    0.464486 0.098299 0.230543 0.089598
H49   H     H_    0.518979 0.964899 0.242484 0.183905
H50   H     H_    0.236121 0.520917 0.589707 0.126937
H51   H     H_    0.466448 0.197511 0.658612 0.132031
H52   H     H_    0.451589 0.187007 0.908528 0.130257
H53   H     H_    0.798517 0.200305 0.669134 0.110404
H54   H     H_    0.748270 0.235678 0.597655 0.123421
O29   O     O_3   0.229823 0.545635 0.389616 -0.533864
C101  C     C_3   0.132939 0.555810 0.397040 -0.005775
H55   H     H_    0.142976 0.492795 0.415685 0.120584
H56   H     H_    0.087677 0.554553 0.368096 0.117294
C102  C     C_3   0.071363 0.658914 0.420304 -0.359371
H57   H     H_    0.058825 0.723581 0.402285 0.146462
H58   H     H_    0.994842 0.667991 0.426444 0.083792
H59   H     H_    0.114222 0.662087 0.449566 0.162601
O30   O     O_3   0.142085 0.470755 0.184828 -0.549868
C103  C     C_3   0.067466 0.439020 0.188819 -0.017753
H60   H     H_    0.103429 0.362474 0.202480 0.132959
H61   H     H_    0.027550 0.434324 0.158899 0.130409
C104  C     C_3   0.986673 0.518306 0.216574 -0.356495
H62   H     H_    0.948273 0.595437 0.203611 0.167449
H63   H     H_    0.927103 0.494865 0.219926 0.138148
H64   H     H_    0.024123 0.523676 0.246917 0.157691

loop_
_geom_bond_atom_site_label_1
_geom_bond_atom_site_label_2
_ccdc_geom_bond_type
C7    C13   A    
C66   C68   A    
C87   C88   T    
Cr6   O17   S    
Cr1   O25   S    
C55   C59   A    
C2    C89   A    
C76   H30   S    
C41   C42   A    
C74   C94   S    
C36   C42   S    
C78   O29   S    
C83   H26   S    
C97   H37   S    
C7    C8    A    
C12   O22   A    
Cr2   O2    S    
C53   C54   A    
C25   C28   A    
C104  H64   S    
C84   H32   S    
C26   C27   A    
C62   C63   A    
C101  H56   S    
C92   O9    A    
C20   N1    A    
C38   C42   A    
C48   C52   S    
C30   C31   A    
C31   C32   A    
C36   N11   A    
C81   H29   S    
C55   H52   S    
C16   C17   A    
C68   C74   A    
C15   C16   A    
Cr3   O4    S    
C98   H39   S    
C1    O20   A    
Cr1   O12   S    
C37   N9    A    
C50   H13   S    
O29   C101  S    
C99   H46   S    
C91   O8    A    
C23   O1    A    
C34   O25   A    
C52   N2    A    
Cr2   O5    S    
C39   H43   S    
N1    N5    A    
Cr4   O7    S    
C40   C43   A    
C40   H12   S    
C66   C71   A    
C51   N12   A    
C8    C9    A    
C101  C102  S    
Cr3   O5    S    
Cr5   O16   S    
C66   H20   S    
Cr5   O19   S    
C70   C71   A    
C28   C91   S    
C9    C10   S    
C19   O27   S    
C49   H51   S    
C34   C75   S    
C72   C73   T    
C15   H36   S    
Cr4   O6    S    
Cr6   O19   S    
C98   H40   S    
C69   H23   S    
N2    N12   A    
C61   C62   A    
C67   C78   A    
C84   C90   A    
C2    C11   S    
C43   C93   S    
C94   O15   A    
C1    C29   S    
C79   C88   S    
C44   C46   A    
C17   C18   A    
C12   O21   A    
C54   C59   A    
C102  H58   S    
C78   C89   A    
C38   C39   A    
C12   C67   S    
C80   H28   S    
C101  H55   S    
C30   H7    S    
C100  H49   S    
C84   C85   A    
C21   N5    A    
C56   O4    A    
Cr6   O10   S    
C33   H10   S    
C38   H11   S    
C86   C87   S    
C18   C19   A    
C39   C43   A    
Cr3   O22   S    
C5    H9    S    
C25   C26   A    
C85   C86   A    
C17   C21   S    
C56   C60   S    
C41   O28   S    
C54   H14   S    
O28   C99   S    
C51   N4    A    
C100  H48   S    
C14   C23   S    
C99   C100  S    
C75   C76   A    
C18   H4    S    
C5    C9    A    
C29   C30   A    
C3    H16   S    
C65   H54   S    
Cr2   O26   S    
C32   C37   S    
C47   C48   A    
Cr3   O23   S    
C93   O11   A    
C96   O18   A    
O30   C103  S    
Cr1   O1    S    
C77   C79   A    
C69   C74   A    
Cr4   O14   S    
C51   C58   S    
C6    H1    S    
C76   C77   A    
C82   H27   S    
Cr5   O15   S    
C35   H8    S    
C16   H3    S    
C59   C95   S    
C57   H18   S    
Cr2   O21   S    
C36   N8    A    
C40   C41   A    
C1    O12   A    
C82   C83   A    
C89   H35   S    
C22   C27   A    
C55   C57   A    
C13   C92   S    
C49   C50   A    
C22   C24   A    
C45   O3    A    
Cr5   O8    S    
C26   H6    S    
C8    O30   S    
C95   O16   A    
C94   O14   A    
C44   C45   S    
C25   H5    S    
N8    N9    A    
C102  H59   S    
C44   C50   A    
C99   H45   S    
C83   C90   A    
C102  H57   S    
C46   C47   A    
C48   C49   A    
C61   H21   S    
Cr6   O18   S    
Cr1   O24   S    
C98   H41   S    
Cr4   O19   S    
C14   C15   A    
C14   C19   A    
C93   O6    A    
C75   C81   A    
C24   C28   A    
C21   N6    A    
C80   C81   A    
C95   O17   A    
C68   H19   S    
C60   C65   A    
C4    C67   A    
C97   H38   S    
C53   C58   A    
C53   H17   S    
C90   C96   S    
C23   O23   A    
C20   C27   S    
C103  C104  S    
C63   C73   S    
C29   C35   A    
C103  H61   S    
C52   N3    A    
C96   O13   A    
C4    H24   S    
N6    N7    A    
C45   O2    A    
C32   C33   A    
C22   H42   S    
C2    C3    A    
C104  H63   S    
C7    H34   S    
C82   C86   A    
N3    N4    A    
C100  H47   S    
C6    C13   A    
C92   O10   A    
C57   C58   A    
C5    C6    A    
Cr6   O11   S    
C104  H62   S    
Cr3   O3    S    
C64   C65   A    
C63   C64   A    
C33   C35   A    
Cr4   O13   S    
N10   N11   A    
Cr1   O5    S    
C37   N10   A    
C69   C70   A    
C91   O7    A    
C97   C98   S    
C34   O26   A    
C10   C11   T    
O27   C97   S    
C79   C80   A    
Cr2   O20   S    
C70   H22   S    
C62   H25   S    
C47   H15   S    
C71   C72   S    
Cr5   O9    S    
C103  H60   S    
C64   H53   S    
C56   O24   A    
C46   H50   S    
C20   N7    A    
C60   C61   A    
C77   H33   S    
C24   H2    S    
C3    C4    A    
C31   H44   S    
C85   H31   S    
