data_mof_unit_16061.cif
_audit_creation_date              2012-12-11T16:30:28-0500
_audit_creation_method            fapswitch 2.2
_symmetry_space_group_name_H-M    P1
_symmetry_Int_Tables_number       1
_space_group_crystal_system       triclinic
_cell_length_a                    7.071714
_cell_length_b                    14.349255
_cell_length_c                    16.036822
_cell_angle_alpha                 90.000097
_cell_angle_beta                  89.890479
_cell_angle_gamma                 90.000495
_cell_volume                      1627.3147358

loop_
_atom_site_label
_atom_site_type_symbol
_atom_type_description
_atom_site_fract_x
_atom_site_fract_y
_atom_site_fract_z
_atom_type_partial_charge
O1    O     O_R   0.611670 0.415650 0.164070 -0.536812
O2    O     O_R   0.388330 0.915650 0.835930 -0.536811
O3    O     O_R   0.940950 0.405490 0.337780 -0.542702
O4    O     O_R   0.059050 0.905490 0.662220 -0.542702
O5    O     O_R   0.111350 0.584350 0.338470 -0.550427
O6    O     O_R   0.888650 0.084350 0.661530 -0.550428
C1    C     C_R   0.771745 0.382388 0.365775 0.651841
C2    C     C_R   0.228253 0.882389 0.634224 0.651844
O7    O     O_R   0.941380 0.404630 0.164680 -0.536580
O8    O     O_R   0.058620 0.904630 0.835320 -0.536582
O9    O     O_R   0.111780 0.583470 0.164130 -0.535362
O10   O     O_R   0.888220 0.083470 0.835870 -0.535364
C3    C     C_R   0.772799 0.382632 0.136631 0.692992
C4    C     C_R   0.227200 0.882631 0.863369 0.692987
O11   O     O_R   0.611240 0.416530 0.338400 -0.544138
O12   O     O_R   0.388760 0.916530 0.661600 -0.544139
O13   O     O_3   0.778020 0.558680 0.251290 -0.366778
O14   O     O_3   0.221980 0.058680 0.748710 -0.366775
V1    V     V_3+5 0.052840 0.489110 0.251260 1.388213
V2    V     V_3+5 0.947160 0.989110 0.748740 1.388213
O15   O     O_R   0.441500 0.594510 0.164760 -0.532745
O16   O     O_R   0.558500 0.094510 0.835240 -0.532742
C5    C     C_R   0.273058 0.616397 0.136530 0.701295
C6    C     C_R   0.726943 0.116396 0.863471 0.701288
O17   O     O_R   0.441080 0.595370 0.337860 -0.517554
O18   O     O_R   0.558920 0.095370 0.662140 -0.517546
C7    C     C_R   0.272650 0.617244 0.367026 0.660485
C8    C     C_R   0.727351 0.117245 0.632974 0.660484
V3    V     V_3+5 0.552850 0.510890 0.251270 1.423831
V4    V     V_3+5 0.447150 0.010890 0.748730 1.423844
O19   O     O_3   0.277800 0.441320 0.251250 -0.372633
O20   O     O_3   0.722200 0.941320 0.748750 -0.372635
C9    C     C_3   0.143348 0.649765 0.512251 -0.419960
C10   C     C_3   0.856654 0.149765 0.487748 -0.419979
H1    H     H_    0.000221 0.629427 0.490990 0.157375
H2    H     H_    0.999775 0.129422 0.509009 0.157378
H3    H     H_    0.210190 0.584886 0.536174 0.120612
H4    H     H_    0.789800 0.084889 0.463823 0.120611
C11   C     C_3   0.128059 0.721485 0.584591 -0.337519
C12   C     C_3   0.871944 0.221487 0.415409 -0.337514
H5    H     H_    0.184781 0.689818 0.642748 0.125715
H6    H     H_    0.815230 0.189820 0.357250 0.125715
H7    H     H_    0.977459 0.738263 0.597253 0.151012
H8    H     H_    0.022541 0.238269 0.402748 0.151014
H9    H     H_    0.067445 0.774611 0.366256 0.121042
H10   H     H_    0.932561 0.274628 0.633740 0.121080
H11   H     H_    0.010665 0.872567 0.489509 0.130510
H12   H     H_    0.989309 0.372577 0.510488 0.130513
C13   C     C_3   0.187033 0.783772 0.407460 -0.253515
C14   C     C_3   0.812962 0.283776 0.592538 -0.253537
C15   C     C_3   0.462431 0.711099 0.472560 0.378839
C16   C     C_3   0.537571 0.211092 0.527435 0.378847
C17   C     C_3   0.264073 0.688136 0.438488 0.045820
C18   C     C_3   0.735929 0.188136 0.561512 0.045823
H13   H     H_    0.533346 0.645158 0.492646 0.033240
H14   H     H_    0.466668 0.145146 0.507350 0.033244
C19   C     C_3   0.240274 0.811220 0.563610 0.063289
C20   C     C_3   0.759719 0.311219 0.436388 0.063285
C21   C     C_3   0.161151 0.853192 0.481374 -0.317278
C22   C     C_3   0.838825 0.353196 0.518623 -0.317262
C23   C     C_3   0.448060 0.780549 0.547410 -0.342328
C24   C     C_3   0.551937 0.280541 0.452586 -0.342330
H15   H     H_    0.506869 0.746773 0.604224 0.096873
H16   H     H_    0.493134 0.246762 0.395771 0.096876
H17   H     H_    0.535664 0.843486 0.534869 0.160053
H18   H     H_    0.464322 0.343475 0.465126 0.160049
H19   H     H_    0.284007 0.817066 0.361886 0.210696
H20   H     H_    0.715980 0.317063 0.638114 0.210682
H21   H     H_    0.237691 0.919033 0.466838 0.137272
H22   H     H_    0.762262 0.419032 0.533159 0.137267
H23   H     H_    0.472959 0.583750 0.761206 0.121361
H24   H     H_    0.527141 0.083733 0.238804 0.121366
C25   C     C_R   0.124356 0.933532 0.031731 -0.223128
C26   C     C_R   0.875622 0.433536 0.968266 -0.223123
C27   C     C_R   0.084455 0.962302 0.112797 -0.203587
C28   C     C_R   0.915546 0.462300 0.887200 -0.203620
C29   C     C_R   0.102110 0.899877 0.179770 0.496542
C30   C     C_R   0.897919 0.399867 0.820230 0.496527
C31   C     C_R   0.161438 0.808624 0.163823 -0.205477
C32   C     C_R   0.838589 0.308618 0.836179 -0.205460
C33   C     C_R   0.201943 0.777523 0.082024 0.003650
C34   C     C_R   0.798060 0.277521 0.917977 0.003645
C35   C     C_R   0.185686 0.841661 0.014780 0.059666
C36   C     C_R   0.814302 0.341663 0.985219 0.059661
C37   C     C_R   0.264102 0.684939 0.067039 -0.159618
C38   C     C_R   0.735903 0.184937 0.932963 -0.159615
C39   C     C_R   0.317382 0.657846 0.985231 0.059190
C40   C     C_R   0.682635 0.157843 0.014772 0.059187
C41   C     C_R   0.305687 0.722829 0.918282 0.072394
C42   C     C_R   0.694332 0.222827 0.081720 0.072396
C43   C     C_R   0.237051 0.814284 0.932834 -0.163367
C44   C     C_R   0.762946 0.314285 0.067166 -0.163362
C45   C     C_R   0.382096 0.566372 0.968390 -0.146325
C46   C     C_R   0.617940 0.066365 0.031614 -0.146335
C47   C     C_R   0.437742 0.540403 0.888318 -0.110920
C48   C     C_R   0.562323 0.040391 0.111689 -0.110890
C49   C     C_R   0.429519 0.604311 0.823317 -0.150573
C50   C     C_R   0.570554 0.104298 0.176691 -0.150564
C51   C     C_R   0.362252 0.694183 0.837541 -0.153522
C52   C     C_R   0.637796 0.194176 0.162464 -0.153529
H25   H     H_    0.111521 0.985156 0.982893 0.139770
H26   H     H_    0.888438 0.485163 0.017102 0.139767
H27   H     H_    0.046155 0.034381 0.123042 0.140390
H28   H     H_    0.953852 0.534377 0.876953 0.140390
H29   H     H_    0.178587 0.762709 0.216742 0.108628
H30   H     H_    0.821469 0.262697 0.783261 0.108632
H31   H     H_    0.390762 0.513961 0.016730 0.114906
H32   H     H_    0.609270 0.013955 0.983273 0.114904
H33   H     H_    0.486917 0.470165 0.876598 0.131639
H34   H     H_    0.513163 0.970150 0.123411 0.131634
H35   H     H_    0.355078 0.740698 0.784549 0.096690
H36   H     H_    0.644973 0.240690 0.215455 0.096682
O21   O     O_3   0.083732 0.927535 0.262338 -0.570099
C53   C     C_3   0.915621 0.978410 0.275135 -0.300677
H37   H     H_    0.791879 0.944632 0.244694 0.152148
H38   H     H_    0.932546 0.051686 0.254230 0.153428
H39   H     H_    0.886188 0.980635 0.343026 0.155645
O22   O     O_3   0.916347 0.427515 0.737660 -0.570103
C54   C     C_3   0.084443 0.478410 0.724881 -0.300610
H40   H     H_    0.208171 0.444674 0.755369 0.152143
H41   H     H_    0.067437 0.551692 0.745753 0.153418
H42   H     H_    0.113969 0.480601 0.656998 0.155623
O23   O     O_3   0.557906 0.753863 0.405794 -0.562583
C55   C     C_3   0.750282 0.754465 0.417531 -0.294972
H43   H     H_    0.793168 0.754794 0.483894 0.124433
H44   H     H_    0.797063 0.820811 0.389184 0.180985
H45   H     H_    0.810417 0.693300 0.384568 0.188688
O24   O     O_3   0.442085 0.253853 0.594200 -0.562580
C56   C     C_3   0.249708 0.254464 0.582457 -0.294961
H46   H     H_    0.206836 0.254749 0.516092 0.124421
H47   H     H_    0.202954 0.320836 0.610761 0.180974
H48   H     H_    0.189545 0.193326 0.615449 0.188705

loop_
_geom_bond_atom_site_label_1
_geom_bond_atom_site_label_2
_ccdc_geom_bond_type
C28   H28   S    
C20   C24   S    
C37   C39   A    
C15   O23   S    
C15   C23   S    
O4    C2    A    
V1    O19   S    
O24   C56   S    
C53   H37   S    
C16   O24   S    
O23   C55   S    
C11   H5    S    
H24   C50   S    
H23   C49   S    
C46   H32   S    
C9    C11   S    
C26   C28   A    
C41   C51   A    
C10   C12   S    
C30   O22   S    
C28   C30   A    
C56   H46   S    
O3    C1    A    
C30   C32   A    
C19   C21   S    
C20   C22   S    
C11   C19   S    
C32   H30   S    
O13   V3    S    
C31   H29   S    
O17   V3    S    
C6    C38   S    
C23   H15   S    
O7    C3    A    
O22   C54   S    
O9    V1    S    
C24   H16   S    
C14   H20   S    
C49   C51   A    
O5    C7    A    
O7    V1    S    
O6    C8    A    
O8    V2    S    
C48   C50   A    
O3    V1    S    
O14   V4    S    
H9    C13   S    
C41   C43   A    
C13   H19   S    
C1    C20   S    
O14   V2    S    
C26   H26   S    
C56   H48   S    
C54   H41   S    
C2    O12   A    
C7    C17   S    
C27   H27   S    
C25   C27   A    
H12   C22   S    
C29   O21   S    
C42   C52   A    
C33   C35   A    
C16   C18   S    
O11   V3    S    
C29   C31   A    
C9    C17   S    
C40   C46   A    
C12   C20   S    
C24   H18   S    
C38   C40   A    
C32   C34   A    
C47   H33   S    
C31   C33   A    
C8    C18   S    
O13   V1    S    
C11   H7    S    
C1    O11   A    
C34   C38   A    
C48   H34   S    
C9    H3    S    
C15   C17   S    
C2    C19   S    
C42   C44   A    
C22   H22   S    
C51   H35   S    
O10   V2    S    
O1    V3    S    
C14   C18   S    
C46   C48   A    
C27   C29   A    
C21   H21   S    
C55   H45   S    
C40   C42   A    
C52   H36   S    
C34   C36   A    
C39   C41   A    
C3    C44   S    
O8    C4    A    
O16   C6    A    
O1    C3    A    
O6    V2    S    
C55   H44   S    
O21   C53   S    
V2    O20   S    
C54   H42   S    
O10   C6    A    
C25   H25   S    
O16   V4    S    
C10   H4    S    
C26   C36   A    
C12   H6    S    
C53   H38   S    
C54   H40   S    
C47   C49   A    
C19   C23   S    
O5    V1    S    
O17   C7    A    
C35   C43   A    
H10   C14   S    
O18   C8    A    
C13   C21   S    
O2    V4    S    
C14   C22   S    
O15   C5    A    
V3    O19   S    
C16   C24   S    
C45   H31   S    
V4    O20   S    
C10   C18   S    
O15   V3    S    
C13   C17   S    
C39   C45   A    
O9    C5    A    
C9    H1    S    
C10   H2    S    
C15   H13   S    
O2    C4    A    
C50   C52   A    
C4    C43   S    
C53   H39   S    
H11   C21   S    
O4    V2    S    
C23   H17   S    
C12   H8    S    
C45   C47   A    
C5    C37   S    
C36   C44   A    
O12   V4    S    
C25   C35   A    
C33   C37   A    
C16   H14   S    
C55   H43   S    
C56   H47   S    
O18   V4    S    
