data_mof_unit_26189.cif
_audit_creation_date              2013-03-05T16:11:04-0500
_audit_creation_method            fapswitch 2.2
_symmetry_space_group_name_H-M    P1
_symmetry_Int_Tables_number       1
_space_group_crystal_system       triclinic
_cell_length_a                    10.568209
_cell_length_b                    9.968872
_cell_length_c                    14.106546
_cell_angle_alpha                 89.980253
_cell_angle_beta                  92.106712
_cell_angle_gamma                 89.948275
_cell_volume                      1485.16345156

loop_
_atom_site_label
_atom_site_type_symbol
_atom_site_description
_atom_site_fract_x
_atom_site_fract_y
_atom_site_fract_z
_atom_type_partial_charge
O1    O     O_R   0.316770 0.614620 0.499990 -0.594023
O2    O     O_R   0.683230 0.385380 0.500010 -0.594055
O3    O     O_R   0.683230 0.614620 0.500010 -0.593692
O4    O     O_R   0.316770 0.385380 0.499990 -0.593849
C1    C     C_R   0.260337 0.500065 0.511098 0.960527
C2    C     C_R   0.739588 0.499936 0.488728 0.960495
O5    O     O_R   0.500000 0.614690 0.373720 -0.588796
O6    O     O_R   0.500000 0.385310 0.626280 -0.588779
O7    O     O_R   0.500000 0.614690 0.626280 -0.589628
O8    O     O_R   0.500000 0.385310 0.373720 -0.589547
C3    C     C_R   0.500473 0.500013 0.329455 0.908003
C4    C     C_R   0.499548 0.499984 0.670545 0.908302
Zn1   Zn    Zn3+2 0.500000 0.653120 0.500000 1.009440
Zn2   Zn    Zn3+2 0.500000 0.346880 0.500000 1.009436
N1    N     N_R   0.500000 0.857200 0.500000 -0.100223
N2    N     N_R   0.500000 0.142800 0.500000 -0.100213
C5    C     C_1   0.502850 0.500011 0.228042 -0.125736
C6    C     C_1   0.497269 0.499974 0.771963 -0.126366
C7    C     C_1   0.503285 0.499978 0.142677 -0.019376
C8    C     C_1   0.496907 0.499990 0.857329 -0.019540
C9    C     C_1   0.501304 0.499973 0.042699 -0.023451
C10   C     C_1   0.498930 0.499982 0.957308 -0.023345
C11   C     C_R   0.060117 0.377116 0.522849 0.135640
C12   C     C_R   0.939676 0.622877 0.476308 0.136019
C13   C     C_R   0.939905 0.376717 0.477697 0.134675
C14   C     C_R   0.059918 0.623319 0.521442 0.134311
C15   C     C_R   0.874465 0.499763 0.472094 -0.280968
C16   C     C_R   0.125320 0.500239 0.527225 -0.280913
C17   C     C_R   0.554842 0.071634 0.574176 0.024958
C18   C     C_R   0.445225 0.928361 0.425794 0.025160
C19   C     C_R   0.445095 0.071843 0.425845 0.025065
C20   C     C_R   0.555017 0.928152 0.574107 0.024790
N3    N     N_R   0.106773 0.263481 0.578420 0.222054
O9    O     O_R   0.199671 0.280175 0.640503 -0.391168
O10   O     O_R   0.038352 0.156176 0.586963 -0.328181
N4    N     N_R   0.892918 0.736421 0.420686 0.222379
O11   O     O_R   0.799362 0.719835 0.359149 -0.391218
O12   O     O_R   0.961721 0.843306 0.411403 -0.328648
N5    N     N_R   0.893391 0.262070 0.423297 0.220873
O13   O     O_R   0.801122 0.277922 0.360537 -0.391040
O14   O     O_R   0.961320 0.153961 0.416619 -0.326323
N6    N     N_R   0.106441 0.737980 0.575811 0.220134
O15   O     O_R   0.197770 0.721803 0.639303 -0.391353
O16   O     O_R   0.039296 0.846795 0.581514 -0.325761
C21   C     C_R   0.617711 0.142521 0.654884 0.127311
C22   C     C_R   0.743540 0.184678 0.649092 -0.072282
C23   C     C_R   0.806975 0.241668 0.727959 -0.127715
C24   C     C_R   0.746603 0.251812 0.814128 -0.131436
C25   C     C_R   0.622281 0.206382 0.821209 -0.139861
C26   C     C_R   0.557124 0.154061 0.741547 -0.121217
H1    H     H_    0.792324 0.171636 0.583825 0.200377
H2    H     H_    0.903511 0.276145 0.722846 0.182974
H3    H     H_    0.796246 0.294358 0.875474 0.144016
H4    H     H_    0.575848 0.213135 0.888155 0.142564
H5    H     H_    0.460202 0.120917 0.747558 0.151190
C27   C     C_R   0.382617 0.857465 0.344973 0.127015
C28   C     C_R   0.256776 0.815254 0.350522 -0.071906
C29   C     C_R   0.193634 0.758216 0.271543 -0.127724
C30   C     C_R   0.254296 0.748131 0.185492 -0.131647
C31   C     C_R   0.378638 0.793599 0.178654 -0.139895
C32   C     C_R   0.443530 0.845874 0.258447 -0.120977
H6    H     H_    0.207767 0.828275 0.415686 0.200688
H7    H     H_    0.097101 0.723644 0.276469 0.182881
H8    H     H_    0.204874 0.705560 0.124057 0.143997
H9    H     H_    0.425316 0.786853 0.111809 0.142611
H10   H     H_    0.540506 0.878936 0.252640 0.151517
C33   C     C_R   0.381173 0.142950 0.345575 0.127505
C34   C     C_R   0.255030 0.183989 0.352010 -0.072743
C35   C     C_R   0.190482 0.240964 0.273551 -0.127149
C36   C     C_R   0.250109 0.252273 0.187150 -0.131596
C37   C     C_R   0.374754 0.207967 0.179419 -0.140420
C38   C     C_R   0.440973 0.155602 0.258666 -0.121437
H11   H     H_    0.206875 0.170101 0.417480 0.200589
H12   H     H_    0.093678 0.274504 0.279148 0.183544
H13   H     H_    0.199620 0.294801 0.126117 0.144025
H14   H     H_    0.420597 0.215571 0.112280 0.142695
H15   H     H_    0.538139 0.123407 0.252157 0.150775
C39   C     C_R   0.619429 0.857048 0.654166 0.127835
C40   C     C_R   0.560029 0.844004 0.741208 -0.121650
C41   C     C_R   0.626717 0.791659 0.820250 -0.140634
C42   C     C_R   0.751505 0.747954 0.812215 -0.131570
C43   C     C_R   0.810783 0.759807 0.725711 -0.126811
C44   C     C_R   0.745710 0.816610 0.647429 -0.073575
H16   H     H_    0.462795 0.875847 0.747970 0.150528
H17   H     H_    0.581155 0.783674 0.887483 0.142754
H18   H     H_    0.802397 0.705529 0.873106 0.144059
H19   H     H_    0.907732 0.726833 0.719897 0.184215
H20   H     H_    0.793580 0.830889 0.581868 0.200512

loop_
_geom_bond_atom_site_label_1
_geom_bond_atom_site_label_2
_geom_bond_distance
_ccdc_geom_bond_type
C12   C15   1.408306 A    
O3    C2    1.301156 A    
C42   C43   1.397047 A    
C28   H6    1.079382 S    
N5    O14   1.299760 A    
C21   C22   1.400211 A    
N2    C19   1.374024 A    
O5    C3    1.302895 A    
C30   H8    1.082285 S    
C12   N4    1.452904 S    
O1    C1    1.300905 A    
N4    O11   1.302205 A    
C7    C9    1.409737 S    
C12   C14   1.400244 A    
C17   C20   1.430346 A    
C37   H14   1.082228 S    
C25   H4    1.082232 S    
C27   C28   1.400179 A    
C33   C38   1.405473 A    
O7    Zn1   1.821975 S    
C38   H15   1.082713 S    
C5    C7    1.204376 T    
C39   C44   1.400355 A    
C23   C24   1.397090 A    
C34   C35   1.398672 A    
C11   N3    1.452874 S    
C36   C37   1.397043 A    
C42   H18   1.082272 S    
O3    Zn1   1.973736 S    
C34   H11   1.079671 S    
C44   H20   1.079803 S    
C30   C31   1.397107 A    
C9    C10   1.203905 T    
O2    C2    1.300880 A    
N6    O16   1.299838 A    
C32   H10   1.082803 S    
C24   H3    1.082253 S    
C33   C34   1.400259 A    
N1    C20   1.373955 A    
O8    Zn2   1.821977 S    
N5    O13   1.302223 A    
C39   C40   1.405453 A    
O4    C1    1.301187 A    
N2    C17   1.374146 A    
C18   C27   1.477518 S    
C22   H1    1.079466 S    
C17   C21   1.477443 S    
C31   C32   1.397553 A    
C19   C33   1.477613 S    
C41   H17   1.082259 S    
C1    C16   1.453144 S    
C2    C15   1.453078 S    
C18   C19   1.430353 A    
O6    C4    1.302873 A    
N3    O9    1.302209 A    
C35   H12   1.081652 S    
C11   C16   1.408406 A    
C24   C25   1.397140 A    
C8    C10   1.409736 S    
C31   H9    1.082233 S    
C43   C44   1.398603 A    
Zn1   N1    2.034447 S    
Zn2   N2    2.034447 S    
O1    Zn1   1.974416 S    
N6    O15   1.302241 A    
C14   N6    1.452725 S    
N1    C18   1.374156 A    
C29   H7    1.081766 S    
C22   C23   1.398645 A    
C3    C5    1.431736 S    
O6    Zn2   1.822233 S    
C41   C42   1.397084 A    
C23   H2    1.081751 S    
C13   C15   1.408383 A    
C14   C16   1.408578 A    
C26   H5    1.082820 S    
N4    O12   1.299816 A    
C29   C30   1.397059 A    
C37   C38   1.397627 A    
C13   N5    1.452809 S    
C28   C29   1.398693 A    
C40   H16   1.082796 S    
C21   C26   1.405441 A    
N3    O10   1.299762 A    
C6    C8    1.204370 T    
C11   C13   1.400072 A    
O4    Zn2   1.973737 S    
C35   C36   1.397078 A    
O2    Zn2   1.974415 S    
O7    C4    1.302778 A    
O8    C3    1.302759 A    
C20   C39   1.477613 S    
C40   C41   1.397649 A    
O5    Zn1   1.822235 S    
C25   C26   1.397576 A    
C4    C6    1.431743 S    
C36   H13   1.082260 S    
C27   C32   1.405460 A    
C43   H19   1.081715 S    
