data_mof_unit_65654.cif
_audit_creation_date              2013-03-05T16:07:42-0500
_audit_creation_method            fapswitch 2.2
_symmetry_space_group_name_H-M    P1
_symmetry_Int_Tables_number       1
_space_group_crystal_system       triclinic
_cell_length_a                    35.826099
_cell_length_b                    26.079245
_cell_length_c                    22.125469
_cell_angle_alpha                 90.063127
_cell_angle_beta                  143.912739
_cell_angle_gamma                 89.898221
_cell_volume                      12176.2588476

loop_
_atom_site_label
_atom_site_type_symbol
_atom_site_description
_atom_site_fract_x
_atom_site_fract_y
_atom_site_fract_z
_atom_type_partial_charge
Zn1   Zn    Zn3+2 0.824550 0.706220 0.087530 1.136477
Zn2   Zn    Zn3+2 0.824550 0.293780 0.087530 1.141496
Zn3   Zn    Zn3+2 0.324550 0.206220 0.087530 1.145157
Zn4   Zn    Zn3+2 0.324550 0.793780 0.087530 1.138599
Zn5   Zn    Zn3+2 0.762980 0.793760 0.087560 1.115202
Zn6   Zn    Zn3+2 0.762980 0.206240 0.087560 1.111452
Zn7   Zn    Zn3+2 0.262980 0.293760 0.087560 1.114441
Zn8   Zn    Zn3+2 0.262980 0.706240 0.087560 1.111656
Zn9   Zn    Zn3+2 0.737010 0.793770 0.912460 1.113659
Zn10  Zn    Zn3+2 0.737010 0.206230 0.912460 1.133743
Zn11  Zn    Zn3+2 0.237010 0.293770 0.912460 1.117308
Zn12  Zn    Zn3+2 0.237010 0.706230 0.912460 1.128087
Zn13  Zn    Zn3+2 0.675440 0.706230 0.912460 1.103516
Zn14  Zn    Zn3+2 0.675440 0.293770 0.912460 1.101310
Zn15  Zn    Zn3+2 0.175440 0.206230 0.912460 1.105406
Zn16  Zn    Zn3+2 0.175440 0.793770 0.912460 1.107230
O1    O     O_3   0.749990 0.749990 0.000000 -0.573518
O2    O     O_3   0.749990 0.250010 0.000000 -0.573717
O3    O     O_3   0.249990 0.249990 0.000000 -0.574322
O4    O     O_3   0.249990 0.750010 0.000000 -0.574201
O5    O     O_R   0.637170 0.719360 0.938750 -0.608232
O6    O     O_R   0.637170 0.280640 0.938750 -0.609471
O7    O     O_R   0.137170 0.219360 0.938750 -0.603898
O8    O     O_R   0.137170 0.780640 0.938750 -0.610490
O9    O     O_R   0.862810 0.719350 0.061240 -0.599454
O10   O     O_R   0.862810 0.280650 0.061240 -0.588841
O11   O     O_R   0.362810 0.219350 0.061240 -0.601342
O12   O     O_R   0.362810 0.780650 0.061240 -0.596157
O13   O     O_R   0.845300 0.780620 0.233710 -0.585078
O14   O     O_R   0.845300 0.219380 0.233710 -0.598978
O15   O     O_R   0.345300 0.280620 0.233710 -0.582299
O16   O     O_R   0.345300 0.719380 0.233710 -0.598305
O17   O     O_R   0.654690 0.780640 0.766300 -0.596918
O18   O     O_R   0.654690 0.219360 0.766300 -0.566758
O19   O     O_R   0.154690 0.280640 0.766300 -0.597924
O20   O     O_R   0.154690 0.719360 0.766300 -0.589096
O21   O     O_R   0.759080 0.866840 0.061290 -0.614800
O22   O     O_R   0.759080 0.133160 0.061290 -0.632561
O23   O     O_R   0.259080 0.366840 0.061290 -0.606844
O24   O     O_R   0.259080 0.633160 0.061290 -0.632060
O25   O     O_R   0.697810 0.633140 0.938720 -0.586181
O26   O     O_R   0.697810 0.366860 0.938720 -0.592109
O27   O     O_R   0.197810 0.133140 0.938720 -0.589199
O28   O     O_R   0.197810 0.866860 0.938720 -0.591848
O29   O     O_R   0.740900 0.866850 0.938740 -0.599693
O30   O     O_R   0.740900 0.133150 0.938740 -0.574623
O31   O     O_R   0.240900 0.366850 0.938740 -0.600047
O32   O     O_R   0.240900 0.633150 0.938740 -0.571954
O33   O     O_R   0.802180 0.633140 0.061250 -0.587323
O34   O     O_R   0.802180 0.366860 0.061250 -0.602156
O35   O     O_R   0.302180 0.133140 0.061250 -0.580414
O36   O     O_R   0.302180 0.866860 0.061250 -0.592669
O37   O     O_R   0.888390 0.719350 0.233690 -0.588958
O38   O     O_R   0.888390 0.280650 0.233690 -0.589416
O39   O     O_R   0.388390 0.219350 0.233690 -0.591208
O40   O     O_R   0.388390 0.780650 0.233690 -0.586380
O41   O     O_R   0.611600 0.719370 0.766300 -0.611542
O42   O     O_R   0.611600 0.280630 0.766300 -0.637937
O43   O     O_R   0.111600 0.219370 0.766300 -0.611235
O44   O     O_R   0.111600 0.780630 0.766300 -0.623071
O45   O     O_R   0.698440 0.780630 0.061300 -0.596426
O46   O     O_R   0.698440 0.219370 0.061300 -0.594764
O47   O     O_R   0.198440 0.280630 0.061300 -0.613168
O48   O     O_R   0.198440 0.719370 0.061300 -0.594315
O49   O     O_R   0.801540 0.780630 0.938710 -0.597151
O50   O     O_R   0.801540 0.219370 0.938710 -0.605865
O51   O     O_R   0.301540 0.280630 0.938710 -0.597743
O52   O     O_R   0.301540 0.719370 0.938710 -0.607840
C1    C     C_R   0.650547 0.750066 0.000077 0.833216
C2    C     C_R   0.650514 0.249983 0.000023 0.849711
C3    C     C_R   0.150548 0.250062 0.000080 0.825323
C4    C     C_R   0.150513 0.749984 0.000019 0.848550
C5    C     C_R   0.849455 0.749989 0.999943 0.827959
C6    C     C_R   0.849384 0.249995 0.999815 0.839777
C7    C     C_R   0.349447 0.249977 0.999929 0.833274
C8    C     C_R   0.349389 0.749989 0.999825 0.829116
C9    C     C_R   0.890166 0.749192 0.282483 0.897030
C10   C     C_R   0.890504 0.250723 0.282364 0.947041
C11   C     C_R   0.391952 0.251187 0.282313 0.921100
C12   C     C_R   0.390454 0.750742 0.282353 0.944323
C13   C     C_R   0.607561 0.751909 0.717651 0.927893
C14   C     C_R   0.607414 0.247955 0.717579 0.944207
C15   C     C_R   0.107674 0.251777 0.717639 0.927126
C16   C     C_R   0.107799 0.748885 0.717678 0.947378
C17   C     C_R   0.749745 0.891243 0.999939 0.934997
C18   C     C_R   0.751872 0.108838 0.002172 0.939835
C19   C     C_R   0.249897 0.391235 0.000149 0.937639
C20   C     C_R   0.251636 0.608825 0.001943 0.942349
C21   C     C_R   0.749645 0.608581 0.997708 0.950222
C22   C     C_R   0.749375 0.390971 0.998625 0.950401
C23   C     C_R   0.249303 0.108781 0.998161 0.960118
C24   C     C_R   0.249952 0.891214 0.001236 0.961807
C25   C     C_3   0.676459 0.530849 0.915508 0.227421
C26   C     C_3   0.674505 0.469860 0.904370 0.192926
C27   C     C_3   0.175239 0.030944 0.915084 0.230693
C28   C     C_3   0.175051 0.969873 0.905905 0.182859
C29   C     C_3   0.792863 0.528618 0.107139 0.025899
C30   C     C_3   0.786377 0.468304 0.104363 0.010276
C31   C     C_3   0.290466 0.030157 0.107472 0.010392
C32   C     C_3   0.284864 0.970067 0.106329 0.001975
C33   C     C_3   0.777359 0.528229 0.970413 0.147002
C34   C     C_3   0.786066 0.467111 0.987395 0.165679
C35   C     C_3   0.276432 0.030052 0.971534 0.146185
C36   C     C_3   0.288598 0.969262 0.993450 0.153978
C37   C     C_3   0.748549 0.550593 0.996457 -0.387675
C38   C     C_3   0.747660 0.448045 0.996957 -0.382255
C39   C     C_3   0.246968 0.051210 0.996335 -0.392602
C40   C     C_3   0.249043 0.948781 0.001226 -0.361132
H1    H     H_    0.841306 0.535090 0.154734 0.219084
H2    H     H_    0.834975 0.452895 0.164744 0.187812
H3    H     H_    0.339499 0.035632 0.157353 0.205147
H4    H     H_    0.333987 0.956813 0.170935 0.196418
C41   C     C_3   0.513250 0.201128 0.001117 0.077119
C42   C     C_3   0.509124 0.798891 0.993195 0.077122
C43   C     C_3   0.010978 0.701233 0.996554 0.077133
C44   C     C_3   0.012690 0.298971 0.000334 0.076338
C45   C     C_3   0.945059 0.727652 0.914643 0.093380
C46   C     C_3   0.945785 0.274278 0.916210 0.093033
C47   C     C_3   0.446158 0.225637 0.916849 0.094180
C48   C     C_3   0.444134 0.771203 0.912888 0.092233
C49   C     C_1   0.889099 0.750010 0.000028 -0.018748
C50   C     C_1   0.888898 0.249951 0.999639 -0.012567
C51   C     C_1   0.389092 0.249979 0.000020 -0.015813
C52   C     C_1   0.388895 0.749951 0.999631 -0.017905
C53   C     C_1   0.611047 0.250016 0.000276 -0.016837
C54   C     C_1   0.611074 0.750174 0.000315 -0.012363
C55   C     C_1   0.111043 0.750029 0.000261 -0.015315
C56   C     C_1   0.111083 0.250148 0.000335 -0.017396
C57   C     C_3   0.028542 0.723996 0.081577 0.176338
C58   C     C_3   0.029296 0.274367 0.083330 0.174570
C59   C     C_3   0.529721 0.225823 0.083960 0.178938
C60   C     C_3   0.527391 0.777359 0.079530 0.175038
C61   C     C_3   0.963518 0.749937 0.001092 -0.163321
C62   C     C_3   0.963302 0.250119 0.000666 -0.164103
C63   C     C_3   0.463545 0.249888 0.001157 -0.163453
C64   C     C_3   0.463279 0.750168 0.000617 -0.163300
C65   C     C_3   0.554156 0.273826 0.084228 0.169979
C66   C     C_3   0.555730 0.729559 0.087275 0.173039
C67   C     C_3   0.055182 0.771933 0.086263 0.170528
C68   C     C_3   0.054145 0.226404 0.084093 0.175063
C69   C     C_3   0.537722 0.249981 0.001381 -0.162549
C70   C     C_3   0.537575 0.750248 0.001076 -0.161838
C71   C     C_3   0.037696 0.750019 0.001319 -0.162436
C72   C     C_3   0.037590 0.250164 0.001108 -0.161086
C73   C     C_3   0.990250 0.798718 0.005867 0.074630
C74   C     C_3   0.988213 0.201316 0.001446 0.073919
C75   C     C_3   0.488033 0.298734 0.001438 0.074486
C76   C     C_3   0.491741 0.701529 0.008500 0.074183
C77   C     C_3   0.471050 0.274439 0.917123 0.091223
C78   C     C_3   0.473001 0.722609 0.920761 0.092538
C79   C     C_3   0.972197 0.776390 0.919410 0.092373
C80   C     C_3   0.971103 0.225521 0.916984 0.091144
C81   C     C_1   0.922665 0.749968 0.000395 0.151564
C82   C     C_1   0.922423 0.250024 0.999921 0.150691
C83   C     C_1   0.422675 0.249920 0.000422 0.153176
C84   C     C_1   0.422408 0.750040 0.999889 0.149617
C85   C     C_1   0.577897 0.250023 0.000733 0.151280
C86   C     C_1   0.577854 0.750223 0.000632 0.151665
C87   C     C_1   0.077882 0.750051 0.000696 0.151388
C88   C     C_1   0.077865 0.250167 0.000657 0.151034
C89   C     C_3   0.490124 0.728483 0.559578 -0.136925
C90   C     C_3   0.507339 0.296508 0.560448 -0.100669
C91   C     C_3   0.989925 0.229650 0.559599 -0.137445
C92   C     C_3   0.996307 0.787045 0.559786 -0.103348
H5    H     H_    0.501594 0.687260 0.574253 0.223409
H6    H     H_    0.538477 0.328610 0.587424 0.201984
H7    H     H_    0.000571 0.188283 0.574078 0.223415
H8    H     H_    0.016800 0.824986 0.576607 0.212208
C93   C     C_3   0.425452 0.735568 0.438504 0.327776
C94   C     C_3   0.446429 0.299140 0.440337 0.334050
C95   C     C_3   0.925360 0.236977 0.438556 0.327292
C96   C     C_3   0.931526 0.783738 0.439437 0.322754
H9    H     H_    0.473318 0.674065 0.426194 0.214632
H10   H     H_    0.509199 0.296345 0.420201 0.222026
H11   H     H_    0.972058 0.173659 0.426092 0.215121
H12   H     H_    0.989628 0.814065 0.418783 0.216661
C97   C     C_3   0.560746 0.715030 0.559137 0.295156
C98   C     C_3   0.573466 0.253748 0.563604 0.286258
C99   C     C_3   0.060275 0.213861 0.559144 0.293137
C100  C     C_3   0.067268 0.771282 0.560197 0.276315
C101  C     C_3   0.530282 0.810880 0.559877 0.173100
C102  C     C_3   0.507453 0.195770 0.556127 0.211304
C103  C     C_3   0.031568 0.310718 0.559971 0.174590
C104  C     C_3   0.020831 0.691467 0.562921 0.192650
C105  C     C_3   0.549730 0.752722 0.602400 -0.360907
C106  C     C_3   0.550128 0.246977 0.602137 -0.369950
C107  C     C_3   0.049936 0.252607 0.602428 -0.360908
C108  C     C_3   0.049488 0.748660 0.602628 -0.371696
C109  C     C_3   0.446296 0.751920 0.397368 -0.396198
C110  C     C_3   0.448803 0.250787 0.397380 -0.402588
C111  C     C_3   0.946453 0.251937 0.397399 -0.395215
C112  C     C_3   0.945628 0.748829 0.397699 -0.400042
C113  C     C_3   0.495127 0.709757 0.439850 -0.114415
C114  C     C_3   0.512220 0.257548 0.442238 -0.112014
C115  C     C_3   0.994517 0.208842 0.439819 -0.114750
C116  C     C_3   0.003808 0.774137 0.439835 -0.079184
C117  C     C_3   0.479694 0.808402 0.440425 0.236274
C118  C     C_3   0.450607 0.196335 0.432905 0.219724
C119  C     C_3   0.980966 0.307979 0.440556 0.235624
C120  C     C_3   0.962312 0.690541 0.439179 0.206896
C121  C     C_3   0.818453 0.969393 0.120363 0.230886
C122  C     C_3   0.823949 0.030856 0.115945 0.204339
C123  C     C_3   0.319346 0.469449 0.120091 0.229773
C124  C     C_3   0.324358 0.530991 0.115029 0.198347
C125  C     C_3   0.691889 0.970641 0.960342 0.102985
C126  C     C_3   0.699642 0.031153 0.979057 0.126410
C127  C     C_3   0.193037 0.470489 0.963625 0.103832
C128  C     C_3   0.201095 0.530939 0.982737 0.129084
C129  C     C_3   0.747132 0.969621 0.929569 -0.008708
C130  C     C_3   0.736025 0.028407 0.916698 0.011731
C131  C     C_3   0.245287 0.469654 0.927545 -0.009725
C132  C     C_3   0.234215 0.528388 0.915026 0.009520
C133  C     C_3   0.753081 0.948768 0.004717 -0.330198
C134  C     C_3   0.754272 0.051312 0.005655 -0.329288
C135  C     C_3   0.253210 0.448745 0.005026 -0.334313
C136  C     C_3   0.254195 0.551299 0.005772 -0.328734
H13   H     H_    0.703078 0.953806 0.852312 0.187265
H14   H     H_    0.683639 0.032602 0.846086 0.175065
H15   H     H_    0.200697 0.453836 0.850753 0.187336
H16   H     H_    0.181793 0.532698 0.845650 0.176318
N1    N     N_R   0.658280 0.546239 0.954874 0.264217
O53   O     O_R   0.626944 0.588409 0.924334 -0.266551
O54   O     O_R   0.670566 0.518117 0.017800 -0.232256
N2    N     N_R   0.632819 0.448252 0.897983 0.265656
O55   O     O_R   0.573803 0.462961 0.823165 -0.277203
O56   O     O_R   0.651557 0.416076 0.963502 -0.251920
N3    N     N_R   0.156187 0.046177 0.953129 0.263640
O57   O     O_R   0.127093 0.089420 0.925370 -0.266651
O58   O     O_R   0.165911 0.017348 0.012660 -0.233851
N4    N     N_R   0.132261 0.947638 0.896808 0.265005
O59   O     O_R   0.073017 0.961862 0.820257 -0.279483
O60   O     O_R   0.150094 0.915254 0.961273 -0.254669
I1    I     I_    0.974392 0.875615 0.015337 0.036473
I2    I     I_    0.969403 0.124228 0.004437 0.030718
I3    I     I_    0.468651 0.375786 0.003818 0.037958
I4    I     I_    0.478529 0.624750 0.022679 0.034398
N5    N     N_R   0.613076 0.299656 0.177208 0.266261
O61   O     O_R   0.621196 0.317013 0.242397 -0.258584
O62   O     O_R   0.657908 0.305148 0.196101 -0.268129
N6    N     N_R   0.616569 0.707360 0.184012 0.266131
O63   O     O_R   0.625910 0.692458 0.251589 -0.258742
O64   O     O_R   0.661874 0.702693 0.203831 -0.279291
N7    N     N_R   0.115236 0.795593 0.181513 0.266250
O65   O     O_R   0.124119 0.811431 0.248224 -0.258808
O66   O     O_R   0.160312 0.800643 0.200887 -0.268163
N8    N     N_R   0.113252 0.200739 0.177346 0.265967
O67   O     O_R   0.121452 0.183457 0.242629 -0.259205
O68   O     O_R   0.158150 0.195287 0.196350 -0.292813
N9    N     N_R   0.060968 0.695820 0.171759 0.265853
O69   O     O_R   0.116999 0.676772 0.235201 -0.249454
O70   O     O_R   0.034608 0.689884 0.189907 -0.286917
N10   N     N_R   0.062718 0.300594 0.175750 0.266132
O71   O     O_R   0.119484 0.318274 0.240837 -0.251070
O72   O     O_R   0.036458 0.306210 0.194149 -0.277767
N11   N     N_R   0.563384 0.199744 0.176644 0.265587
O73   O     O_R   0.620275 0.182199 0.241826 -0.251627
O74   O     O_R   0.537250 0.194184 0.195247 -0.296035
N12   N     N_R   0.558770 0.806867 0.167877 0.265838
O75   O     O_R   0.614162 0.826864 0.230223 -0.248723
O76   O     O_R   0.532069 0.813132 0.185397 -0.280868
I5    I     I_    0.483205 0.723278 0.649803 -0.011468
I6    I     I_    0.493481 0.332220 0.632548 0.065283
I7    I     I_    0.983196 0.226211 0.650167 -0.014580
I8    I     I_    0.988067 0.813499 0.643673 0.044648
N13   N     N_R   0.382778 0.775353 0.408701 0.230911
O77   O     O_R   0.333733 0.789655 0.313028 -0.324820
O78   O     O_R   0.376108 0.779172 0.458164 -0.246888
N14   N     N_R   0.387670 0.299865 0.400744 0.237232
O79   O     O_R   0.344043 0.334154 0.333269 -0.252369
O80   O     O_R   0.382686 0.273938 0.444012 -0.324804
N15   N     N_R   0.883512 0.277711 0.408955 0.230943
O81   O     O_R   0.834884 0.292281 0.313415 -0.323591
O82   O     O_R   0.876734 0.282340 0.458192 -0.246469
N16   N     N_R   0.879283 0.760637 0.407776 0.235582
O83   O     O_R   0.821538 0.760069 0.311374 -0.288230
O84   O     O_R   0.885941 0.747340 0.472583 -0.288726
N17   N     N_R   0.389201 0.686149 0.393803 0.224706
O85   O     O_R   0.417095 0.641571 0.431641 -0.353027
O86   O     O_R   0.328765 0.686718 0.326902 -0.224491
N18   N     N_R   0.448613 0.349221 0.410600 0.216410
O87   O     O_R   0.427831 0.354201 0.328348 -0.334284
O88   O     O_R   0.458993 0.391117 0.454732 -0.271156
N19   N     N_R   0.888122 0.188100 0.393666 0.224952
O89   O     O_R   0.915094 0.143178 0.431191 -0.352567
O90   O     O_R   0.827682 0.189668 0.326631 -0.225298
N20   N     N_R   0.910721 0.837493 0.398374 0.213067
O91   O     O_R   0.949255 0.872035 0.427601 -0.346661
O92   O     O_R   0.857343 0.854371 0.350472 -0.236309
N21   N     N_R   0.583804 0.664077 0.610207 0.196114
O93   O     O_R   0.553840 0.621684 0.558769 -0.306721
O94   O     O_R   0.640645 0.660084 0.706898 -0.387275
N22   N     N_R   0.613255 0.300903 0.610104 0.181557
O95   O     O_R   0.595549 0.340899 0.556007 -0.311289
O96   O     O_R   0.669473 0.302236 0.707882 -0.384291
N23   N     N_R   0.082470 0.162961 0.610161 0.196121
O97   O     O_R   0.051512 0.120797 0.558647 -0.308174
O98   O     O_R   0.139418 0.158522 0.706668 -0.383150
N24   N     N_R   0.096218 0.823214 0.603655 0.191671
O99   O     O_R   0.079971 0.860613 0.546604 -0.275675
O100  O     O_R   0.148221 0.829105 0.702547 -0.395767
N25   N     N_R   0.582843 0.846681 0.612631 0.248187
O101  O     O_R   0.630733 0.833283 0.642202 -0.271792
O102  O     O_R   0.575094 0.895840 0.610677 -0.267740
N26   N     N_R   0.540787 0.145471 0.596510 0.249053
O103  O     O_R   0.506022 0.104197 0.550332 -0.242500
O104  O     O_R   0.597509 0.139415 0.692125 -0.330145
N27   N     N_R   0.084768 0.345659 0.612799 0.250454
O105  O     O_R   0.132440 0.331205 0.642413 -0.270448
O106  O     O_R   0.078142 0.395000 0.611640 -0.266854
N28   N     N_R   0.070207 0.651199 0.614917 0.250241
O107  O     O_R   0.085514 0.635691 0.581141 -0.222959
O108  O     O_R   0.099236 0.628306 0.697276 -0.322675
I9    I     I_    0.596611 0.567127 0.758704 0.074142
I10   I     I_    0.619358 0.442394 0.753445 -0.036037
I11   I     I_    0.095064 0.066499 0.758058 0.078102
I12   I     I_    0.122456 0.941892 0.756854 -0.004046
I13   I     I_    0.495865 0.847386 0.599420 -0.051230
I14   I     I_    0.479202 0.193711 0.614590 -0.050844
I15   I     I_    0.997726 0.348966 0.599407 -0.051558
I16   I     I_    0.992752 0.672861 0.620607 -0.050593
I17   I     I_    0.412010 0.872385 0.358215 0.099199
I18   I     I_    0.357506 0.176014 0.351642 0.097699
I19   I     I_    0.914836 0.373099 0.358886 0.093162
I20   I     I_    0.876996 0.651944 0.363695 0.108125
N29   N     N_R   0.511228 0.820586 0.422983 0.249962
O109  O     O_R   0.508463 0.790464 0.372846 -0.302578
O110  O     O_R   0.531861 0.866863 0.439848 -0.208991
N30   N     N_R   0.458929 0.155459 0.396736 0.259535
O111  O     O_R   0.513833 0.143566 0.446393 -0.283666
O112  O     O_R   0.410755 0.129689 0.313122 -0.273593
N31   N     N_R   0.012714 0.318692 0.423090 0.247568
O113  O     O_R   0.008607 0.288079 0.371746 -0.304039
O114  O     O_R   0.034608 0.364420 0.440605 -0.210920
N32   N     N_R   0.976195 0.657535 0.404066 0.259442
O115  O     O_R   0.006587 0.674417 0.397025 -0.274824
O116  O     O_R   0.966884 0.608187 0.394711 -0.232408
I21   I     I_    0.634222 0.735027 0.589985 0.078836
I22   I     I_    0.638841 0.193284 0.616939 0.125487
I23   I     I_    0.133986 0.232071 0.589825 0.080545
I24   I     I_    0.141285 0.730510 0.607505 0.088424
I25   I     I_    0.493648 0.678233 0.346033 0.015952
I26   I     I_    0.520374 0.229735 0.359669 0.060589
I27   I     I_    0.992500 0.175950 0.345979 0.018421
I28   I     I_    0.010620 0.778652 0.349950 0.047613
I29   I     I_    0.820705 0.950004 0.220249 0.071008
I30   I     I_    0.869606 0.071036 0.251995 0.040558
I31   I     I_    0.324456 0.449220 0.223704 0.089827
I32   I     I_    0.371724 0.570906 0.252420 0.040239
N33   N     N_R   0.875880 0.940985 0.175246 0.262065
O117  O     O_R   0.872578 0.900143 0.137226 -0.359211
O118  O     O_R   0.929356 0.948900 0.273238 -0.231538
N34   N     N_R   0.869876 0.046105 0.128212 0.259502
O119  O     O_R   0.923774 0.022541 0.192505 -0.203576
O120  O     O_R   0.870090 0.093870 0.111294 -0.363305
N35   N     N_R   0.376262 0.441455 0.172549 0.273970
O121  O     O_R   0.372234 0.400446 0.133944 -0.340238
O122  O     O_R   0.430623 0.450091 0.269774 -0.209319
N36   N     N_R   0.368984 0.546736 0.124641 0.259302
O123  O     O_R   0.422192 0.522788 0.185339 -0.205095
O124  O     O_R   0.369229 0.594792 0.108900 -0.362575
I33   I     I_    0.658497 0.929829 0.997489 -0.104478
I34   I     I_    0.709061 0.055159 0.085927 -0.056043
I35   I     I_    0.161736 0.429715 0.004329 -0.103011
I36   I     I_    0.213336 0.554707 0.093105 -0.050438
N37   N     N_R   0.795875 0.951659 0.950211 0.284704
O125  O     O_R   0.778910 0.922505 0.883018 -0.261223
O126  O     O_R   0.854333 0.966801 0.028695 -0.218884
N38   N     N_R   0.757133 0.055406 0.888992 0.280735
O127  O     O_R   0.714549 0.075799 0.798058 -0.259872
O128  O     O_R   0.815490 0.055437 0.946776 -0.222499
N39   N     N_R   0.292727 0.451773 0.945135 0.283822
O129  O     O_R   0.274426 0.422748 0.876565 -0.257038
O130  O     O_R   0.351148 0.467056 0.021918 -0.220894
N40   N     N_R   0.254067 0.555168 0.885085 0.281929
O131  O     O_R   0.210636 0.574041 0.792872 -0.236958
O132  O     O_R   0.312288 0.556430 0.942450 -0.221654
N41   N     N_R   0.794286 0.556003 0.167117 0.274738
O133  O     O_R   0.759252 0.596010 0.132311 -0.329482
O134  O     O_R   0.841541 0.546469 0.265072 -0.252845
N42   N     N_R   0.766280 0.446121 0.136890 0.285372
O135  O     O_R   0.765468 0.472544 0.185633 -0.175383
O136  O     O_R   0.767732 0.396491 0.144969 -0.337394
N43   N     N_R   0.289990 0.058671 0.164652 0.287822
O137  O     O_R   0.254212 0.098596 0.126829 -0.325390
O138  O     O_R   0.336646 0.051107 0.263218 -0.229810
N44   N     N_R   0.262867 0.948090 0.135681 0.285249
O139  O     O_R   0.262433 0.974585 0.184884 -0.180611
O140  O     O_R   0.264761 0.898478 0.144436 -0.336253
I37   I     I_    0.604945 0.948516 0.798853 -0.135506
I38   I     I_    0.611232 0.074542 0.848916 -0.124417
I39   I     I_    0.104778 0.448391 0.802606 -0.148500
I40   I     I_    0.112315 0.574034 0.855485 -0.135453
N45   N     N_R   0.839113 0.550416 0.031047 0.247878
O141  O     O_R   0.878212 0.574500 0.117639 -0.266836
O142  O     O_R   0.860266 0.538301 0.005229 -0.257662
N46   N     N_R   0.855422 0.452477 0.082927 0.244278
O143  O     O_R   0.896777 0.478847 0.167541 -0.301349
O144  O     O_R   0.877889 0.412627 0.083865 -0.254978
N47   N     N_R   0.336677 0.057949 0.034372 0.254154
O145  O     O_R   0.385643 0.059540 0.134171 -0.278013
O146  O     O_R   0.343069 0.081054 0.990938 -0.285327
N48   N     N_R   0.358936 0.959670 0.086573 0.244940
O147  O     O_R   0.387645 0.930960 0.163493 -0.310092
O148  O     O_R   0.391999 0.970921 0.081823 -0.219783
I41   I     I_    0.718221 0.553434 0.817194 -0.020152
I42   I     I_    0.759953 0.426232 0.867713 -0.012855
I43   I     I_    0.214180 0.047888 0.812381 0.004031
I44   I     I_    0.268106 0.923182 0.884269 -0.027232
I45   I     I_    0.855856 0.692645 0.777800 -0.058729
I46   I     I_    0.857987 0.312172 0.782374 -0.046768
I47   I     I_    0.358637 0.187507 0.783380 -0.056443
I48   I     I_    0.353753 0.804101 0.773883 -0.059360
I49   I     I_    0.534897 0.124117 0.003056 -0.026919
I50   I     I_    0.524561 0.875807 0.983325 -0.029683
I51   I     I_    0.029096 0.624271 0.991413 -0.028210
I52   I     I_    0.033701 0.376043 0.001618 -0.025803
I53   I     I_    0.425727 0.312897 0.784111 -0.032107
I54   I     I_    0.431079 0.679299 0.794113 -0.028972
I55   I     I_    0.928757 0.817849 0.790113 -0.026987
I56   I     I_    0.926162 0.186911 0.784344 -0.034360

loop_
_geom_bond_atom_site_label_1
_geom_bond_atom_site_label_2
_geom_bond_distance
_ccdc_geom_bond_type
C47   C77   1.552539 S    
N11   O74   1.300237 A    
C113  I25   2.192286 S    
Zn5   O21   1.964676 S    
C115  I27   2.192176 S    
O23   C19   1.274680 A    
C126  I34   2.191959 S    
C45   C61   1.545353 S    
C74   I2    2.139481 S    
C34   N46   1.515672 S    
N25   O101  1.295332 A    
C97   C113  1.575914 S    
C34   I42   2.239930 S    
C123  C135  1.624519 S    
N46   O144  1.303228 A    
O42   C14   1.283679 A    
C59   N11   1.457826 S    
C77   I53   2.140287 S    
N15   O81   1.302012 A    
O46   C2    1.287924 A    
N16   O83   1.302972 A    
C102  N26   1.489160 S    
Zn11  O31   1.964024 S    
O34   C22   1.286572 A    
Zn3   O3    1.954952 S    
C72   C88   1.450986 S    
C94   N18   1.493432 S    
Zn16  O28   1.965608 S    
N48   O148  1.304864 A    
C100  C116  1.574999 S    
N17   O86   1.303573 A    
C121  N33   1.488278 S    
C29   C37   1.600658 S    
C126  C134  1.610810 S    
C71   C79   1.545140 S    
C28   C40   1.654985 S    
C58   C68   1.526177 S    
Zn4   O40   1.962542 S    
O27   C23   1.269982 A    
C58   C62   1.532548 S    
C70   C86   1.450971 S    
O11   C7    1.287923 A    
H11   C115  1.090207 S    
N38   O127  1.302605 A    
C43   C71   1.545010 S    
C62   C74   1.545269 S    
N28   O108  1.302224 A    
C23   C39   1.502573 S    
C92   H8    1.103044 S    
C120  N32   1.487739 S    
C132  H16   1.111894 S    
C101  I13   2.220331 S    
C129  C133  1.592028 S    
C103  I15   2.220320 S    
N44   O140  1.301979 A    
O16   C12   1.277889 A    
C96   N20   1.500299 S    
C122  N34   1.489761 S    
N35   O121  1.301347 A    
Zn16  O4    1.954572 S    
N34   O119  1.299211 A    
Zn12  O4    1.952577 S    
Zn13  O5    1.903233 S    
Zn2   O10   1.902886 S    
C122  C134  1.619735 S    
N4    O60   1.297595 A    
C57   C61   1.532267 S    
C69   C85   1.450948 S    
Zn6   O14   1.964499 S    
N14   O80   1.297591 A    
C1    C54   1.418438 S    
C44   I52   2.139660 S    
C5    C49   1.418777 S    
C3    C56   1.418452 S    
C61   C73   1.545099 S    
N24   O99   1.302540 A    
N43   O137  1.300363 A    
C100  I24   2.182734 S    
C109  C117  1.633972 S    
N47   O146  1.302478 A    
C42   I50   2.139463 S    
C9    C112  1.503338 S    
C10   C111  1.500438 S    
C92   C108  1.614635 S    
C120  I20   2.213958 S    
N45   O141  1.300076 A    
C97   N21   1.488531 S    
C30   C38   1.588293 S    
C129  H13   1.106054 S    
O24   C20   1.277037 A    
N22   O96   1.302184 A    
N37   O125  1.302471 A    
N20   O92   1.302389 A    
C70   C78   1.545321 S    
Zn10  O2    1.952577 S    
C92   I8    2.211344 S    
Zn11  O19   1.964547 S    
C44   C46   1.554522 S    
C112  C120  1.619730 S    
C65   N5    1.457788 S    
C78   I54   2.140209 S    
C27   N3    1.503072 S    
C98   C106  1.615568 S    
C99   I23   2.183206 S    
C44   C58   1.540537 S    
Zn7   O23   1.964676 S    
C31   N43   1.478718 S    
Zn8   O24   1.963915 S    
C76   I4    2.139298 S    
C89   H5    1.101626 S    
N39   O129  1.302339 A    
C43   I51   2.139386 S    
N10   O71   1.300309 A    
C41   I49   2.139590 S    
O25   C21   1.281622 A    
N33   O117  1.301461 A    
C128  I36   2.192342 S    
O29   C17   1.282157 A    
C93   C109  1.633520 S    
C118  I18   2.224920 S    
C101  C117  1.591306 S    
C122  I30   2.208152 S    
C104  I16   2.225907 S    
C29   C30   1.584280 S    
N23   O98   1.301514 A    
C96   C112  1.639336 S    
Zn12  O52   1.905695 S    
N9    O69   1.300211 A    
C125  I37   2.194473 S    
O22   C18   1.277787 A    
C68   N8    1.457959 S    
C76   C78   1.554362 S    
Zn13  O41   1.962588 S    
N47   O145  1.301641 A    
O50   C6    1.288719 A    
Zn16  O44   1.962762 S    
N29   O110  1.303281 A    
Zn1   O37   1.962716 S    
N40   O131  1.301755 A    
C47   I47   2.140124 S    
Zn2   O34   1.963817 S    
C44   C72   1.545169 S    
C67   C71   1.532094 S    
C24   C40   1.501588 S    
C66   C76   1.540395 S    
C104  C120  1.617003 S    
C25   I9    2.252092 S    
Zn6   O22   1.963915 S    
C67   N7    1.457580 S    
C46   C62   1.545466 S    
C89   C93   1.595782 S    
N26   O104  1.296645 A    
C41   C47   1.554436 S    
N17   O85   1.302646 A    
C26   N2    1.493214 S    
N29   O109  1.295444 A    
C33   I41   2.191968 S    
N21   O93   1.302603 A    
Zn9   O49   1.904447 S    
Zn10  O50   1.905695 S    
C32   C40   1.593464 S    
C4    C55   1.418389 S    
C98   N22   1.495298 S    
C8    C52   1.418819 S    
N18   O87   1.301254 A    
N32   O115  1.296030 A    
O5    C1    1.288421 A    
O26   C22   1.268765 A    
Zn4   O4    1.957999 S    
N36   O124  1.303086 A    
C18   C134  1.501020 S    
N1    O53   1.302924 A    
C89   I5    2.205781 S    
C29   H1    1.093743 S    
C119  I19   2.198988 S    
C57   C67   1.525971 S    
C123  I31   2.211611 S    
C60   C64   1.532447 S    
C31   H3    1.091491 S    
C129  C130  1.550968 S    
Zn5   O45   1.905843 S    
C45   C79   1.552493 S    
C46   C80   1.552651 S    
N13   O78   1.298868 A    
Zn7   O47   1.905843 S    
C64   C76   1.545205 S    
Zn8   O48   1.904596 S    
N35   O122  1.303997 A    
C63   C75   1.545173 S    
N27   O105  1.295337 A    
C124  N36   1.490818 S    
C32   N44   1.483569 S    
C92   C96   1.579922 S    
O51   C7    1.288257 A    
N33   O118  1.304121 A    
C131  N39   1.478532 S    
O8    C4    1.288033 A    
N48   O147  1.298392 A    
N8    O67   1.300360 A    
C102  I14   2.194745 S    
H10   C114  1.090222 S    
N3    O58   1.296595 A    
Zn3   O39   1.962716 S    
C103  N27   1.494156 S    
N30   O111  1.295397 A    
O28   C24   1.277622 A    
C96   N16   1.496900 S    
O52   C8    1.288712 A    
C131  H15   1.105849 S    
C124  C136  1.618574 S    
C93   N13   1.488356 S    
O40   C12   1.282990 A    
Zn13  O1    1.957618 S    
C99   C115  1.576432 S    
Zn14  O6    1.904340 S    
C123  N35   1.486429 S    
N12   O75   1.300265 A    
Zn15  O27   1.964087 S    
C72   C80   1.545408 S    
C117  N29   1.494144 S    
N6    O63   1.300266 A    
C129  N37   1.478511 S    
O9    C5    1.288009 A    
C111  C115  1.578764 S    
N41   O134  1.301766 A    
C109  C113  1.578216 S    
O13   C9    1.270317 A    
C21   C37   1.512516 S    
N19   O89   1.302678 A    
C33   N45   1.495000 S    
N42   O135  1.299129 A    
O18   C14   1.277959 A    
O6    C2    1.288103 A    
C114  I26   2.192667 S    
Zn9   O29   1.964024 S    
C33   C34   1.609089 S    
C30   H2    1.103147 S    
C73   I1    2.139098 S    
C12   C109  1.500281 S    
N42   O136  1.301973 A    
C99   N23   1.489083 S    
Zn12  O32   1.964786 S    
N2    O55   1.303619 A    
Zn13  O25   1.964087 S    
C51   C83   1.195941 T    
Zn15  O3    1.957618 S    
C98   C114  1.584901 S    
Zn11  O3    1.954106 S    
C80   I56   2.140354 S    
C49   C81   1.195981 T    
C14   C106  1.504746 S    
C112  C116  1.584986 S    
C75   C77   1.554353 S    
O43   C15   1.284542 A    
C79   I55   2.140121 S    
C45   I45   2.139923 S    
C53   C85   1.195823 T    
C99   C107  1.626440 S    
C90   I6    2.221220 S    
C60   C66   1.526078 S    
N7    O65   1.300149 A    
C97   C105  1.626480 S    
C132  N40   1.482142 S    
C102  C106  1.626651 S    
C89   C105  1.609591 S    
C100  C108  1.613749 S    
O35   C23   1.291952 A    
C90   H6    1.108024 S    
C67   C73   1.540317 S    
C43   C45   1.554308 S    
N34   O120  1.302917 A    
O32   C20   1.279716 A    
C35   N47   1.507991 S    
C91   C95   1.595810 S    
C28   I12   2.216943 S    
C125  C133  1.616590 S    
Zn9   O17   1.964547 S    
C126  I38   2.204037 S    
N24   O100  1.301485 A    
C57   N9    1.457612 S    
N25   O102  1.304608 A    
C20   C136  1.501177 S    
Zn14  O42   1.962762 S    
C94   N14   1.489473 S    
C127  C128  1.596985 S    
O7    C3    1.288389 A    
N46   O143  1.300260 A    
C22   C38   1.488873 S    
C66   C70   1.532222 S    
C63   C83   1.451128 S    
C68   C74   1.540485 S    
N23   O97   1.302591 A    
Zn3   O35   1.965337 S    
C47   C63   1.545419 S    
C26   I10   2.214499 S    
C48   C64   1.545400 S    
O37   C9    1.289393 A    
N31   O113  1.295327 A    
C59   C65   1.526128 S    
C103  C107  1.616371 S    
O39   C11   1.280431 A    
C131  C132  1.549677 S    
C90   C94   1.567165 S    
C127  C135  1.616509 S    
C95   C111  1.632925 S    
C121  C133  1.624007 S    
O47   C3    1.288550 A    
C27   C39   1.628182 S    
C2    C53   1.418457 S    
C6    C50   1.418798 S    
C32   H4    1.092243 S    
Zn2   O38   1.962542 S    
C7    C51   1.418715 S    
C16   C108  1.499720 S    
C97   I21   2.183420 S    
O12   C8    1.288407 A    
C36   C40   1.649243 S    
O31   C19   1.282733 A    
C110  C118  1.599576 S    
N10   O72   1.300239 A    
C65   C69   1.532254 S    
N28   O107  1.297601 A    
O19   C15   1.278525 A    
Zn15  O43   1.962588 S    
C65   C75   1.540416 S    
C68   C72   1.532339 S    
C111  C119  1.634576 S    
C130  N38   1.481730 S    
C60   N12   1.457759 S    
C71   C87   1.450889 S    
C58   N10   1.457895 S    
C31   C39   1.607167 S    
C48   C78   1.552610 S    
Zn6   O46   1.904596 S    
N44   O139  1.299401 A    
C27   I11   2.247077 S    
C62   C82   1.451261 S    
Zn3   O11   1.903992 S    
N4    O59   1.303673 A    
N40   O132  1.297682 A    
C127  I35   2.199544 S    
N14   O79   1.303079 A    
C98   I22   2.211001 S    
C100  N24   1.491578 S    
C35   C36   1.611259 S    
C19   C135  1.501596 S    
N21   O94   1.301155 A    
C42   C48   1.554460 S    
O38   C10   1.282382 A    
C75   I3    2.139336 S    
C131  C135  1.591161 S    
C123  C124  1.629297 S    
C25   C26   1.602219 S    
N19   O90   1.303578 A    
C121  C122  1.627931 S    
Zn14  O2    1.954572 S    
C95   N15   1.487990 S    
C27   C28   1.604691 S    
C102  C118  1.614549 S    
C117  I17   2.199184 S    
C121  I29   2.204669 S    
C125  C126  1.597885 S    
C119  N31   1.494280 S    
N45   O142  1.303411 A    
Zn8   O4    1.954108 S    
Zn4   O36   1.963817 S    
C61   C81   1.451192 S    
C42   C70   1.545099 S    
O21   C17   1.275490 A    
N22   O95   1.302407 A    
N18   O88   1.302986 A    
C59   C63   1.532401 S    
N37   O126  1.296560 A    
N20   O91   1.302234 A    
C64   C84   1.451269 S    
N32   O116  1.303738 A    
N5    O62   1.300199 A    
O49   C5    1.288200 A    
C91   C107  1.609127 S    
C118  N30   1.499433 S    
C25   C37   1.633904 S    
N3    O57   1.303112 A    
C41   C69   1.545146 S    
C125  I33   2.198907 S    
N7    O66   1.300286 A    
C11   C110  1.499756 S    
Zn10  O30   1.964786 S    
C66   N6    1.457815 S    
C28   N4    1.493668 S    
Zn12  O20   1.963963 S    
N13   O77   1.302043 A    
N16   O84   1.296642 A    
Zn14  O26   1.965608 S    
C36   I44   2.224648 S    
Zn15  O7    1.903233 S    
C128  C136  1.611383 S    
Zn1   O9    1.903992 S    
C50   C82   1.196017 T    
C15   C107  1.501637 S    
C104  N28   1.504120 S    
C95   N19   1.500899 S    
C13   C105  1.502165 S    
Zn4   O12   1.902886 S    
Zn11  O51   1.904447 S    
C46   I46   2.140201 S    
Zn5   O13   1.963914 S    
C54   C86   1.195815 T    
C33   C37   1.641949 S    
Zn6   O2    1.954108 S    
N8    O68   1.300181 A    
N9    O70   1.300210 A    
Zn7   O15   1.963914 S    
Zn8   O16   1.964499 S    
C132  C136  1.605208 S    
N30   O112  1.301445 A    
C90   C106  1.606104 S    
C101  C105  1.615849 S    
N39   O130  1.296224 A    
C130  C134  1.605381 S    
C103  C119  1.590882 S    
C104  C108  1.611016 S    
N27   O106  1.304572 A    
C91   H7    1.101729 S    
N43   O138  1.302684 A    
N38   O128  1.298265 A    
C17   C133  1.501988 S    
C127  I39   2.194902 S    
C31   C32   1.577834 S    
C128  I40   2.197102 S    
N6    O64   1.300231 A    
C101  N25   1.493817 S    
Zn10  O18   1.963963 S    
H12   C116  1.084457 S    
Zn5   O1    1.952579 S    
C30   N42   1.486920 S    
N31   O114  1.303304 A    
N41   O133  1.300726 A    
C73   C79   1.554296 S    
C74   C80   1.554450 S    
Zn9   O1    1.954106 S    
N26   O103  1.303612 A    
C52   C84   1.196024 T    
O41   C13   1.284309 A    
C93   N17   1.500997 S    
N11   O73   1.300272 A    
C55   C87   1.195784 T    
N12   O76   1.300221 A    
C48   I48   2.140118 S    
C56   C88   1.195828 T    
C43   C57   1.540400 S    
O45   C1    1.288509 A    
N15   O82   1.299052 A    
C26   C38   1.645848 S    
C29   N41   1.470518 S    
C41   C59   1.540539 S    
C42   C60   1.540464 S    
O20   C16   1.283999 A    
O33   C21   1.286362 A    
Zn2   O2    1.957999 S    
N2    O56   1.297700 A    
O15   C11   1.277276 A    
C94   C110  1.621215 S    
Zn7   O3    1.952579 S    
C130  H14   1.111628 S    
C35   I43   2.212923 S    
C35   C39   1.628885 S    
N1    O54   1.296400 A    
H9    C113  1.090243 S    
O44   C16   1.273936 A    
C69   C77   1.545262 S    
O17   C13   1.279158 A    
C124  I32   2.205878 S    
O10   C6    1.288384 A    
C34   C38   1.630466 S    
O48   C4    1.287952 A    
N36   O123  1.298976 A    
C116  I28   2.193981 S    
O36   C24   1.284404 A    
C110  C114  1.592049 S    
O14   C10   1.278575 A    
C36   N48   1.505052 S    
Zn1   O1    1.954952 S    
Zn16  O8    1.904340 S    
C91   I7    2.205186 S    
C25   N1    1.503026 S    
N5    O61   1.300287 A    
Zn1   O33   1.965337 S    
O30   C18   1.278941 A    
