data_mof_unit_30765.cif
_audit_creation_date              2012-10-26T21:19:42-0400
_audit_creation_method            fapswitch 2.2
_symmetry_space_group_name_H-M    P1
_symmetry_Int_Tables_number       1
_space_group_crystal_system       triclinic
_cell_length_a                    10.87361
_cell_length_b                    15.082967
_cell_length_c                    13.846755
_cell_angle_alpha                 89.645287
_cell_angle_beta                  90.625499
_cell_angle_gamma                 90.129724
_cell_volume                      2270.77074342

loop_
_atom_site_label
_atom_site_type_symbol
_atom_type_description
_atom_site_fract_x
_atom_site_fract_y
_atom_site_fract_z
_atom_type_partial_charge
Br1   Br    Br    0.321903 0.772648 0.225548 -0.468315
Br2   Br    Br    0.679250 0.252788 0.810314 -0.442579
C1    C     C_R   0.499639 0.329986 0.500147 0.547656
C2    C     C_R   0.547047 0.812296 0.416981 -0.066212
C3    C     C_R   0.501587 0.233731 0.500088 -0.026390
C4    C     C_R   0.502658 0.767107 0.498294 -0.028753
C5    C     C_R   0.419919 0.186891 0.440733 -0.127104
C6    C     C_R   0.461199 0.814777 0.577906 -0.127730
C7    C     C_R   0.422426 0.094809 0.440594 -0.101289
C8    C     C_R   0.462857 0.906823 0.575847 -0.104397
C9    C     C_R   0.509436 0.049073 0.497108 0.036392
C10   C     C_R   0.508258 0.952192 0.495165 0.041137
C11   C     C_R   0.545493 0.573245 0.108046 -0.131922
C12   C     C_R   0.500335 0.670300 0.499648 0.552023
C13   C     C_R   0.413285 0.450036 0.891400 -0.118401
C14   C     C_R   0.546797 0.570823 0.209506 0.068414
C15   C     C_R   0.416597 0.449682 0.789980 0.074886
C16   C     C_R   0.262179 0.502292 0.499201 0.544992
C17   C     C_R   0.737971 0.497978 0.500947 0.546359
C18   C     C_R   0.452027 0.429911 0.209171 0.060052
C19   C     C_R   0.581323 0.551892 0.790759 0.061482
C20   C     C_R   0.451659 0.428696 0.107701 -0.134207
C21   C     C_R   0.582163 0.553418 0.892234 -0.132509
C22   C     C_R   0.498180 0.501268 0.054559 0.007595
C23   C     C_R   0.871941 0.496826 0.502790 0.002283
C24   C     C_R   0.497714 0.501704 0.945122 0.021049
C25   C     C_R   0.233043 0.663425 0.230855 0.184477
C26   C     C_R   0.777340 0.356270 0.790338 0.189699
C27   C     C_R   0.179577 0.635609 0.317431 -0.023454
C28   C     C_R   0.819354 0.378620 0.697904 -0.018643
C29   C     C_R   0.115369 0.554718 0.321852 0.021432
C30   C     C_R   0.888270 0.456499 0.683679 0.018141
C31   C     C_R   0.103460 0.502991 0.238255 -0.106431
C32   C     C_R   0.916874 0.510214 0.763546 -0.123632
C33   C     C_R   0.156737 0.531116 0.151845 -0.147928
C34   C     C_R   0.128401 0.503952 0.497856 -0.001167
C35   C     C_R   0.877011 0.486720 0.855778 -0.165929
C36   C     C_R   0.221578 0.611133 0.148155 -0.068306
C37   C     C_R   0.807231 0.409931 0.869156 -0.076397
C38   C     C_R   0.932122 0.519000 0.416876 -0.135597
C39   C     C_R   0.068606 0.481660 0.583472 -0.138468
C40   C     C_R   0.941338 0.478466 0.587955 -0.023007
C41   C     C_R   0.059390 0.524513 0.413564 -0.028054
C42   C     C_R   0.594328 0.096165 0.555360 0.295651
C43   C     C_R   0.551456 0.904794 0.414801 0.302650
C44   C     C_R   0.587789 0.188546 0.557356 -0.077144
Cu1   Cu    Cu3+1 0.500000 0.499990 0.596430 0.959219
Cu2   Cu    Cu3+1 0.500000 0.500010 0.403570 0.962065
H1    H     H_    0.263078 0.632321 0.081137 0.145121
H2    H     H_    0.646975 0.591792 0.751483 0.137270
H3    H     H_    0.416083 0.370411 0.071887 0.113425
H4    H     H_    0.651105 0.593391 0.928269 0.098627
H5    H     H_    0.188840 0.676356 0.381265 0.132230
H6    H     H_    0.799083 0.335724 0.637468 0.129095
H7    H     H_    0.053948 0.440630 0.240339 0.125387
H8    H     H_    0.971302 0.569856 0.754399 0.127848
H9    H     H_    0.148210 0.490700 0.087780 0.115421
H10   H     H_    0.899698 0.528312 0.916883 0.121280
H11   H     H_    0.879751 0.535391 0.352099 0.143817
H12   H     H_    0.775412 0.392640 0.940663 0.148746
H13   H     H_    0.121471 0.465309 0.648040 0.137000
H14   H     H_    0.652051 0.225709 0.601228 0.169394
H15   H     H_    0.579917 0.775262 0.355733 0.171940
H16   H     H_    0.353057 0.221569 0.395975 0.132814
H17   H     H_    0.426063 0.780937 0.641114 0.147550
H18   H     H_    0.715569 0.970636 0.760087 0.380149
H19   H     H_    0.537140 0.034685 0.192849 0.380094
H20   H     H_    0.356656 0.058950 0.396253 0.179124
H21   H     H_    0.429016 0.943008 0.637433 0.169218
H22   H     H_    0.579993 0.632106 0.072516 0.123241
H23   H     H_    0.343474 0.410782 0.926712 0.097164
H24   H     H_    0.584739 0.626439 0.248712 0.146991
H25   H     H_    0.351435 0.409400 0.750080 0.132145
H26   H     H_    0.413832 0.374138 0.248079 0.132816
N1    N     N_R   0.500000 0.500020 0.258690 -0.226153
N2    N     N_R   0.500000 0.499980 0.741310 -0.225564
O1    O     O_R   0.500010 0.371450 0.581430 -0.490729
O2    O     O_2   0.811619 0.106358 0.649706 -0.244475
O3    O     O_3   0.648028 0.002944 0.726775 -0.505372
O4    O     O_2   0.697141 0.032725 0.342999 -0.246589
O5    O     O_2   0.683901 0.894088 0.251997 -0.255539
O6    O     O_3   0.496827 0.000624 0.245111 -0.502103
O7    O     O_R   0.499990 0.628550 0.418570 -0.507252
O8    O     O_R   0.500010 0.371460 0.418560 -0.505165
O9    O     O_R   0.499990 0.628540 0.581440 -0.503088
O10   O     O_R   0.319640 0.500000 0.581430 -0.519506
O11   O     O_R   0.680360 0.500000 0.418570 -0.506471
O12   O     O_R   0.319640 0.500010 0.418560 -0.493708
O13   O     O_R   0.680360 0.499990 0.581440 -0.504865
O14   O     O_2   0.763334 0.966491 0.568513 -0.254444
S1    S     S_3+6 0.710408 0.042209 0.624488 0.048484
S2    S     S_3+6 0.613056 0.958688 0.311994 0.050942

loop_
_geom_bond_atom_site_label_1
_geom_bond_atom_site_label_2
_ccdc_geom_bond_type
C31   H7    S    
C32   H8    S    
C25   C27   A    
C32   C35   A    
C39   C40   A    
C14   H24   S    
C39   H13   S    
C21   H4    S    
C36   H1    S    
H18   O3    S    
C28   H6    S    
C19   N2    A    
C16   O10   A    
C29   C41   S    
C44   H14   S    
Cu1   O9    S    
C22   C24   S    
Cu1   N2    S    
C17   O11   A    
C23   C38   A    
C11   H22   S    
C25   C36   A    
C14   N1    A    
O6    S2    S    
C5    C7    A    
C21   C24   A    
C43   S2    S    
O5    S2    D    
C38   C41   A    
C15   N2    A    
C29   C31   A    
O3    S1    S    
C35   H10   S    
C6    H17   S    
C38   H11   S    
C15   H25   S    
Cu1   O13   S    
Cu2   N1    S    
C34   C39   A    
C12   O7    A    
C19   H2    S    
C42   C44   A    
C2    C43   A    
Cu1   O10   S    
C33   C36   A    
C2    C4    A    
C3    C5    A    
C13   C24   A    
C4    C6    A    
C26   C37   A    
C16   O12   A    
Cu2   O8    S    
C11   C22   A    
C30   C32   A    
O4    S2    D    
C17   O13   A    
C4    C12   S    
Cu1   Cu2   S    
C2    H15   S    
Cu2   O12   S    
Cu2   O11   S    
C18   H26   S    
C9    C42   A    
C7    C9    A    
C42   S1    S    
C8    C10   A    
C6    C8    A    
C18   C20   A    
C19   C21   A    
C20   C22   A    
Cu1   O1    S    
C1    O1    A    
C13   C15   A    
C12   O9    A    
C10   C43   A    
C1    C3    S    
C23   C40   A    
C9    C10   S    
O2    S1    D    
C13   H23   S    
C3    C44   A    
Cu2   O7    S    
C33   H9    S    
C26   C28   A    
C7    H20   S    
C27   C29   A    
C28   C30   A    
O14   S1    D    
C27   H5    S    
C37   H12   S    
C31   C33   A    
C17   C23   S    
C5    H16   S    
C8    H21   S    
C18   N1    A    
H19   O6    S    
C35   C37   A    
C11   C14   A    
C1    O8    A    
Br1   C25   S    
C30   C40   S    
C34   C41   A    
Br2   C26   S    
C16   C34   S    
C20   H3    S    
