data_mof_unit_38220.cif
_audit_creation_date              2012-12-10T19:24:08-0500
_audit_creation_method            fapswitch 2.2
_symmetry_space_group_name_H-M    P1
_symmetry_Int_Tables_number       1
_space_group_crystal_system       triclinic
_cell_length_a                    10.48671
_cell_length_b                    10.50138
_cell_length_c                    9.772309
_cell_angle_alpha                 89.551334
_cell_angle_beta                  90.386449
_cell_angle_gamma                 90.491118
_cell_volume                      1076.07828769

loop_
_atom_site_label
_atom_site_type_symbol
_atom_type_description
_atom_site_fract_x
_atom_site_fract_y
_atom_site_fract_z
_atom_type_partial_charge
C1    C     C_R   0.498787 0.257731 0.500478 0.945245
C2    C     C_R   0.501302 0.742277 0.499519 0.950150
C3    C     C_3   0.393115 0.954602 0.560021 -0.297837
C4    C     C_3   0.606990 0.045444 0.439921 -0.346796
C5    C     C_3   0.540052 0.392592 0.049726 -0.052350
C6    C     C_3   0.459948 0.607408 0.950274 -0.051634
C7    C     C_3   0.613414 0.481729 0.952317 -0.073042
C8    C     C_3   0.386586 0.518269 0.047683 -0.070528
C9    C     C_3   0.426553 0.410899 0.951628 -0.049547
C10   C     C_3   0.573447 0.589100 0.048371 -0.049011
C11   C     C_R   0.257535 0.499043 0.499483 0.907411
C12   C     C_R   0.742459 0.500857 0.500523 0.897858
C13   C     C_3   0.041370 0.402973 0.578811 -0.135505
C14   C     C_3   0.958610 0.596780 0.421230 -0.120020
C15   C     C_3   0.955436 0.388771 0.450810 -0.140340
C16   C     C_3   0.044535 0.610975 0.549231 -0.115888
C17   C     C_3   0.877608 0.500913 0.501490 -0.014162
C18   C     C_3   0.122374 0.498847 0.498542 -0.013493
C19   C     C_3   0.960828 0.515160 0.629597 -0.137947
C20   C     C_3   0.039147 0.484589 0.370439 -0.129211
C21   C     C_3   0.494894 0.039758 0.631101 -0.250912
C22   C     C_3   0.505220 0.960280 0.368849 -0.229737
C23   C     C_3   0.601676 0.960364 0.568445 0.486446
C24   C     C_3   0.398453 0.039692 0.431514 0.559237
C25   C     C_3   0.501585 0.877098 0.498618 -0.160256
C26   C     C_3   0.498549 0.122927 0.501351 -0.170866
H1    H     H_    0.914269 0.298420 0.411145 0.153035
H2    H     H_    0.085708 0.701302 0.588943 0.172154
H3    H     H_    0.079680 0.324329 0.643136 0.178505
H4    H     H_    0.920260 0.675427 0.356934 0.176943
H5    H     H_    0.924806 0.527878 0.735159 0.166983
H6    H     H_    0.075166 0.471863 0.264876 0.163920
H7    H     H_    0.491931 0.075060 0.737836 0.194248
H8    H     H_    0.508197 0.924986 0.262110 0.191029
H9    H     H_    0.305665 0.913779 0.607195 0.185234
H10   H     H_    0.694401 0.086282 0.392678 0.170520
H11   H     H_    0.709040 0.466331 0.907596 0.138436
H12   H     H_    0.290959 0.533664 0.092403 0.139360
H13   H     H_    0.573754 0.302040 0.096261 0.151193
H14   H     H_    0.426246 0.697959 0.903739 0.151105
H15   H     H_    0.364707 0.335828 0.906108 0.145475
H16   H     H_    0.635294 0.664170 0.093892 0.145170
N1    N     N_3   0.499910 0.500030 0.863290 -0.088383
N2    N     N_3   0.500090 0.499970 0.136710 -0.088333
O1    O     O_R   0.500010 0.313960 0.616610 -0.632913
O2    O     O_R   0.499990 0.686040 0.383390 -0.630478
O3    O     O_R   0.500060 0.313950 0.383350 -0.589113
O4    O     O_R   0.499940 0.686050 0.616650 -0.591641
O5    O     O_R   0.313930 0.499970 0.616610 -0.639651
O6    O     O_R   0.686070 0.500030 0.383390 -0.639771
O7    O     O_R   0.313980 0.499960 0.383350 -0.605786
O8    O     O_R   0.686020 0.500040 0.616650 -0.608379
Zn1   Zn    Zn3+2 0.499970 0.500010 0.655740 0.979949
Zn2   Zn    Zn3+2 0.500030 0.499990 0.344260 0.982657
S1    S     S_3+6 0.738724 0.906528 0.660056 0.023690
O9    O     O_2   0.697654 0.826603 0.780364 -0.276762
O10   O     O_2   0.820133 0.828279 0.567628 -0.341764
O11   O     O_3   0.823130 0.032676 0.716410 -0.524149
H17   H     H_    0.844477 0.082342 0.632923 0.344384
S2    S     S_3+6 0.261578 0.093966 0.340112 0.004969
O12   O     O_2   0.182209 0.173818 0.433006 -0.354106
O13   O     O_2   0.302532 0.171924 0.218250 -0.311446
O14   O     O_3   0.175893 0.967255 0.287563 -0.559695
H18   H     H_    0.097934 0.003555 0.245474 0.386146

loop_
_geom_bond_atom_site_label_1
_geom_bond_atom_site_label_2
_ccdc_geom_bond_type
C12   C17   S    
C16   H2    S    
C7    C10   S    
C4    C26   S    
S1    O9    D    
C4    H10   S    
C11   C18   S    
C5    C9    S    
C11   O5    A    
C14   C16   S    
C7    N1    S    
C8    C9    S    
C10   H16   S    
C4    C22   S    
C1    C26   S    
C15   H1    S    
C12   O6    A    
C13   C15   S    
C3    H9    S    
C24   S2    S    
O7    Zn2   S    
C19   H5    S    
O2    Zn2   S    
C5    H13   S    
C7    H11   S    
O1    Zn1   S    
C2    O2    A    
C23   S1    S    
C14   C17   S    
C1    O1    A    
C3    C24   S    
O6    Zn2   S    
C8    H12   S    
C13   C18   S    
C14   H4    S    
S2    O14   S    
O5    Zn1   S    
C11   O7    A    
S2    O13   D    
C12   O8    A    
C21   C26   S    
C24   C26   S    
C2    C25   S    
C18   C20   S    
C6    N1    S    
S1    O10   D    
C21   C23   S    
C16   C19   S    
O4    Zn1   S    
C22   H8    S    
C22   C24   S    
C9    N1    S    
N1    Zn1   S    
C3    C21   S    
C6    C10   S    
C13   C19   S    
C10   N2    S    
O14   H18   S    
C17   C19   S    
N2    Zn2   S    
C3    C25   S    
C23   C25   S    
C21   H7    S    
O8    Zn1   S    
C14   C20   S    
C16   C18   S    
C20   H6    S    
S1    O11   S    
C13   H3    S    
C15   C17   S    
C4    C23   S    
C5    C7    S    
C1    O3    A    
C6    C8    S    
C15   C20   S    
C2    O4    A    
O11   H17   S    
C9    H15   S    
C5    N2    S    
C6    H14   S    
C8    N2    S    
O3    Zn2   S    
S2    O12   D    
C22   C25   S    
