data_mof_unit_68430.cif
_audit_creation_date              2012-12-10T16:42:59-0500
_audit_creation_method            fapswitch 2.2
_symmetry_space_group_name_H-M    P1
_symmetry_Int_Tables_number       1
_space_group_crystal_system       triclinic
_cell_length_a                    7.681509
_cell_length_b                    8.894268
_cell_length_c                    13.069313
_cell_angle_alpha                 77.877058
_cell_angle_beta                  76.978545
_cell_angle_gamma                 104.297588
_cell_volume                      808.946708065

loop_
_atom_site_label
_atom_site_type_symbol
_atom_type_description
_atom_site_fract_x
_atom_site_fract_y
_atom_site_fract_z
_atom_type_partial_charge
C1    C     C_R   0.450780 0.199047 0.504191 0.734785
C2    C     C_R   0.549219 0.800953 0.495809 0.734785
C3    C     C_R   0.462128 0.495617 0.702307 0.786856
C4    C     C_R   0.537872 0.504383 0.297693 0.786856
C5    C     C_R   0.561725 0.509163 0.181553 -0.072089
C6    C     C_R   0.438275 0.490837 0.818447 -0.072089
C7    C     C_R   0.248110 0.427516 0.007054 -0.320410
C8    C     C_R   0.751890 0.572484 0.992946 -0.320410
C9    C     C_R   0.259692 0.436470 0.896801 0.390349
C10   C     C_R   0.740308 0.563530 0.103199 0.390349
C11   C     C_R   0.600976 0.536740 0.851655 -0.301488
C12   C     C_R   0.399024 0.463260 0.148345 -0.301488
C13   C     C_R   0.588729 0.527553 0.960924 0.109362
C14   C     C_R   0.411271 0.472447 0.039076 0.109362
C15   C     C_2   0.423593 0.026963 0.513142 0.196732
C16   C     C_2   0.576407 0.973037 0.486858 0.196733
Cu1   Cu    Cu3+1 0.686350 0.517570 0.488220 0.952044
Cu2   Cu    Cu3+1 0.313650 0.482430 0.511780 0.952044
H1    H     H_    0.261063 0.420302 0.207710 0.202085
H2    H     H_    0.738937 0.579698 0.792290 0.202085
H3    H     H_    0.111734 0.384648 0.067929 0.158136
H4    H     H_    0.888266 0.615352 0.932071 0.158136
N1    N     N_2   0.033570 0.455950 0.529530 -0.136243
N2    N     N_2   0.966430 0.544050 0.470470 -0.136243
O1    O     O_R   0.621060 0.286250 0.492350 -0.538783
O2    O     O_R   0.378940 0.713750 0.507650 -0.538783
O3    O     O_R   0.306310 0.256580 0.512240 -0.631043
O4    O     O_R   0.693690 0.743420 0.487760 -0.631044
O5    O     O_R   0.631800 0.512400 0.642670 -0.616218
O6    O     O_R   0.368200 0.487600 0.357330 -0.616218
O7    O     O_R   0.317060 0.482730 0.662570 -0.549805
O8    O     O_R   0.682940 0.517270 0.337430 -0.549805
O9    O     O_3   0.900469 0.609635 0.134993 -0.732639
H5    H     H_    0.012298 0.647884 0.069820 0.320980
O10   O     O_3   0.099531 0.390365 0.865007 -0.732638
H6    H     H_    0.987702 0.352116 0.930180 0.320980
C17   C     C_R   0.920443 0.307887 0.625919 0.356122
C18   C     C_R   0.014673 0.216818 0.685654 -0.074876
C19   C     C_R   0.927638 0.073780 0.771143 -0.198667
C20   C     C_R   0.735502 0.010271 0.807245 -0.079716
C21   C     C_R   0.632023 0.092347 0.758795 -0.229190
C22   C     C_R   0.720797 0.235565 0.673114 -0.104734
H7    H     H_    0.158892 0.245315 0.673741 0.182823
H8    H     H_    0.011462 0.012519 0.810124 0.137307
H9    H     H_    0.667219 0.899937 0.873499 0.148848
H10   H     H_    0.479878 0.045007 0.788313 0.129974
H11   H     H_    0.612958 0.273009 0.654370 0.168873
C23   C     C_R   0.079557 0.692114 0.374081 0.356121
C24   C     C_R   0.985326 0.783182 0.314346 -0.074876
C25   C     C_R   0.072362 0.926220 0.228857 -0.198667
C26   C     C_R   0.264498 0.989730 0.192755 -0.079715
C27   C     C_R   0.367976 0.907654 0.241206 -0.229190
C28   C     C_R   0.279203 0.764435 0.326886 -0.104734
H12   H     H_    0.841108 0.754685 0.326259 0.182823
H13   H     H_    0.988537 0.987481 0.189876 0.137307
H14   H     H_    0.332781 0.100063 0.126501 0.148848
H15   H     H_    0.520122 0.954993 0.211687 0.129974
H16   H     H_    0.387042 0.726991 0.345630 0.168873
O11   O     O_3   0.242785 0.919078 0.553250 -0.727210
H17   H     H_    0.150553 0.976592 0.572431 0.337836
O12   O     O_3   0.757215 0.080922 0.446750 -0.727209
H18   H     H_    0.849448 0.023407 0.427570 0.337835

loop_
_geom_bond_atom_site_label_1
_geom_bond_atom_site_label_2
_ccdc_geom_bond_type
C8    H4    S    
C28   H16   S    
C17   C18   A    
C1    C15   S    
C7    C14   A    
Cu1   O5    S    
C21   C22   A    
C25   H13   S    
Cu2   O2    S    
N1    N2    D    
C3    C6    S    
Cu1   O1    S    
O12   H18   S    
C6    C9    A    
Cu1   Cu2   S    
O11   H17   S    
C2    O2    A    
C24   H12   S    
C7    H3    S    
C13   C14   A    
C3    O7    A    
C1    O1    A    
C11   C13   A    
C3    O5    A    
C4    O8    A    
C21   H10   S    
Cu2   N1    S    
Cu2   O6    S    
C18   C19   A    
C12   H1    S    
C5    C10   A    
C23   C24   A    
O9    H5    S    
C25   C26   A    
C10   O9    S    
C22   H11   S    
C6    C11   A    
C23   C28   A    
C11   H2    S    
Cu1   N2    S    
C16   O12   S    
C19   H8    S    
C26   C27   A    
N2    C23   S    
C8    C13   A    
C7    C9    A    
C18   H7    S    
C2    C16   S    
C27   C28   A    
C5    C12   A    
C9    O10   S    
C24   C25   A    
C27   H15   S    
C17   C22   A    
C1    O3    A    
Cu1   O8    S    
C19   C20   A    
C20   C21   A    
C2    O4    A    
Cu2   O7    S    
C20   H9    S    
N1    C17   S    
Cu1   O4    S    
C15   O11   S    
C8    C10   A    
C4    O6    A    
Cu2   O3    S    
C15   C16   D    
C12   C14   A    
C4    C5    S    
O10   H6    S    
C26   H14   S    
