data_mof_unit_11220.cif
_audit_creation_date              2012-12-10T17:19:23-0500
_audit_creation_method            fapswitch 2.2
_symmetry_space_group_name_H-M    P1
_symmetry_Int_Tables_number       1
_space_group_crystal_system       triclinic
_cell_length_a                    15.110963
_cell_length_b                    10.769574
_cell_length_c                    9.601449
_cell_angle_alpha                 90.218194
_cell_angle_beta                  90.80841
_cell_angle_gamma                 92.237105
_cell_volume                      1561.16554569

loop_
_atom_site_label
_atom_site_type_symbol
_atom_type_description
_atom_site_fract_x
_atom_site_fract_y
_atom_site_fract_z
_atom_type_partial_charge
C1    C     C_R   0.497974 0.262674 0.499704 0.790427
C2    C     C_R   0.908422 0.516409 0.626130 0.045566
C3    C     C_R   0.945959 0.433640 0.255821 -0.216581
C4    C     C_R   0.037518 0.427632 0.254939 -0.067002
C5    C     C_R   0.088512 0.454171 0.376285 0.049242
C6    C     C_R   0.045212 0.485134 0.500857 -0.049399
C7    C     C_R   0.094285 0.511771 0.624489 0.038467
C8    C     C_R   0.049538 0.536943 0.749211 0.441382
C9    C     C_R   0.957273 0.539352 0.748923 -0.243419
C10   C     C_R   0.181413 0.450585 0.375527 0.360314
C11   C     C_R   0.230841 0.486295 0.496701 -0.181652
C12   C     C_R   0.328465 0.494738 0.498813 0.833629
C13   C     C_R   0.186671 0.513948 0.619947 -0.168078
C14   C     C_R   0.351415 0.123076 0.626949 -0.304694
C15   C     C_R   0.282034 0.055722 0.689169 0.387791
C16   C     C_R   0.281812 0.925810 0.690069 0.392103
C17   C     C_R   0.351120 0.864004 0.629012 -0.290899
C18   C     C_R   0.422322 0.930962 0.566608 0.042126
C19   C     C_R   0.422421 0.062143 0.565719 0.038453
C20   C     C_R   0.492177 0.128643 0.498966 -0.044513
C21   C     C_R   0.557868 0.066860 0.429126 -0.184902
C22   C     C_R   0.557785 0.938721 0.429745 -0.196238
C23   C     C_R   0.497445 0.737149 0.500148 0.761453
C24   C     C_R   0.492021 0.870758 0.500229 -0.034730
C25   C     C_R   0.616624 0.666361 0.146739 -0.137507
C26   C     C_R   0.673772 0.747033 0.075896 -0.198272
C27   C     C_R   0.673965 0.746429 0.932417 -0.200212
C28   C     C_R   0.616881 0.665317 0.858906 -0.144166
C29   C     C_R   0.557144 0.581776 0.926668 0.208548
C30   C     C_R   0.557002 0.582056 0.076229 0.206218
C31   C     C_R   0.447195 0.420269 0.072235 0.015561
C32   C     C_R   0.446633 0.420963 0.924428 -0.018557
C33   C     C_R   0.671092 0.499939 0.500861 0.783484
C34   C     C_R   0.816141 0.520073 0.625715 -0.212699
C35   C     C_R   0.767556 0.497075 0.502146 -0.068197
C36   C     C_R   0.811257 0.469330 0.378952 -0.236642
C37   C     C_R   0.903018 0.463954 0.378273 0.121705
C38   C     C_R   0.952279 0.488512 0.501828 0.093458
Cu1   Cu    Cu3+1 0.499990 0.499990 0.640660 0.949484
Cu2   Cu    Cu3+1 0.500010 0.500010 0.359340 0.980272
H1    H     H_    0.782335 0.541517 0.721217 0.155922
H2    H     H_    0.347854 0.223129 0.624734 0.181334
H3    H     H_    0.347462 0.763551 0.628677 0.189302
H4    H     H_    0.610365 0.892279 0.377327 0.132364
H5    H     H_    0.404904 0.353621 0.125945 0.195049
H6    H     H_    0.622855 0.674024 0.256540 0.191118
H7    H     H_    0.718553 0.810187 0.133124 0.158684
H8    H     H_    0.718926 0.809033 0.877326 0.163858
H9    H     H_    0.623021 0.671851 0.749306 0.196418
H10   H     H_    0.773838 0.450311 0.283492 0.160610
H11   H     H_    0.402851 0.356052 0.868020 0.164446
H12   H     H_    0.908658 0.414104 0.160433 0.155947
H13   H     H_    0.067364 0.403368 0.157474 0.239952
H14   H     H_    0.225083 0.538874 0.712515 0.237703
H15   H     H_    0.923688 0.559185 0.845081 0.172940
H16   H     H_    0.610519 0.118327 0.376410 0.147553
N1    N     N_R   0.500860 0.501210 0.147910 -0.211175
N2    N     N_R   0.500890 0.501290 0.852040 -0.210045
O1    O     O_R   0.499990 0.319640 0.618810 -0.584243
O2    O     O_R   0.500000 0.319660 0.381240 -0.575125
O3    O     O_R   0.370250 0.499960 0.618800 -0.594633
O4    O     O_R   0.370260 0.499980 0.381230 -0.512333
O5    O     O_R   0.500000 0.680340 0.618760 -0.599192
O6    O     O_R   0.500010 0.680360 0.381190 -0.584984
O7    O     O_R   0.629740 0.500020 0.618770 -0.602170
O8    O     O_R   0.629750 0.500040 0.381200 -0.610494
Cl1   Cl    Cl    0.195278 0.137071 0.762850 -0.505523
Cl2   Cl    Cl    0.194279 0.838023 0.764327 -0.488824
Cl3   Cl    Cl    0.233666 0.393991 0.224946 -0.575536
Cl4   Cl    Cl    0.105678 0.563400 0.909506 -0.530245

loop_
_geom_bond_atom_site_label_1
_geom_bond_atom_site_label_2
_ccdc_geom_bond_type
C27   H8    S    
C21   H16   S    
C23   C24   S    
C17   H3    S    
C32   H11   S    
C29   C30   A    
C16   Cl2   S    
C12   O4    A    
C4    H13   S    
Cu1   O5    S    
C28   H9    S    
C2    C38   A    
C8    Cl4   S    
C19   C20   A    
Cu2   O6    S    
C32   N2    A    
C3    H12   S    
Cu1   O1    S    
C31   N1    A    
C23   O5    A    
C17   C18   A    
C15   Cl1   S    
C5    C10   A    
Cu2   O8    S    
C14   H2    S    
C29   N2    A    
C12   O3    A    
Cu1   O7    S    
C2    C34   A    
C26   C27   A    
C37   C38   A    
C34   H1    S    
C26   H7    S    
C9    H15   S    
Cu2   O2    S    
C14   C19   A    
C21   C22   A    
C28   C29   A    
C33   C35   S    
C33   O8    A    
C13   H14   S    
C6    C7    A    
C22   C24   A    
C1    O1    A    
C5    C6    A    
Cu1   O3    S    
C16   C17   A    
C18   C24   A    
C11   C13   A    
C7    C8    A    
C10   C11   A    
C33   O7    A    
C15   C16   A    
Cu1   Cu2   S    
C30   N1    A    
C23   O6    A    
C7    C13   A    
Cu2   O4    S    
C20   C21   A    
C3    C37   A    
C36   C37   A    
C34   C35   A    
C31   H5    S    
C1    O2    A    
C25   C30   A    
C18   C19   A    
C10   Cl3   S    
C4    C5    A    
C1    C20   S    
Cu2   N1    S    
C25   C26   A    
C14   C15   A    
C2    C9    A    
C6    C38   A    
C25   H6    S    
C31   C32   A    
C22   H4    S    
C3    C4    A    
C36   H10   S    
Cu1   N2    S    
C8    C9    A    
C27   C28   A    
C35   C36   A    
C11   C12   S    
