data_mof_unit_58956.cif
_audit_creation_date              2012-12-10T20:29:21-0500
_audit_creation_method            fapswitch 2.2
_symmetry_space_group_name_H-M    P1
_symmetry_Int_Tables_number       1
_space_group_crystal_system       triclinic
_cell_length_a                    18.76167
_cell_length_b                    18.673632
_cell_length_c                    18.850268
_cell_angle_alpha                 109.648658
_cell_angle_beta                  109.755278
_cell_angle_gamma                 109.399378
_cell_volume                      5059.25376868

loop_
_atom_site_label
_atom_site_type_symbol
_atom_type_description
_atom_site_fract_x
_atom_site_fract_y
_atom_site_fract_z
_atom_type_partial_charge
C1    C     C_R   0.381799 0.502050 0.379986 0.881911
C2    C     C_R   0.794340 0.843850 0.838846 0.414781
C3    C     C_R   0.316603 0.292814 0.758617 -0.266182
C4    C     C_R   0.076611 0.324785 0.818106 -0.263228
C5    C     C_R   0.996426 0.313003 0.810765 -0.144099
C6    C     C_R   0.916484 0.238150 0.740358 -0.056042
C7    C     C_R   0.918202 0.172134 0.679447 0.476478
C8    C     C_R   0.999315 0.185376 0.686538 -0.187676
C9    C     C_R   0.078861 0.261425 0.756115 0.036361
C10   C     C_R   0.784045 0.183913 0.754471 -0.192689
C11   C     C_R   0.703669 0.176683 0.741565 -0.152724
C12   C     C_R   0.669956 0.217295 0.700885 -0.168755
C13   C     C_R   0.824066 0.822641 0.576875 -0.263184
C14   C     C_R   0.716403 0.265136 0.672790 -0.246990
C15   C     C_R   0.797318 0.271840 0.683989 0.557143
C16   C     C_R   0.831111 0.231211 0.726051 0.100440
C17   C     C_R   0.812662 0.810783 0.495934 -0.087250
C18   C     C_R   0.735986 0.739655 0.417200 0.011869
C19   C     C_R   0.676241 0.676952 0.422489 -0.262872
C20   C     C_R   0.687558 0.688948 0.503497 -0.110522
C21   C     C_R   0.759743 0.765070 0.582040 0.068455
C22   C     C_R   0.631597 0.710749 0.272009 -0.157104
C23   C     C_R   0.610010 0.697779 0.188353 -0.128043
C24   C     C_R   0.670899 0.702115 0.160742 -0.122424
C25   C     C_R   0.622183 0.620930 0.502649 0.873937
C26   C     C_R   0.753506 0.719679 0.216861 -0.124684
C27   C     C_R   0.775211 0.732862 0.300564 -0.081279
C28   C     C_R   0.714707 0.728514 0.329169 0.134037
C29   C     C_R   0.451112 0.815741 0.512295 -0.166545
C30   C     C_R   0.381771 0.731253 0.445962 -0.161000
C31   C     C_R   0.397051 0.670732 0.394179 0.140686
C32   C     C_R   0.482339 0.696556 0.408612 -0.116152
C33   C     C_R   0.551305 0.781570 0.474239 -0.142798
C34   C     C_R   0.535837 0.840893 0.526411 -0.121525
C35   C     C_R   0.256769 0.578944 0.255129 -0.249571
C36   C     C_R   0.619303 0.499465 0.619952 0.874485
C37   C     C_R   0.186600 0.497787 0.183762 -0.077125
C38   C     C_R   0.180383 0.418164 0.176734 0.023851
C39   C     C_R   0.246460 0.422022 0.242375 -0.265684
C40   C     C_R   0.316929 0.503249 0.313684 -0.089326
C41   C     C_R   0.322655 0.582883 0.321072 -0.004144
C42   C     C_R   0.054391 0.269038 0.113750 -0.220161
C43   C     C_R   0.986480 0.186174 0.042657 -0.266567
C44   C     C_R   0.971019 0.163760 0.957421 0.592115
C45   C     C_R   0.027440 0.223918 0.945992 -0.185674
C46   C     C_R   0.094416 0.307307 0.016828 -0.239849
C47   C     C_R   0.378328 0.379625 0.498272 0.883035
C48   C     C_R   0.107940 0.330670 0.101103 0.141355
C49   C     C_R   0.240573 0.535044 0.589674 -0.249633
C50   C     C_R   0.238229 0.456657 0.579841 -0.228565
C51   C     C_R   0.229712 0.397621 0.503618 0.142525
C52   C     C_R   0.217716 0.415161 0.434944 -0.227167
C53   C     C_R   0.218905 0.493192 0.444458 -0.186508
C54   C     C_R   0.234588 0.555367 0.523273 0.631515
C55   C     C_R   0.177007 0.255079 0.498657 -0.248309
C56   C     C_R   0.186431 0.183642 0.497618 -0.063287
C57   C     C_R   0.258802 0.176798 0.496983 -0.003642
C58   C     C_R   0.719236 0.830324 0.772616 0.405784
C59   C     C_R   0.320011 0.241787 0.495378 -0.262955
C60   C     C_R   0.310604 0.312954 0.496316 -0.082468
C61   C     C_R   0.239197 0.320796 0.498696 0.011733
C62   C     C_R   0.347606 0.117022 0.560351 -0.169314
C63   C     C_R   0.365440 0.048680 0.552617 -0.154620
C64   C     C_R   0.307796 0.965128 0.478319 -0.078210
C65   C     C_R   0.231154 0.949180 0.412698 -0.077406
C66   C     C_R   0.212926 0.017353 0.420297 -0.149490
C67   C     C_R   0.271405 0.101899 0.493938 0.140115
C68   C     C_R   0.795824 0.580814 0.653364 -0.179846
C69   C     C_R   0.710824 0.808580 0.689906 -0.296695
C70   C     C_R   0.878579 0.610437 0.662415 -0.165726
C71   C     C_R   0.936248 0.589622 0.707748 -0.158042
C72   C     C_R   0.913883 0.545152 0.750113 -0.126788
C73   C     C_R   0.834243 0.523974 0.750718 0.082313
C74   C     C_R   0.772168 0.535540 0.695749 0.080455
C75   C     C_R   0.688180 0.502577 0.685583 -0.090257
C76   C     C_R   0.667262 0.466278 0.734017 -0.247253
C77   C     C_R   0.730202 0.462391 0.794100 -0.220457
C78   C     C_R   0.813811 0.491750 0.803917 -0.119026
C79   C     C_R   0.997849 0.877469 0.380086 0.855895
C80   C     C_R   0.770008 0.788964 0.669838 -0.009471
C81   C     C_R   0.879555 0.877752 0.497524 0.847148
C82   C     C_R   0.000233 0.120312 0.620084 0.922443
C83   C     C_R   0.120284 0.118533 0.498615 0.875781
C84   C     C_R   0.998164 0.379558 0.878329 0.915330
C85   C     C_R   0.120164 0.498675 0.118773 0.872654
C86   C     C_R   0.999256 0.620542 0.118989 0.882281
C87   C     C_R   0.879788 0.495730 0.875401 0.875719
C88   C     C_R   0.034277 0.722939 0.523000 -0.296732
C89   C     C_R   0.049200 0.750387 0.466014 0.622280
C90   C     C_R   0.979403 0.711853 0.381019 -0.110365
C91   C     C_R   0.845518 0.804542 0.737097 -0.350617
C92   C     C_R   0.898339 0.641200 0.352094 -0.347378
C93   C     C_R   0.883092 0.612635 0.407913 0.632405
C94   C     C_R   0.953014 0.653705 0.493985 -0.323855
C95   C     C_R   0.992192 0.672922 0.250375 -0.256281
C96   C     C_R   0.999042 0.687252 0.184497 -0.094893
C97   C     C_R   0.006141 0.764173 0.183073 0.028292
C98   C     C_R   0.003998 0.824967 0.247911 -0.295923
C99   C     C_R   0.998030 0.810961 0.314469 -0.064518
C100  C     C_R   0.992675 0.734622 0.316649 0.090839
C101  C     C_R   0.097903 0.856092 0.143894 -0.272891
C102  C     C_R   0.859966 0.836326 0.822185 0.433041
C103  C     C_R   0.115174 0.871572 0.081553 0.564787
C104  C     C_R   0.054182 0.811553 0.992738 -0.112812
C105  C     C_R   0.974256 0.741830 0.966138 -0.134642
C106  C     C_R   0.956299 0.728299 0.028058 -0.159856
C107  C     C_R   0.019135 0.784001 0.117247 0.079736
C108  C     C_R   0.284292 0.246384 0.795988 0.473189
C109  C     C_R   0.210415 0.242325 0.802319 0.492805
C110  C     C_R   0.164332 0.277187 0.762865 -0.034541
C111  C     C_R   0.196785 0.322348 0.724571 -0.263888
C112  C     C_R   0.273359 0.331142 0.723728 -0.220079
H1    H     H_    0.800790 0.723226 0.195586 0.139784
H2    H     H_    0.839429 0.747441 0.343548 0.100524
H3    H     H_    0.589439 0.906471 0.577449 0.131712
H4    H     H_    0.439027 0.861898 0.552319 0.119865
H5    H     H_    0.316186 0.712909 0.434909 0.145503
H6    H     H_    0.494921 0.651439 0.368020 0.098866
H7    H     H_    0.616751 0.801790 0.484527 0.139883
H8    H     H_    0.260063 0.639499 0.259365 0.155636
H9    H     H_    0.242878 0.361367 0.238084 0.154260
H10   H     H_    0.018570 0.205957 0.881521 0.170592
H11   H     H_    0.248881 0.580727 0.649559 0.145226
H12   H     H_    0.246060 0.443545 0.632864 0.142500
H13   H     H_    0.209695 0.369558 0.375142 0.130045
H14   H     H_    0.210861 0.506986 0.391817 0.157790
H15   H     H_    0.658131 0.806610 0.640936 0.184279
H16   H     H_    0.121786 0.260274 0.500883 0.158660
H17   H     H_    0.393933 0.182121 0.617181 0.120667
H18   H     H_    0.424769 0.060915 0.603426 0.124059
H19   H     H_    0.155097 0.005287 0.367735 0.099935
H20   H     H_    0.751472 0.595387 0.614772 0.130933
H21   H     H_    0.897179 0.648321 0.632909 0.128025
H22   H     H_    0.998720 0.608436 0.710572 0.140028
H23   H     H_    0.959184 0.526849 0.780581 0.184430
H24   H     H_    0.845975 0.608031 0.285075 0.188170
H25   H     H_    0.146628 0.897749 0.212699 0.135517
H26   H     H_    0.926474 0.697859 0.897327 0.171590
H27   H     H_    0.894840 0.672885 0.006510 0.118204
H28   H     H_    0.374560 0.297965 0.755512 0.162516
H29   H     H_    0.161988 0.349497 0.694206 0.168375
H30   H     H_    0.298386 0.366008 0.694282 0.174461
H31   H     H_    0.881313 0.880230 0.636589 0.165792
H32   H     H_    0.137582 0.383250 0.872587 0.161176
H33   H     H_    0.810420 0.153792 0.787780 0.152992
H34   H     H_    0.667859 0.140208 0.763866 0.135224
H35   H     H_    0.608090 0.212514 0.691909 0.143734
H36   H     H_    0.689496 0.297776 0.643724 0.153183
H37   H     H_    0.618928 0.619345 0.362886 0.162247
H38   H     H_    0.583635 0.707415 0.292373 0.125803
H39   H     H_    0.546014 0.684301 0.144915 0.134082
O1    O     O_R   0.408360 0.551710 0.460090 -0.618401
O2    O     O_R   0.948280 0.908380 0.356650 -0.635128
O3    O     O_R   0.960110 0.908350 0.551690 -0.626715
O4    O     O_R   0.856660 0.908370 0.448270 -0.605951
O5    O     O_R   0.051720 0.091580 0.643310 -0.619567
O6    O     O_R   0.948270 0.091600 0.539890 -0.579297
O7    O     O_R   0.143340 0.091590 0.551680 -0.625768
O8    O     O_R   0.039890 0.091610 0.448270 -0.629704
O9    O     O_R   0.051710 0.460040 0.908380 -0.627041
O10   O     O_R   0.948270 0.356620 0.908410 -0.623971
O11   O     O_R   0.143330 0.551680 0.091590 -0.627210
O12   O     O_R   0.408390 0.448280 0.356670 -0.622539
O13   O     O_R   0.039890 0.448260 0.091620 -0.609867
O14   O     O_R   0.051700 0.643310 0.091570 -0.608046
O15   O     O_R   0.948260 0.539890 0.091600 -0.624485
O16   O     O_R   0.960080 0.551670 0.908360 -0.637652
O17   O     O_R   0.856640 0.448250 0.908390 -0.620008
O18   O     O_R   0.591600 0.643340 0.551710 -0.624737
O19   O     O_R   0.591630 0.539900 0.448290 -0.635617
O20   O     O_R   0.591610 0.551720 0.643330 -0.635526
O21   O     O_R   0.591640 0.448290 0.539910 -0.624672
O22   O     O_R   0.408370 0.460100 0.551710 -0.615980
O23   O     O_R   0.408400 0.356660 0.448290 -0.626262
O24   O     O_R   0.051730 0.908360 0.460070 -0.569978
Zn1   Zn    Zn3+2 0.499980 0.569070 0.569050 0.913886
Zn2   Zn    Zn3+2 0.500020 0.430930 0.430950 0.937918
Zn3   Zn    Zn3+2 0.069080 0.999960 0.569030 0.982626
Zn4   Zn    Zn3+2 0.930920 0.999990 0.430930 0.989466
Zn5   Zn    Zn3+2 0.069060 0.569020 0.999970 0.957191
Zn6   Zn    Zn3+2 0.930920 0.430910 0.000010 0.965755
O25   O     O_3   0.806496 0.870632 0.921849 -0.586040
C113  C     C_3   0.776365 0.795423 0.929851 -0.244708
H40   H     H_    0.813664 0.760917 0.920992 0.168444
H41   H     H_    0.704949 0.749361 0.882728 0.157428
H42   H     H_    0.786620 0.816453 0.996654 0.182751
H43   H     H_    0.654129 0.692010 0.095965 0.126456
O26   O     O_3   0.660187 0.847219 0.793626 -0.595315
C114  C     C_3   0.573235 0.778650 0.730271 -0.299107
H44   H     H_    0.566555 0.712411 0.710895 0.170850
H45   H     H_    0.548493 0.786038 0.672209 0.162359
H46   H     H_    0.530889 0.783139 0.758800 0.171574
H47   H     H_    0.065061 0.285353 0.178673 0.151633
H48   H     H_    0.946736 0.139611 0.054356 0.153889
O27   O     O_3   0.905433 0.082196 0.884633 -0.654293
C115  C     C_3   0.824539 0.059276 0.882043 -0.337953
H49   H     H_    0.813987 0.116389 0.903133 0.150302
H50   H     H_    0.819039 0.028096 0.922203 0.225610
H51   H     H_    0.771103 0.010398 0.813554 0.207218
H52   H     H_    0.136245 0.353469 0.006223 0.128053
O28   O     O_3   0.241929 0.634749 0.533443 -0.638846
C116  C     C_3   0.328773 0.702726 0.598135 -0.405830
H53   H     H_    0.377638 0.688313 0.585251 0.182663
H54   H     H_    0.341536 0.715262 0.664364 0.169256
H55   H     H_    0.338360 0.764282 0.597459 0.184220
H56   H     H_    0.375889 0.237353 0.494197 0.157210
H57   H     H_    0.323049 0.913005 0.471119 0.109921
H58   H     H_    0.186971 0.884408 0.355208 0.142597
H59   H     H_    0.602070 0.441244 0.725417 0.145262
H60   H     H_    0.894992 0.795606 0.724360 0.187812
H61   H     H_    0.713487 0.437128 0.833674 0.175503
H62   H     H_    0.946546 0.631130 0.538271 0.152181
H63   H     H_    0.086730 0.753556 0.589318 0.165453
O29   O     O_3   0.131378 0.815224 0.493230 -0.598580
C117  C     C_3   0.188022 0.780512 0.500840 -0.316177
H64   H     H_    0.165331 0.724812 0.436598 0.178591
H65   H     H_    0.195402 0.759799 0.550437 0.200669
H66   H     H_    0.254032 0.832628 0.523653 0.173159
O30   O     O_3   0.801047 0.540890 0.372310 -0.606031
C118  C     C_3   0.776745 0.539688 0.435175 -0.292942
H67   H     H_    0.791476 0.605795 0.480811 0.161795
H68   H     H_    0.808400 0.512370 0.471104 0.166887
H69   H     H_    0.704925 0.495230 0.400770 0.213644
H70   H     H_    0.987337 0.613457 0.250699 0.166706
H71   H     H_    0.008497 0.884209 0.247356 0.158377
O31   O     O_3   0.938102 0.858778 0.888928 -0.617875
C119  C     C_3   0.994599 0.950284 0.930737 -0.239487
H72   H     H_    0.968671 0.988006 0.962807 0.202395
H73   H     H_    0.006507 0.969819 0.884325 0.172865
H74   H     H_    0.058786 0.968530 0.982583 0.183523
O32   O     O_3   0.193342 0.939788 0.104052 -0.615538
C120  C     C_3   0.216544 0.020044 0.172847 -0.330757
H75   H     H_    0.249847 0.025096 0.236966 0.175449
H76   H     H_    0.159213 0.029441 0.164653 0.152518
H77   H     H_    0.264002 0.074817 0.172993 0.199348
H78   H     H_    0.067978 0.820280 0.943968 0.169179
O33   O     O_3   0.325886 0.206349 0.828045 -0.621133
C121  C     C_3   0.294053 0.123049 0.757970 -0.225892
H79   H     H_    0.310616 0.129022 0.708068 0.154670
H80   H     H_    0.222001 0.080707 0.727262 0.179037
H81   H     H_    0.325871 0.089733 0.783576 0.173993
O34   O     O_3   0.177460 0.195969 0.838225 -0.594027
C122  C     C_3   0.226058 0.250647 0.929812 -0.295702
H82   H     H_    0.226189 0.314021 0.950341 0.134075
H83   H     H_    0.294426 0.263336 0.956881 0.201205
H84   H     H_    0.195046 0.216535 0.958377 0.196673
O35   O     O_3   0.840165 0.097930 0.609433 -0.594116
C123  C     C_3   0.824402 0.028720 0.627777 -0.280108
H85   H     H_    0.816130 0.044333 0.685720 0.165119
H86   H     H_    0.877561 0.012511 0.637940 0.147673
H87   H     H_    0.762681 0.969012 0.571069 0.189521
O36   O     O_3   0.848566 0.322617 0.661616 -0.634611
C124  C     C_3   0.797629 0.312978 0.580604 -0.307609
H88   H     H_    0.768507 0.355999 0.588825 0.172716
H89   H     H_    0.746072 0.243219 0.530661 0.170240
H90   H     H_    0.841391 0.334925 0.555658 0.201289

loop_
_geom_bond_atom_site_label_1
_geom_bond_atom_site_label_2
_ccdc_geom_bond_type
C25   O19   A    
O21   Zn2   S    
C55   C56   A    
C22   H38   S    
C101  C107  A    
C93   C94   A    
C85   O13   A    
C7    O35   S    
C55   H16   S    
C42   H47   S    
C88   C94   A    
O28   C116  S    
C104  C105  A    
C19   C20   A    
C86   O15   A    
C113  H40   S    
C71   H22   S    
C118  H68   S    
C97   C98   A    
C84   O9    A    
C7    C8    A    
C65   H58   S    
O6    Zn4   S    
C77   C78   A    
C123  H85   S    
C94   H62   S    
C86   O14   A    
C121  H81   S    
C26   C27   A    
C37   C38   A    
C116  H54   S    
C62   C67   A    
C43   H48   S    
C8    C82   S    
C5    C6    A    
C12   H35   S    
C37   C85   S    
C88   H63   S    
C35   C37   A    
C24   C26   A    
C117  H65   S    
C2    O25   S    
C124  H88   S    
C115  H49   S    
C57   C59   A    
C15   O36   S    
C2    C102  A    
C68   C74   A    
C122  H82   S    
C49   H11   S    
C14   H36   S    
C102  O31   S    
C108  C109  A    
C1    O1    A    
C114  H45   S    
C18   C19   A    
C73   C74   A    
C63   H18   S    
C112  H30   S    
C68   H20   S    
O35   C123  S    
O25   C113  S    
O9    Zn5   S    
O13   Zn6   S    
C103  C104  A    
C1    C40   S    
C47   C60   S    
C110  C111  A    
O5    Zn3   S    
C11   H34   S    
C87   O16   A    
C95   C96   A    
C123  H86   S    
C8    C9    A    
C36   O20   A    
C116  H55   S    
C51   C61   S    
C17   C18   A    
O12   Zn2   S    
C70   H21   S    
C23   C24   A    
C70   C71   A    
C49   C54   A    
C38   C48   S    
C123  H87   S    
C98   H71   S    
C82   O5    A    
C88   C89   A    
C66   C67   A    
C105  H26   S    
C59   C60   A    
C101  C103  A    
C22   C28   A    
O33   C121  S    
C85   O11   A    
C62   H17   S    
C35   H8    S    
C92   H24   S    
O15   Zn6   S    
C57   C67   S    
C115  H51   S    
C90   C100  S    
C118  H67   S    
O4    Zn4   S    
C50   C51   A    
O24   Zn3   S    
C46   C48   A    
C103  O32   S    
C64   H57   S    
C121  H80   S    
C36   O21   A    
C116  H53   S    
O19   Zn2   S    
C58   O26   S    
C51   C52   A    
C79   O24   A    
C20   C25   S    
C18   C28   S    
C76   C77   A    
C115  H50   S    
C74   C75   A    
C113  H42   S    
O8    Zn4   S    
O30   C118  S    
C124  H89   S    
C5    C84   S    
C101  H25   S    
O29   C117  S    
C4    C5    A    
C72   H23   S    
C122  H83   S    
C34   H3    S    
C45   C46   A    
C29   C34   A    
C120  H77   S    
C81   O3    A    
O27   C115  S    
C32   C33   A    
C82   O6    A    
C60   C61   A    
O1    Zn1   S    
C114  H46   S    
C75   C76   A    
C29   C30   A    
C36   C75   S    
C79   O2    A    
C113  H41   S    
C90   C92   A    
C119  H72   S    
C14   C15   A    
C3    C112  A    
C73   C78   A    
C122  H84   S    
C96   C97   A    
C62   C63   A    
C120  H76   S    
O34   C122  S    
C50   H12   S    
O2    Zn4   S    
O31   C119  S    
C42   C48   A    
C20   C21   A    
C92   C93   A    
O23   Zn2   S    
C1    O12   A    
C47   O22   A    
C86   C96   S    
C59   H56   S    
C68   C70   A    
C40   C41   A    
C119  H73   S    
C29   H4    S    
C12   C14   A    
C98   C99   A    
C24   H43   S    
C87   O17   A    
C45   H10   S    
C49   C50   A    
C117  H66   S    
C42   C43   A    
C91   C102  A    
C89   C90   A    
C78   C87   S    
C39   C40   A    
C52   C53   A    
C56   C83   S    
C66   H19   S    
O20   Zn1   S    
O22   Zn1   S    
C79   C99   S    
C9    C110  S    
C56   C57   A    
C23   H39   S    
C121  H79   S    
C44   O27   S    
C31   C41   S    
C111  C112  A    
C95   C100  A    
O11   Zn5   S    
C31   C32   A    
C44   C45   A    
C32   H6    S    
C72   C73   A    
C39   H9    S    
C4    H32   S    
C124  H90   S    
C52   H13   S    
C2    C58   A    
C58   C69   A    
C53   C54   A    
C6    C7    A    
C30   H5    S    
C3    C108  A    
C54   O28   S    
C105  C106  A    
C95   H70   S    
C81   O4    A    
C99   C100  A    
C13   C17   A    
C93   O30   S    
C25   O18   A    
C64   C65   A    
O36   C124  S    
C80   C91   A    
O3    Zn3   S    
O7    Zn3   S    
C26   H1    S    
C71   C72   A    
C65   C66   A    
C10   C16   A    
C109  C110  A    
C13   C21   A    
C30   C31   A    
C106  H27   S    
C38   C39   A    
C83   O7    A    
C109  O34   S    
C43   C44   A    
C76   H59   S    
C46   H52   S    
C55   C61   A    
C21   C80   S    
C120  H75   S    
C19   H37   S    
O18   Zn1   S    
C33   C34   A    
O16   Zn5   S    
C17   C81   S    
C13   H31   S    
C117  H64   S    
O10   Zn6   S    
C114  H44   S    
C35   C41   A    
C47   O23   A    
C10   C11   A    
C77   H61   S    
C10   H33   S    
C6    C16   S    
C63   C64   A    
C97   C107  S    
C27   H2    S    
C104  H78   S    
C119  H74   S    
C83   O8    A    
C108  O33   S    
C69   H15   S    
C33   H7    S    
C91   H60   S    
O17   Zn6   S    
C106  C107  A    
C111  H29   S    
O32   C120  S    
O14   Zn5   S    
C22   C23   A    
O26   C114  S    
C69   C80   A    
C3    H28   S    
C53   H14   S    
C4    C9    A    
C118  H69   S    
C84   O10   A    
C15   C16   A    
C11   C12   A    
C89   O29   S    
C27   C28   A    
