data_mof_unit_30052.cif
_audit_creation_date              2012-12-10T18:45:04-0500
_audit_creation_method            fapswitch 2.2
_symmetry_space_group_name_H-M    P1
_symmetry_Int_Tables_number       1
_space_group_crystal_system       triclinic
_cell_length_a                    10.717433
_cell_length_b                    9.810913
_cell_length_c                    10.548085
_cell_angle_alpha                 87.602177
_cell_angle_beta                  90.643008
_cell_angle_gamma                 90.002791
_cell_volume                      1108.06696795

loop_
_atom_site_label
_atom_site_type_symbol
_atom_type_description
_atom_site_fract_x
_atom_site_fract_y
_atom_site_fract_z
_atom_type_partial_charge
C1    C     C_R   0.259778 0.499937 0.499906 0.878313
C2    C     C_R   0.740164 0.499938 0.497945 0.907644
C3    C     C_R   0.935908 0.622863 0.475027 -0.149455
C4    C     C_R   0.063708 0.623016 0.476482 -0.155847
C5    C     C_R   0.601099 0.073894 0.457855 -0.056631
C6    C     C_R   0.398260 0.070044 0.540301 -0.010047
C7    C     C_R   0.600947 0.929903 0.457492 -0.048708
C8    C     C_R   0.398751 0.926092 0.541663 -0.023776
C9    C     C_R   0.471399 0.503286 0.263775 0.933533
C10   C     C_R   0.501853 0.496809 0.742677 0.947020
C11   C     C_R   0.447805 0.765592 0.097502 0.231450
C12   C     C_R   0.610918 0.712262 0.901243 0.200516
C13   C     C_R   0.516745 0.871692 0.040507 -0.186442
C14   C     C_R   0.604259 0.843131 0.948670 -0.188293
C15   C     C_R   0.526510 0.609633 0.945522 -0.016900
C16   C     C_R   0.465452 0.630555 0.058670 -0.009268
C17   C     C_R   0.432478 0.513344 0.131295 -0.203215
C18   C     C_R   0.493706 0.490972 0.880089 -0.198685
C19   C     C_R   0.397231 0.394779 0.071349 0.146070
C20   C     C_R   0.422972 0.384863 0.942444 0.124756
C21   C     C_R   0.064066 0.376481 0.517989 -0.144460
C22   C     C_R   0.936296 0.376389 0.516955 -0.170404
C23   C     C_R   0.872585 0.499677 0.496103 -0.014921
C24   C     C_R   0.127393 0.499860 0.498233 -0.012502
H1    H     H_    0.505305 0.975235 0.070114 0.196485
H2    H     H_    0.666275 0.922910 0.913708 0.182039
H3    H     H_    0.112805 0.280628 0.535307 0.164013
H4    H     H_    0.887866 0.280483 0.533768 0.158101
H5    H     H_    0.887094 0.718702 0.457952 0.158257
H6    H     H_    0.112177 0.718990 0.460406 0.173356
H7    H     H_    0.681813 0.129884 0.423864 0.134687
H8    H     H_    0.316454 0.122865 0.571564 0.146522
H9    H     H_    0.681448 0.876969 0.423071 0.132353
H10   H     H_    0.317833 0.870132 0.575175 0.140681
N1    N     N_R   0.500000 0.857200 0.500000 -0.077795
N2    N     N_R   0.500000 0.142810 0.500000 -0.078659
O1    O     O_R   0.316770 0.614620 0.499990 -0.631379
O2    O     O_R   0.683230 0.614620 0.500010 -0.617545
O3    O     O_R   0.316800 0.385290 0.500000 -0.625943
O4    O     O_R   0.683200 0.385290 0.500000 -0.634110
O5    O     O_R   0.500010 0.614690 0.316770 -0.607458
O6    O     O_R   0.499990 0.614690 0.683230 -0.598972
O7    O     O_R   0.500040 0.385360 0.316770 -0.592325
O8    O     O_R   0.499960 0.385360 0.683230 -0.587217
Zn1   Zn    Zn3+2 0.500000 0.653120 0.500000 0.984461
Zn2   Zn    Zn3+2 0.500000 0.346880 0.500000 0.992480
I1    I     I_    0.290734 0.242824 0.175684 -0.279172
I2    I     I_    0.349124 0.210091 0.850545 -0.330406
I3    I     I_    0.298766 0.819010 0.217059 -0.323678
I4    I     I_    0.771708 0.669410 0.794655 -0.358522

loop_
_geom_bond_atom_site_label_1
_geom_bond_atom_site_label_2
_ccdc_geom_bond_type
C15   C18   A    
C12   I4    S    
N2    Zn2   S    
C11   I3    S    
C10   O6    A    
C11   C13   A    
C11   C16   A    
C2    O2    A    
C9    O5    A    
C19   C20   A    
C12   C15   A    
C1    O1    A    
C21   H3    S    
C8    H10   S    
C21   C22   A    
C14   H2    S    
O4    Zn2   S    
C7    H9    S    
C13   H1    S    
C20   I2    S    
C10   C18   S    
O3    Zn2   S    
C6    C8    A    
C10   O8    A    
C9    C17   S    
C17   C19   A    
C6    N2    A    
C18   C20   A    
C4    C24   A    
O7    Zn2   S    
C19   I1    S    
C9    O7    A    
C1    O3    A    
O1    Zn1   S    
C3    C4    A    
N1    Zn1   S    
C5    N2    A    
C2    O4    A    
C12   C14   A    
C1    C24   S    
C3    H5    S    
C6    H8    S    
C21   C24   A    
C2    C23   S    
C5    C7    A    
O5    Zn1   S    
C22   C23   A    
O2    Zn1   S    
C22   H4    S    
C3    C23   A    
C13   C14   A    
C7    N1    A    
C8    N1    A    
C4    H6    S    
C15   C16   A    
O8    Zn2   S    
C16   C17   A    
C5    H7    S    
O6    Zn1   S    
