data_mof_unit_55462.cif
_audit_creation_date              2012-12-10T16:51:27-0500
_audit_creation_method            fapswitch 2.2
_symmetry_space_group_name_H-M    P1
_symmetry_Int_Tables_number       1
_space_group_crystal_system       triclinic
_cell_length_a                    7.817861
_cell_length_b                    8.576617
_cell_length_c                    12.599445
_cell_angle_alpha                 92.361806
_cell_angle_beta                  103.28587
_cell_angle_gamma                 93.781701
_cell_volume                      819.01880388

loop_
_atom_site_label
_atom_site_type_symbol
_atom_type_description
_atom_site_fract_x
_atom_site_fract_y
_atom_site_fract_z
_atom_type_partial_charge
C1    C     C_R   0.044171 0.794499 0.497111 0.959178
C2    C     C_R   0.195647 0.578794 0.822821 -0.131319
C3    C     C_2   0.067251 0.958012 0.495469 -0.370099
C4    C     C_R   0.115803 0.529896 0.707574 0.857473
C5    C     C_2   0.932605 0.041975 0.504268 -0.368187
C6    C     C_R   0.955778 0.205499 0.502794 0.978950
C7    C     C_R   0.886896 0.473283 0.292756 0.903763
C8    C     C_R   0.870959 0.394405 0.997691 -0.181746
C9    C     C_R   0.819893 0.435450 0.177313 -0.104563
C10   C     C_R   0.095764 0.645331 0.889486 -0.226264
C11   C     C_R   0.164546 0.666420 0.001961 -0.119841
C12   C     C_R   0.427928 0.542500 0.982069 0.087627
C13   C     C_R   0.325587 0.608210 0.048885 -0.164078
C14   C     C_R   0.374467 0.555130 0.868991 0.103378
C15   C     C_R   0.589341 0.477325 0.023786 0.039961
C16   C     C_R   0.705427 0.447622 0.954879 0.137742
C17   C     C_R   0.660459 0.482980 0.846651 -0.266995
C18   C     C_R   0.502895 0.546485 0.806816 -0.172813
C19   C     C_R   0.640480 0.440790 0.132093 0.077214
C20   C     C_R   0.933446 0.400233 0.110029 -0.212201
H1    H     H_    0.069952 0.381214 0.143836 0.205916
H2    H     H_    0.488703 0.597171 0.729302 0.167425
H3    H     H_    0.194375 0.008766 0.487089 0.184796
H4    H     H_    0.805465 0.991221 0.512617 0.181696
H5    H     H_    0.471910 0.360451 0.433127 0.220724
H6    H     H_    0.528684 0.640830 0.565901 0.173210
H7    H     H_    0.750063 0.468136 0.794073 0.185108
H8    H     H_    0.958121 0.365349 0.945507 0.168237
H9    H     H_    0.965309 0.680624 0.854927 0.163116
H10   H     H_    0.372110 0.620826 0.136740 0.172143
H11   H     H_    0.088358 0.719568 0.053426 0.161913
I1    I     I_    0.456930 0.308486 0.201655 -0.433195
N1    N     N_2   0.434800 0.456690 0.470850 -0.160359
N2    N     N_2   0.565200 0.543310 0.529150 -0.180866
O1    O     O_R   0.893060 0.738880 0.507150 -0.613809
O2    O     O_R   0.172250 0.711130 0.488470 -0.631779
O3    O     O_R   0.944700 0.520730 0.667600 -0.633169
O4    O     O_R   0.223890 0.492980 0.648920 -0.626984
O5    O     O_R   0.827750 0.288870 0.511530 -0.622737
O6    O     O_R   0.106940 0.261120 0.492850 -0.609135
O7    O     O_R   0.776110 0.507020 0.351080 -0.594149
O8    O     O_R   0.055300 0.479270 0.332400 -0.612167
Zn1   Zn    Zn3+2 0.813580 0.518530 0.512470 0.950181
Zn2   Zn    Zn3+2 0.186420 0.481470 0.487530 0.956702

loop_
_geom_bond_atom_site_label_1
_geom_bond_atom_site_label_2
_ccdc_geom_bond_type
O3    Zn1   S    
C2    C4    S    
O4    Zn2   S    
O1    Zn1   S    
C14   C18   A    
C9    C20   A    
C3    H3    S    
C12   C15   A    
O6    Zn2   S    
N1    N2    D    
C11   H11   S    
C8    C16   A    
C20   H1    S    
C15   C19   A    
C12   C13   A    
O7    Zn1   S    
C10   H9    S    
C8    C20   A    
C5    H4    S    
O8    Zn2   S    
C2    C14   A    
C19   I1    S    
C12   C14   A    
C17   C18   A    
C7    O7    A    
C5    C6    S    
C8    H8    S    
C6    O6    A    
O2    Zn2   S    
C10   C11   A    
C15   C16   A    
C2    C10   A    
C3    C5    D    
C13   H10   S    
C11   C13   A    
C4    O3    A    
C1    O1    A    
C7    O8    A    
H5    N1    S    
C7    C9    S    
C6    O5    A    
O5    Zn1   S    
H6    N2    S    
C18   H2    S    
N1    Zn2   S    
C9    C19   A    
N2    Zn1   S    
C1    O2    A    
C4    O4    A    
C16   C17   A    
C1    C3    S    
C17   H7    S    
