data_mof_unit_43290.cif
_audit_creation_date              2013-03-05T15:47:07-0500
_audit_creation_method            fapswitch 2.2
_symmetry_space_group_name_H-M    P1
_symmetry_Int_Tables_number       1
_space_group_crystal_system       triclinic
_cell_length_a                    10.262387
_cell_length_b                    10.297774
_cell_length_c                    13.767495
_cell_angle_alpha                 93.085006
_cell_angle_beta                  101.829265
_cell_angle_gamma                 93.969368
_cell_volume                      1417.18028762

loop_
_atom_site_label
_atom_site_type_symbol
_atom_site_description
_atom_site_fract_x
_atom_site_fract_y
_atom_site_fract_z
_atom_type_partial_charge
O1    O     O_R   0.935190 0.693030 0.507870 -0.580269
O2    O     O_R   0.064810 0.306970 0.492130 -0.585039
O3    O     O_R   0.142080 0.658430 0.482770 -0.588622
O4    O     O_R   0.857920 0.341570 0.517230 -0.576288
C1    C     C_R   0.051836 0.735968 0.497767 0.959515
C2    C     C_R   0.950534 0.264507 0.507742 0.970654
O5    O     O_R   0.969700 0.527180 0.651960 -0.608441
O6    O     O_R   0.030300 0.472820 0.348040 -0.637355
O7    O     O_R   0.176600 0.492580 0.626860 -0.499482
O8    O     O_R   0.823400 0.507420 0.373140 -0.513021
C3    C     C_R   0.095995 0.515958 0.685665 0.975358
C4    C     C_R   0.903438 0.481647 0.314361 0.871551
Zn1   Zn    Zn3+2 0.861850 0.523100 0.516760 1.021557
Zn2   Zn    Zn3+2 0.138150 0.476900 0.483240 1.020281
C5    C     C_R   0.146286 0.509399 0.792307 -0.161367
C6    C     C_R   0.843208 0.441924 0.209900 -0.187644
C7    C     C_R   0.105493 0.483239 0.956966 -0.191084
C8    C     C_R   0.851213 0.323662 0.054135 -0.182450
C9    C     C_R   0.058976 0.508815 0.858317 -0.212348
C10   C     C_R   0.913335 0.370758 0.150666 -0.290245
C11   C     C_R   0.281156 0.488341 0.827075 0.517455
C12   C     C_R   0.707601 0.459086 0.173368 0.499377
C13   C     C_R   0.319981 0.434655 0.918837 0.016948
C14   C     C_R   0.640244 0.392915 0.083314 -0.003448
C15   C     C_R   0.234614 0.443960 0.987396 0.036680
C16   C     C_R   0.715848 0.339634 0.018604 0.036400
C17   C     C_R   0.447550 0.387661 0.948861 -0.076452
C18   C     C_R   0.500794 0.391241 0.051636 -0.094830
C19   C     C_R   0.412207 0.388565 0.118033 0.482105
C20   C     C_R   0.523079 0.333005 0.882855 0.480611
C21   C     C_R   0.280046 0.414710 0.085429 -0.275990
C22   C     C_R   0.654710 0.304627 0.919582 -0.293864
H1    H     H_    0.214043 0.414435 0.137348 0.163547
H2    H     H_    0.710665 0.259947 0.869778 0.186554
H3    H     H_    0.015849 0.351540 0.178994 0.186263
H4    H     H_    0.955596 0.529060 0.834088 0.189714
H5    H     H_    0.040180 0.492219 0.008876 0.162922
H6    H     H_    0.908717 0.274919 0.007490 0.176379
C23   C     C_2   0.080092 0.876844 0.514397 -0.515007
C24   C     C_2   0.936671 0.126553 0.524643 -0.492565
C25   C     C_2   0.044248 0.938618 0.592796 0.384832
C26   C     C_2   0.028406 0.078297 0.594778 0.402393
H7    H     H_    0.868828 0.061604 0.469121 0.117799
H8    H     H_    0.111763 0.931177 0.456616 0.130602
N1    N     N_2   0.322180 0.446120 0.460900 -0.209260
N2    N     N_2   0.677820 0.553880 0.539100 -0.222125
C27   C     C_2   0.430299 0.518564 0.504363 0.419068
C28   C     C_2   0.569857 0.479467 0.499229 0.405577
H9    H     H_    0.667322 0.635757 0.581971 0.148911
H10   H     H_    0.333886 0.365728 0.416773 0.183234
O9    O     O_3   0.641238 0.542424 0.225035 -0.557061
C29   C     C_3   0.654108 0.668507 0.190976 0.084116
H11   H     H_    0.601552 0.669273 0.111733 0.132353
H12   H     H_    0.761159 0.703821 0.198672 0.119099
C30   C     C_3   0.591121 0.762315 0.253373 -0.791449
H13   H     H_    0.643791 0.765473 0.332570 0.247482
H14   H     H_    0.598757 0.861863 0.226693 0.215219
H15   H     H_    0.484083 0.729913 0.247455 0.250280
O10   O     O_3   0.376871 0.531765 0.775914 -0.555059
C31   C     C_3   0.429212 0.659409 0.814253 0.124577
H16   H     H_    0.420765 0.682965 0.892838 0.100137
H17   H     H_    0.375298 0.731108 0.767122 0.188402
C32   C     C_3   0.576828 0.675946 0.811495 -0.761979
H18   H     H_    0.591299 0.653094 0.735078 0.280585
H19   H     H_    0.616845 0.778121 0.835669 0.213847
H20   H     H_    0.633072 0.609361 0.862313 0.230178
Cl1   Cl    Cl    0.453578 0.324066 0.234876 -0.597853
Cl2   Cl    Cl    0.453488 0.274705 0.758995 -0.565191
Cl3   Cl    Cl    0.125936 0.178134 0.695167 -0.532838
Cl4   Cl    Cl    0.014002 0.856123 0.696479 -0.604598
O11   O     O_3   0.582802 0.364921 0.446571 -0.541512
C33   C     C_3   0.570915 0.259462 0.506685 0.153882
H21   H     H_    0.473765 0.252879 0.530844 0.145392
H22   H     H_    0.652199 0.269046 0.574613 0.174984
C34   C     C_3   0.580606 0.132935 0.447028 -0.770760
H23   H     H_    0.604854 0.053921 0.497833 0.199335
H24   H     H_    0.484277 0.104440 0.394260 0.254919
H25   H     H_    0.660132 0.145603 0.403732 0.272810
O12   O     O_3   0.417826 0.628977 0.562351 -0.581791
C35   C     C_3   0.430233 0.740106 0.507715 0.062889
H26   H     H_    0.349355 0.736215 0.439904 0.169964
H27   H     H_    0.526663 0.749792 0.482883 0.105194
C36   C     C_3   0.422111 0.861596 0.573566 -0.752876
H28   H     H_    0.516319 0.881820 0.630336 0.245775
H29   H     H_    0.405404 0.946640 0.527768 0.211664
H30   H     H_    0.338061 0.847415 0.612312 0.280793

loop_
_geom_bond_atom_site_label_1
_geom_bond_atom_site_label_2
_geom_bond_distance
_ccdc_geom_bond_type
C15   C21   1.391018 A    
C30   H13   1.110947 S    
C32   H19   1.110377 S    
C16   C22   1.395437 A    
C25   C26   1.458112 S    
C8    C16   1.399214 A    
C27   O12   1.382345 S    
O7    Zn2   1.930900 S    
C23   C25   1.351390 D    
C5    C9    1.400879 A    
N2    H9    1.027601 S    
C31   C32   1.521149 S    
O1    C1    1.284302 A    
C18   C19   1.415214 A    
C14   C16   1.409423 A    
C11   O10   1.384807 S    
C9    H4    1.083200 S    
C35   C36   1.522312 S    
Zn1   N2    2.018008 S    
C31   H17   1.110506 S    
O4    Zn1   1.867384 S    
C19   Cl1   1.755895 S    
C10   H3    1.080261 S    
C3    C5    1.459914 S    
C24   H7    1.085669 S    
C27   C28   1.528582 S    
O6    Zn2   1.957536 S    
C21   H1    1.080829 S    
C13   C17   1.416454 A    
C29   C30   1.521113 S    
C6    C10   1.403343 A    
C24   C26   1.345099 D    
C32   H20   1.110703 S    
O10   C31   1.416418 S    
C17   C20   1.427416 A    
O2    C2    1.286547 A    
C33   C34   1.522626 S    
C29   H12   1.114991 S    
Zn2   N1    2.018008 S    
N1    C27   1.308000 D    
N2    C28   1.305343 D    
O9    C29   1.410766 S    
C4    C6    1.467962 S    
C2    C24   1.453857 S    
C33   H22   1.113098 S    
C33   H21   1.112760 S    
C26   Cl3   1.762506 S    
O12   C35   1.415412 S    
C31   H16   1.118041 S    
C22   H2    1.084268 S    
O5    C3    1.299404 A    
C34   H23   1.109566 S    
C34   H24   1.110678 S    
C36   H28   1.110735 S    
C5    C11   1.404617 A    
O6    C4    1.300629 A    
C7    H5    1.080007 S    
O7    C3    1.295692 A    
O3    Zn2   1.867384 S    
O8    C4    1.295983 A    
C35   H27   1.111229 S    
C36   H29   1.108979 S    
C30   H14   1.110470 S    
C12   C14   1.404194 A    
O4    C2    1.301665 A    
O1    Zn1   1.876723 S    
C28   O11   1.379760 S    
C29   H11   1.114210 S    
C1    C23   1.455972 S    
C6    C12   1.406247 A    
C14   C18   1.406560 A    
C35   H26   1.111648 S    
O3    C1    1.304190 A    
O8    Zn1   1.930899 S    
C23   H8    1.086383 S    
C7    C15   1.399940 A    
C11   C13   1.399894 A    
C8    H6    1.083652 S    
O11   C33   1.413863 S    
C19   C21   1.388323 A    
C20   C22   1.398711 A    
N1    H10   1.028795 S    
C7    C9    1.389933 A    
C8    C10   1.395813 A    
C13   C15   1.417211 A    
O2    Zn2   1.876723 S    
C34   H25   1.109722 S    
C32   H18   1.107493 S    
O5    Zn1   1.957536 S    
C36   H30   1.108811 S    
C30   H15   1.110953 S    
C17   C18   1.405922 A    
C25   Cl4   1.769556 S    
C20   Cl2   1.763365 S    
C12   O9    1.385687 S    
