data_mof_unit_37879.cif
_audit_creation_date              2012-12-11T16:08:40-0500
_audit_creation_method            fapswitch 2.2
_symmetry_space_group_name_H-M    P1
_symmetry_Int_Tables_number       1
_space_group_crystal_system       triclinic
_cell_length_a                    12.980317
_cell_length_b                    13.277465
_cell_length_c                    27.729835
_cell_angle_alpha                 95.03707
_cell_angle_beta                  90.085858
_cell_angle_gamma                 119.342033
_cell_volume                      4144.45782543

loop_
_atom_site_label
_atom_site_type_symbol
_atom_type_description
_atom_site_fract_x
_atom_site_fract_y
_atom_site_fract_z
_atom_type_partial_charge
C1    C     C_R   0.627818 0.895301 0.427397 0.547547
C2    C     C_R   0.587254 0.239892 0.217024 -0.039514
C3    C     C_R   0.572624 0.220081 0.265994 0.265456
C4    C     C_R   0.658179 0.303075 0.301532 0.027887
C5    C     C_R   0.684831 0.339480 0.202964 -0.015076
C6    C     C_1   0.693935 0.364212 0.153128 -0.059162
C7    C     C_1   0.646953 0.287350 0.352499 -0.069519
C8    C     C_1   0.702869 0.393121 0.112637 -0.010654
C9    C     C_R   0.206186 0.759038 0.346751 -0.129826
C10   C     C_R   0.195884 0.754968 0.296931 0.009291
C11   C     C_R   0.182130 0.750509 0.196505 0.012611
C12   C     C_R   0.600841 0.221529 0.440439 0.545214
C13   C     C_R   0.198744 0.666961 0.217349 -0.127015
C14   C     C_R   0.203590 0.668042 0.267399 -0.129468
C15   C     C_R   0.164808 0.742240 0.146721 -0.128918
C16   C     C_R   0.129187 0.813812 0.126308 -0.006986
C17   C     C_R   0.197994 0.938842 0.356538 -0.139530
C18   C     C_R   0.179739 0.931824 0.306308 0.026038
C19   C     C_R   0.183229 0.841845 0.276425 0.074873
C20   C     C_R   0.162965 0.015290 0.285193 -0.102606
C21   C     C_R   0.148287 0.008633 0.234837 -0.108429
C22   C     C_R   0.153350 0.920236 0.205036 0.021205
C23   C     C_R   0.269937 0.876223 0.425321 0.546646
C24   C     C_R   0.174053 0.838330 0.225973 0.073789
C25   C     C_R   0.130506 0.907241 0.154970 -0.136276
C26   C     C_R   0.215747 0.854676 0.376572 -0.005745
C27   C     C_R   0.752710 0.937223 0.357513 -0.129052
C28   C     C_R   0.758179 0.927870 0.307584 0.013494
C29   C     C_R   0.760860 0.916872 0.206896 0.013385
C30   C     C_R   0.852258 0.011237 0.235180 -0.128331
C31   C     C_R   0.851860 0.015822 0.285374 -0.127618
C32   C     C_R   0.765317 0.908560 0.156997 -0.126989
C33   C     C_R   0.684953 0.806056 0.128811 -0.005654
C34   C     C_R   0.627570 0.898332 0.564661 0.546929
C35   C     C_R   0.562040 0.759792 0.351900 -0.132246
C36   C     C_R   0.568908 0.746125 0.301700 0.016368
C37   C     C_R   0.665098 0.833046 0.279387 0.065371
C38   C     C_R   0.478637 0.650793 0.273168 -0.125725
C39   C     C_R   0.483794 0.641676 0.222732 -0.125679
C40   C     C_R   0.577884 0.729166 0.200271 0.015965
C41   C     C_R   0.667563 0.826470 0.228830 0.065490
C42   C     C_R   0.587851 0.718748 0.150083 -0.134998
C43   C     C_R   0.651032 0.858655 0.379417 -0.004517
C44   C     C_R   0.741759 0.301212 0.651386 -0.138953
C45   C     C_R   0.603244 0.227620 0.578348 0.545460
C46   C     C_R   0.755599 0.324448 0.701860 0.006627
C47   C     C_R   0.770957 0.352536 0.803736 0.005759
C48   C     C_R   0.861595 0.347706 0.777932 -0.140750
C49   C     C_R   0.853208 0.332205 0.727266 -0.140617
C50   C     C_R   0.779426 0.371379 0.854366 -0.138446
C51   C     C_R   0.688768 0.378723 0.879255 -0.005746
C52   C     C_R   0.560011 0.311952 0.652546 -0.135112
C53   C     C_R   0.569187 0.328946 0.702681 0.001469
C54   C     C_R   0.666190 0.333239 0.727615 0.057172
C55   C     C_R   0.478569 0.333889 0.728208 -0.144150
C56   C     C_R   0.271837 0.879520 0.563449 0.546975
C57   C     C_R   0.482397 0.340159 0.778472 -0.143346
C58   C     C_R   0.578615 0.345037 0.803599 0.001385
C59   C     C_R   0.671968 0.343449 0.778330 0.056408
C60   C     C_R   0.585407 0.357352 0.853755 -0.133264
C61   C     C_R   0.640477 0.288644 0.627056 -0.006794
C62   C     C_1   0.222270 0.863130 0.610193 -0.012677
C63   C     C_R   0.077438 0.746267 0.718041 -0.103652
C64   C     C_R   0.062400 0.736159 0.767646 -0.103557
C65   C     C_R   0.232650 0.928032 0.786055 -0.104762
C66   C     C_R   0.247639 0.938183 0.736418 -0.104442
C67   C     C_1   0.630860 0.264870 0.393961 -0.019157
C68   C     C_R   0.170412 0.847122 0.702305 0.036032
C69   C     C_R   0.140576 0.826533 0.801767 0.036381
C70   C     C_1   0.123655 0.814214 0.852656 -0.058138
C71   C     C_1   0.193467 0.854240 0.651595 -0.057492
C72   C     C_1   0.100271 0.797083 0.894248 -0.014162
C73   C     C_1   0.647444 0.861033 0.609034 -0.014483
C74   C     C_R   0.694456 0.905775 0.735008 -0.104133
C75   C     C_R   0.704840 0.888989 0.783359 -0.102163
C76   C     C_R   0.677659 0.697471 0.758216 -0.106495
C77   C     C_R   0.667044 0.714265 0.709635 -0.105285
C78   C     C_R   0.756354 0.401908 0.287011 -0.142089
C79   C     C_R   0.675537 0.818689 0.698010 0.036803
C80   C     C_R   0.696221 0.784879 0.795147 0.036434
C81   C     C_1   0.709841 0.770331 0.845139 -0.058403
C82   C     C_1   0.661281 0.837519 0.648689 -0.057726
C83   C     C_1   0.724783 0.761903 0.887181 -0.011251
C84   C     C_R   0.065712 0.773400 0.078952 0.549508
C85   C     C_R   0.716921 0.441264 0.067204 0.548718
C86   C     C_R   0.720479 0.782914 0.081008 0.557907
C87   C     C_R   0.056476 0.766185 0.941218 0.538598
C88   C     C_R   0.710249 0.434134 0.928939 0.536813
C89   C     C_R   0.769522 0.420106 0.238014 -0.123325
C90   C     C_R   0.748412 0.754431 0.936883 0.563251
Cr1   Cr    Cr6+3 0.416430 0.829200 0.492370 1.021975
Cr2   Cr    Cr6+3 0.674630 0.087020 0.504170 1.021613
Cr3   Cr    Cr6+3 0.408920 0.083740 0.503490 1.021354
Cr4   Cr    Cr6+3 0.914010 0.832750 0.013970 1.017505
Cr5   Cr    Cr6+3 0.922310 0.578600 0.003000 1.017536
Cr6   Cr    Cr6+3 0.656280 0.574630 0.003870 1.021496
H1    H     H_    0.822430 0.465579 0.313667 0.121298
H2    H     H_    0.132322 0.072051 0.219232 0.098291
H3    H     H_    0.160069 0.084863 0.307596 0.102053
H4    H     H_    0.204556 0.012341 0.379533 0.122415
H5    H     H_    0.839262 0.977652 0.140751 0.132182
H6    H     H_    0.822673 0.012645 0.378704 0.132535
H7    H     H_    0.925050 0.080312 0.218486 0.100327
H8    H     H_    0.923371 0.089272 0.306791 0.103107
H9    H     H_    0.524908 0.640109 0.128261 0.124823
H10   H     H_    0.414278 0.566525 0.201332 0.104426
H11   H     H_    0.404307 0.583391 0.289854 0.100407
H12   H     H_    0.844901 0.498086 0.227524 0.129619
H13   H     H_    0.483974 0.698148 0.368914 0.121930
H14   H     H_    0.859062 0.387101 0.873999 0.129106
H15   H     H_    0.805073 0.285032 0.631630 0.127470
H16   H     H_    0.938332 0.354975 0.796918 0.113634
H17   H     H_    0.922643 0.325808 0.707983 0.112930
H18   H     H_    0.514144 0.361208 0.872665 0.137839
H19   H     H_    0.410987 0.342755 0.797715 0.113706
H20   H     H_    0.403343 0.329872 0.709268 0.113173
H21   H     H_    0.482929 0.304976 0.633892 0.135821
H22   H     H_    0.017922 0.674906 0.692077 0.113682
H23   H     H_    0.521098 0.177948 0.189941 0.139185
H24   H     H_    0.990425 0.657455 0.779411 0.117697
H25   H     H_    0.293184 0.998648 0.812057 0.114451
H26   H     H_    0.320573 0.016195 0.724647 0.120118
H27   H     H_    0.700680 0.986638 0.726465 0.117348
H28   H     H_    0.719750 0.957293 0.811556 0.116462
H29   H     H_    0.671487 0.616775 0.766950 0.121823
H30   H     H_    0.651894 0.646101 0.681344 0.113402
H31   H     H_    0.166550 0.671661 0.124532 0.132871
H32   H     H_    0.218131 0.692553 0.361816 0.132286
H33   H     H_    0.204430 0.598872 0.194969 0.104774
H34   H     H_    0.214561 0.601684 0.283029 0.100360
H35   H     H_    0.104722 0.963861 0.139079 0.123847
O1    O     O_R   0.296680 0.802170 0.437540 -0.524351
O2    O     O_R   0.662610 0.183990 0.557860 -0.502037
O3    O     O_R   0.500730 0.201280 0.562180 -0.519930
O4    O     O_R   0.312500 0.978850 0.548170 -0.494689
O5    O     O_3   0.499990 0.999990 0.500010 -0.242614
O6    O     O_R   0.820790 0.857990 0.068830 -0.519761
O7    O     O_R   0.016700 0.827330 0.062850 -0.502076
O8    O     O_R   0.041970 0.673520 0.060040 -0.516554
O9    O     O_R   0.817980 0.483660 0.048840 -0.491327
O10   O     O_R   0.637200 0.461990 0.052510 -0.508909
O11   O     O_R   0.664790 0.681920 0.057970 -0.494636
O12   O     O_R   0.525380 0.838530 0.443500 -0.503291
O13   O     O_R   0.815840 0.852920 0.961840 -0.503774
O14   O     O_R   0.012100 0.822630 0.963670 -0.511348
O15   O     O_R   0.037010 0.668460 0.953040 -0.508081
O16   O     O_R   0.813390 0.478970 0.949660 -0.503734
O17   O     O_R   0.632250 0.456930 0.945520 -0.527724
O18   O     O_R   0.660200 0.677230 0.958780 -0.491669
O19   O     O_3   0.830870 0.661990 0.006950 -0.264840
O20   O     O_R   0.702130 0.995190 0.446810 -0.519736
O21   O     O_R   0.661770 0.181390 0.458760 -0.493665
O22   O     O_R   0.499820 0.198480 0.455280 -0.510405
O23   O     O_R   0.311660 0.976250 0.449080 -0.500330
O24   O     O_R   0.297580 0.804960 0.544440 -0.506891
O25   O     O_R   0.526220 0.841130 0.542590 -0.494234
O26   O     O_R   0.703030 0.997990 0.553710 -0.510610
O27   O     O_3   0.473646 0.119764 0.276961 -0.702124
H36   H     H_    0.472381 0.114763 0.312332 0.333309

loop_
_geom_bond_atom_site_label_1
_geom_bond_atom_site_label_2
_ccdc_geom_bond_type
C39   H10   S    
C66   C68   A    
C87   O15   A    
C12   O21   A    
C60   H18   S    
C35   C36   A    
C42   H9    S    
C50   H14   S    
C12   O22   A    
Cr3   O5    S    
C72   C87   S    
C62   C71   T    
C57   H19   S    
C53   C54   A    
Cr1   O24   S    
C46   C49   A    
Cr5   O9    S    
C5    C6    S    
C33   C42   A    
C22   C24   A    
Cr3   O23   S    
C8    C85   S    
C29   C32   A    
C52   C61   A    
C90   O18   A    
C14   H34   S    
C38   C39   A    
C55   H20   S    
C58   C60   A    
C15   C16   A    
C11   C24   A    
C16   C84   S    
C18   C19   A    
C23   C26   S    
C45   C61   S    
C38   H11   S    
C86   O6    A    
Cr6   O10   S    
C11   C15   A    
C1    C43   S    
Cr1   O5    S    
Cr2   O2    S    
C84   O8    A    
C22   C25   A    
C30   H7    S    
Cr2   O21   S    
C3    O27   S    
C66   H26   S    
C49   H17   S    
C65   H25   S    
C35   C43   A    
C75   C80   A    
C1    O20   A    
C35   H13   S    
C52   H21   S    
Cr4   O14   S    
C40   C42   A    
C74   H27   S    
C84   O7    A    
C15   H31   S    
C21   C22   A    
C76   H29   S    
Cr2   O5    S    
Cr5   O15   S    
C78   H1    S    
C56   O24   A    
C81   C83   T    
Cr6   O11   S    
C44   C46   A    
C9    C26   A    
C50   C51   A    
C47   C50   A    
Cr1   O12   S    
C54   C59   A    
C53   C55   A    
C78   C89   A    
Cr6   O17   S    
C12   C67   S    
C9    H32   S    
C74   C75   A    
C75   H28   S    
Cr5   O16   S    
C76   C77   A    
Cr3   O3    S    
C10   C14   A    
C85   O10   A    
C39   C40   A    
C63   H22   S    
C6    C8    T    
Cr1   O1    S    
C4    C7    S    
C58   C59   A    
C47   C59   A    
Cr2   O26   S    
C33   C86   S    
C44   H15   S    
C4    C78   A    
C29   C30   A    
C1    O12   A    
C47   C48   A    
C10   C19   A    
Cr6   O19   S    
C46   C54   A    
Cr2   O20   S    
C17   C18   A    
C88   O17   A    
C77   C79   A    
Cr5   O19   S    
C45   O3    A    
C64   C69   A    
C85   O9    A    
C40   C41   A    
C48   H16   S    
C74   C79   A    
C55   C57   A    
O27   H36   S    
Cr4   O7    S    
C56   C62   S    
C2    C5    A    
C17   C26   A    
C3    C4    A    
C25   H35   S    
C73   C82   T    
C56   O4    A    
C52   C53   A    
C86   O11   A    
C9    C10   A    
C16   C25   A    
C83   C90   S    
C63   C68   A    
C48   C49   A    
C87   O14   A    
C29   C41   A    
C45   O2    A    
C28   C31   A    
C76   C80   A    
C80   C81   S    
Cr3   O4    S    
C51   C88   S    
C79   C82   S    
C2    H23   S    
C34   O25   A    
C44   C61   A    
Cr4   O19   S    
C27   H6    S    
Cr5   O8    S    
C64   H24   S    
Cr4   O13   S    
C32   C33   A    
Cr3   O22   S    
C2    C3    A    
Cr1   O25   S    
C31   H8    S    
C21   H2    S    
C11   C13   A    
C57   C58   A    
C30   C31   A    
C20   H3    S    
C28   C37   A    
C68   C71   S    
C65   C69   A    
Cr6   O18   S    
C89   H12   S    
C36   C38   A    
C88   O16   A    
C23   O1    A    
C19   C24   A    
C18   C20   A    
C37   C41   A    
C69   C70   S    
C17   H4    S    
C90   O13   A    
C34   C73   S    
C7    C67   T    
C63   C64   A    
C34   O26   A    
C27   C43   A    
C20   C21   A    
C36   C37   A    
C65   C66   A    
C23   O23   A    
C27   C28   A    
Cr4   O6    S    
C13   H33   S    
C32   H5    S    
C70   C72   T    
C51   C60   A    
C13   C14   A    
C5    C89   A    
C77   H30   S    
