data_mof_unit_48567.cif
_audit_creation_date              2012-12-11T17:10:32-0500
_audit_creation_method            fapswitch 2.2
_symmetry_space_group_name_H-M    P1
_symmetry_Int_Tables_number       1
_space_group_crystal_system       triclinic
_cell_length_a                    15.125506
_cell_length_b                    14.835909
_cell_length_c                    14.947513
_cell_angle_alpha                 109.292165
_cell_angle_beta                  109.803002
_cell_angle_gamma                 108.907167
_cell_volume                      2594.99328411

loop_
_atom_site_label
_atom_site_type_symbol
_atom_type_description
_atom_site_fract_x
_atom_site_fract_y
_atom_site_fract_z
_atom_type_partial_charge
C1    C     C_R   0.202897 0.294795 0.197146 -0.186395
C2    C     C_R   0.462673 0.555828 0.239376 0.049392
C3    C     C_R   0.489012 0.797235 0.587749 -0.105302
C4    C     C_R   0.596044 0.505361 0.804350 -0.145337
C5    C     C_R   0.705060 0.398545 0.411663 -0.104833
C6    C     C_R   0.426922 0.798039 0.495661 0.063135
C7    C     C_R   0.799414 0.433993 0.502165 0.081480
C8    C     C_R   0.535759 0.538660 0.207813 -0.038834
C9    C     C_R   0.823502 0.825814 0.785580 0.017538
C10   C     C_R   0.103803 0.669576 0.337944 -0.102027
C11   C     C_R   0.099870 0.622098 0.403874 -0.173068
C12   C     C_R   0.569458 0.570296 0.868200 0.071672
C13   C     C_R   0.038295 0.508070 0.356476 0.108121
C14   C     C_R   0.986158 0.440679 0.241187 0.023982
C15   C     C_R   0.994504 0.489906 0.176876 -0.155366
C16   C     C_R   0.432216 0.187299 0.408639 -0.172085
C17   C     C_R   0.050501 0.603713 0.224697 -0.098576
C18   C     C_R   0.918199 0.459311 0.428176 -0.026105
C19   C     C_R   0.890842 0.427766 0.497681 0.026099
C20   C     C_R   0.954604 0.400775 0.565907 -0.025524
C21   C     C_R   0.047659 0.405326 0.562631 -0.036978
C22   C     C_R   0.075441 0.439110 0.493953 0.013430
C23   C     C_R   0.447902 0.172901 0.498617 0.070395
C24   C     C_R   0.010022 0.464913 0.425482 -0.059175
C25   C     C_R   0.991125 0.444802 0.755170 -0.234995
C26   C     C_R   0.962754 0.423271 0.828624 0.108524
C27   C     C_R   0.867882 0.328026 0.789140 -0.171282
C28   C     C_R   0.277419 0.532118 0.591834 -0.129910
C29   C     C_R   0.802121 0.254735 0.676813 -0.175995
C30   C     C_R   0.830430 0.275773 0.602654 0.060797
C31   C     C_R   0.925840 0.371580 0.642063 0.091591
C32   C     C_R   0.657670 0.559451 0.030837 -0.013829
C33   C     C_R   0.609325 0.609886 0.984019 0.050013
C34   C     C_R   0.176846 0.456783 0.499282 0.090353
C35   C     C_R   0.571541 0.670787 0.038089 -0.200216
C36   C     C_R   0.559624 0.659677 0.122527 -0.214580
C37   C     C_R   0.582380 0.585226 0.150989 0.084185
C38   C     C_R   0.644811 0.548184 0.115456 0.027200
C39   C     C_3   0.762641 0.586427 0.183066 -0.186131
C40   C     C_R   0.526850 0.275544 0.591047 -0.108287
C41   C     C_3   0.777191 0.599637 0.091648 0.067232
C42   C     C_R   0.333407 0.871981 0.390801 0.099256
C43   C     C_R   0.384667 0.873233 0.489642 0.008274
C44   C     C_R   0.409189 0.960332 0.586051 -0.267439
C45   C     C_R   0.399873 0.705144 0.408203 -0.142868
C46   C     C_R   0.413786 0.057388 0.588249 0.034907
C47   C     C_R   0.394969 0.066443 0.492958 -0.003122
C48   C     C_R   0.338124 0.967482 0.393022 0.071951
C49   C     C_3   0.339960 0.937331 0.287673 -0.210578
C50   C     C_3   0.337730 0.833591 0.286175 -0.193143
C51   C     C_R   0.012246 0.085758 0.039758 0.101311
C52   C     C_R   0.189038 0.432378 0.408628 -0.127353
C53   C     C_R   0.107340 0.114324 0.035957 0.058949
C54   C     C_R   0.107276 0.054194 0.941093 -0.215486
C55   C     C_R   0.012371 0.958668 0.854665 -0.200729
C56   C     C_R   0.800396 0.498867 0.592426 -0.143057
C57   C     C_R   0.920040 0.926726 0.865079 0.058739
C58   C     C_R   0.920053 0.993773 0.955450 0.101906
C59   C     C_3   0.883363 0.966178 0.028802 -0.527877
C60   C     C_3   0.986610 0.069081 0.123777 -0.157857
C61   C     C_R   0.505333 0.597117 0.803877 -0.134175
C62   C     C_R   0.292469 0.202596 0.194617 0.034461
C63   C     C_R   0.202077 0.203806 0.133218 0.026184
C64   C     C_R   0.552612 0.462714 0.237391 0.045543
C65   C     C_R   0.721788 0.814386 0.753931 0.068321
C66   C     C_R   0.814026 0.723098 0.755706 -0.164716
H1    H     H_    0.148551 0.325242 0.171102 0.105807
H2    H     H_    0.481866 0.658009 0.830585 0.081397
H3    H     H_    0.857969 0.532072 0.677120 0.106803
H4    H     H_    0.549912 0.363402 0.105207 0.092950
H5    H     H_    0.549803 0.318047 0.190447 0.088736
H6    H     H_    0.757411 0.972566 0.794761 0.102195
H7    H     H_    0.681237 0.912428 0.841111 0.082558
H8    H     H_    0.878447 0.703402 0.773812 0.110659
H9    H     H_    0.364417 0.565388 0.115253 0.104579
H10   H     H_    0.440124 0.682580 0.240348 0.082223
H11   H     H_    0.503938 0.844776 0.668824 0.093455
H12   H     H_    0.674882 0.335072 0.330416 0.098731
H13   H     H_    0.922548 0.295775 0.242807 0.100741
H14   H     H_    0.952270 0.288160 0.143635 0.082839
H15   H     H_    0.953346 0.439620 0.088828 0.109545
H16   H     H_    0.901553 0.572070 0.384213 0.125624
H17   H     H_    0.822852 0.437544 0.281411 0.112945
H18   H     H_    0.147182 0.427939 0.709183 0.106463
H19   H     H_    0.064417 0.294894 0.608645 0.118080
H20   H     H_    0.063024 0.520075 0.786142 0.120608
H21   H     H_    0.053947 0.458079 0.982529 0.095968
H22   H     H_    0.984119 0.526475 0.971344 0.092011
H23   H     H_    0.050495 0.640902 0.173542 0.131230
H24   H     H_    0.844979 0.311107 0.845470 0.106072
H25   H     H_    0.728728 0.181671 0.647174 0.122561
H26   H     H_    0.754500 0.123766 0.473624 0.096375
H27   H     H_    0.685725 0.193276 0.465012 0.107857
H28   H     H_    0.541306 0.718265 0.009129 0.117239
H29   H     H_    0.374690 0.129333 0.324869 0.121998
H30   H     H_    0.527025 0.704995 0.158883 0.121426
H31   H     H_    0.801626 0.668585 0.342505 0.114682
H32   H     H_    0.791618 0.742592 0.280032 0.125948
H33   H     H_    0.775797 0.520349 0.192464 0.140731
H34   H     H_    0.144529 0.757739 0.374504 0.126283
H35   H     H_    0.846306 0.712615 0.051099 0.091817
H36   H     H_    0.815432 0.763199 0.146165 0.113458
H37   H     H_    0.749480 0.442260 0.004152 0.091363
H38   H     H_    0.815153 0.533402 0.974661 0.084009
H39   H     H_    0.436353 0.959122 0.662315 0.125498
H40   H     H_    0.520115 0.167217 0.748155 0.089274
H41   H     H_    0.389159 0.121701 0.713209 0.106773
H42   H     H_    0.251498 0.908342 0.132977 0.104464
H43   H     H_    0.223104 0.978154 0.223794 0.117511
H44   H     H_    0.415123 0.992108 0.294071 0.123557
H45   H     H_    0.137784 0.674670 0.491298 0.118442
H46   H     H_    0.241187 0.728717 0.121488 0.123059
H47   H     H_    0.237237 0.664628 0.192452 0.099624
H48   H     H_    0.296135 0.571146 0.675984 0.099849
H49   H     H_    0.180181 0.078054 0.935873 0.125515
H50   H     H_    0.011849 0.908335 0.782757 0.131529
H51   H     H_    0.810273 0.972879 0.020317 0.170336
H52   H     H_    0.878728 0.888167 0.024004 0.198291
H53   H     H_    0.973958 0.134120 0.171836 0.125472
H54   H     H_    0.023400 0.009408 0.227868 0.120396
H55   H     H_    0.128542 0.118437 0.254600 0.118594
H56   H     H_    0.655356 0.481134 0.832204 0.089198
H57   H     H_    0.279964 0.059146 0.104978 0.092137
H58   H     H_    0.356762 0.165971 0.099269 0.087673
H59   H     H_    0.331036 0.665027 0.329386 0.120229
H60   H     H_    0.412827 0.830906 0.295914 0.117639
H61   H     H_    0.560831 0.296780 0.675845 0.108642
H62   H     H_    0.127138 0.376495 0.324401 0.098483
N1    N     N_R   0.291070 0.347930 0.293870 -0.044515
N2    N     N_R   0.497240 0.291100 0.443210 -0.039834
N3    N     N_R   0.347890 0.554050 0.556810 -0.045158
N4    N     N_R   0.554050 0.347900 0.556830 -0.042342
N5    N     N_R   0.291070 0.497250 0.443190 -0.038964
N6    N     N_R   0.497240 0.554030 0.706140 -0.039020
N7    N     N_R   0.347890 0.291110 0.293870 -0.048338
N8    N     N_R   0.445950 0.652100 0.443170 -0.041070
N9    N     N_3   0.586692 0.389971 0.188927 -0.220734
N10   N     N_3   0.694383 0.899848 0.774878 -0.222053
N11   N     N_3   0.394725 0.597430 0.199433 -0.227988
N12   N     N_R   0.708930 0.502750 0.556810 -0.041329
N13   N     N_3   0.919727 0.323591 0.186773 -0.228117
N14   N     N_3   0.854114 0.491526 0.363764 -0.211811
N15   N     N_3   0.113403 0.373877 0.626219 -0.210310
N16   N     N_3   0.030304 0.499634 0.943220 -0.227972
N17   N     N_3   0.762172 0.200474 0.487625 -0.222276
N18   N     N_3   0.819971 0.688487 0.287804 -0.199329
N19   N     N_3   0.846935 0.712752 0.121319 -0.194330
N20   N     N_3   0.808842 0.523345 0.038571 -0.211760
N21   N     N_3   0.445139 0.147635 0.688635 -0.218696
N22   N     N_3   0.240080 0.914299 0.199396 -0.187648
N23   N     N_R   0.502760 0.445970 0.293860 -0.064081
N24   N     N_3   0.238616 0.734957 0.192236 -0.192583
N25   N     N_3   0.060209 0.044119 0.190819 -0.195757
N26   N     N_3   0.338745 0.141806 0.151961 -0.231403
N27   N     N_R   0.652110 0.708890 0.706130 -0.052912
N28   N     N_R   0.708930 0.652070 0.706130 -0.047312
N29   N     N_R   0.445950 0.502780 0.293850 -0.053343
N30   N     N_R   0.502760 0.708900 0.556790 -0.042091
N31   N     N_R   0.652110 0.445950 0.443190 -0.043529
N32   N     N_R   0.554050 0.497220 0.706150 -0.038546
Ni1   Ni    Ni4+2 0.369690 0.500010 0.369700 0.212681
Ni2   Ni    Ni4+2 0.630310 0.499990 0.630300 0.206685
Ni3   Ni    Ni4+2 0.500000 0.369720 0.369720 0.202057
Ni4   Ni    Ni4+2 0.500000 0.630280 0.630280 0.201870

loop_
_geom_bond_atom_site_label_1
_geom_bond_atom_site_label_2
_ccdc_geom_bond_type
N2    Ni3   S    
C25   C31   A    
N6    N32   A    
C6    C45   A    
H58   N26   S    
C27   C29   A    
C53   C63   S    
H31   N18   S    
H38   N20   S    
C35   C36   A    
H16   N14   S    
C3    C6    A    
H19   N15   S    
C52   H62   S    
C15   H15   S    
H13   N13   S    
C44   H39   S    
C26   C27   A    
C37   C38   A    
H55   N25   S    
C49   N22   S    
C27   H24   S    
C18   C24   A    
C2    N11   S    
N23   N29   A    
C36   C37   A    
C1    N1    A    
N12   N31   A    
C30   C31   A    
C56   N12   A    
C35   H28   S    
H7    N10   S    
C10   C17   A    
N12   Ni2   S    
C23   C40   A    
C66   H8    S    
C60   H53   S    
C18   C19   A    
C46   C47   A    
C49   C50   S    
C9    C66   A    
C25   H20   S    
C34   C52   A    
C1    H1    S    
N1    N7    A    
C19   C20   A    
C45   H59   S    
C5    N31   A    
C61   N6    A    
C3    N30   A    
C32   C41   S    
H46   N24   S    
H27   N17   S    
C50   H60   S    
C32   C38   A    
H21   N16   S    
C4    C12   A    
C29   C30   A    
C16   N2    A    
C9    C57   S    
N30   Ni4   S    
N8    Ni1   S    
N8    N30   A    
H6    N10   S    
C40   N4    A    
C14   N13   S    
N28   Ni2   S    
C59   C60   S    
C59   H51   S    
H40   N21   S    
C13   C14   A    
C52   N5    A    
H47   N24   S    
C7    C56   A    
C26   N16   S    
C1    C63   A    
C44   C46   A    
H37   N20   S    
N4    Ni2   S    
C64   N9    S    
C38   C39   S    
C22   C34   S    
C23   C47   S    
C8    C37   S    
C64   N23   A    
C11   H45   S    
C18   N14   S    
C17   H23   S    
C21   N15   S    
H5    N9    S    
C5    C7    A    
H32   N18   S    
H18   N15   S    
C25   C26   A    
C53   C54   A    
C40   H61   S    
C62   N26   S    
C13   C24   S    
C51   C53   A    
N32   Ni2   S    
C62   N7    A    
N2    N4    A    
C43   C44   A    
C5    H12   S    
C62   C63   A    
H36   N19   S    
C36   H30   S    
C39   H33   S    
C47   C48   A    
C41   N19   S    
C54   H49   S    
C4    H56   S    
C51   C58   A    
C42   C48   A    
C10   H34   S    
C28   H48   S    
C42   C50   S    
H42   N22   S    
C65   N10   S    
C60   N25   S    
C48   C49   S    
C8    C64   A    
H14   N13   S    
C16   C23   A    
N23   Ni3   S    
C6    C43   S    
C55   C57   A    
C20   C31   S    
C22   C24   A    
C42   C43   A    
C3    H11   S    
N29   Ni1   S    
C29   H25   S    
C30   N17   S    
H10   N11   S    
C15   C17   A    
C54   C55   A    
H35   N19   S    
C45   N8    A    
H26   N17   S    
N7    Ni3   S    
C2    C8    A    
N3    N5    A    
N5    Ni1   S    
H17   N14   S    
N27   Ni4   S    
C59   H52   S    
C7    C19   S    
C28   N3    A    
C32   C33   A    
H43   N22   S    
C58   C59   S    
C65   N27   A    
H9    N11   S    
C66   N28   A    
C12   C61   A    
C11   C13   A    
C61   H2    S    
C57   C58   A    
C4    N32   A    
C41   N20   S    
N3    Ni4   S    
C2    N29   A    
N1    Ni1   S    
C39   N18   S    
H54   N25   S    
C33   C35   A    
N6    Ni4   S    
N31   Ni3   S    
C9    C65   A    
C10   C11   A    
C28   C34   A    
H41   N21   S    
C50   N24   S    
C46   N21   S    
C20   C21   A    
C39   C41   S    
H4    N9    S    
C56   H3    S    
C55   H50   S    
N27   N28   A    
C14   C15   A    
C51   C60   S    
C16   H29   S    
C12   C33   S    
C21   C22   A    
H22   N16   S    
C49   H44   S    
H57   N26   S    
