data_mof_unit_28827.cif
_audit_creation_date              2012-12-11T16:33:26-0500
_audit_creation_method            fapswitch 2.2
_symmetry_space_group_name_H-M    P1
_symmetry_Int_Tables_number       1
_space_group_crystal_system       triclinic
_cell_length_a                    6.945904
_cell_length_b                    18.710088
_cell_length_c                    19.843149
_cell_angle_alpha                 68.445458
_cell_angle_beta                  90.242509
_cell_angle_gamma                 90.408093
_cell_volume                      2398.38197904

loop_
_atom_site_label
_atom_site_type_symbol
_atom_type_description
_atom_site_fract_x
_atom_site_fract_y
_atom_site_fract_z
_atom_type_partial_charge
O1    O     O_R   0.488960 0.443750 0.941980 -0.519615
O2    O     O_R   0.823890 0.406510 0.087590 -0.552262
O3    O     O_R   0.999680 0.556250 0.058020 -0.519877
C1    C     C_R   0.654803 0.382558 0.114231 0.803024
O4    O     O_R   0.818360 0.434410 0.944340 -0.544193
O5    O     O_R   0.994110 0.584350 0.913750 -0.520905
C2    C     C_R   0.649493 0.421432 0.922928 0.792689
O6    O     O_R   0.494530 0.415650 0.086250 -0.523115
O7    O     O_3   0.662590 0.549160 0.990130 -0.370584
V1    V     V_3+5 0.935320 0.490880 0.001830 1.524011
O8    O     O_R   0.324180 0.593490 0.912410 -0.548725
C3    C     C_R   0.154853 0.616078 0.884553 0.805795
O9    O     O_R   0.329720 0.565590 0.055660 -0.546019
C4    C     C_R   0.161522 0.576794 0.078534 0.806278
V2    V     V_3+5 0.435990 0.509120 0.998170 1.516136
O10   O     O_3   0.158850 0.450840 0.009870 -0.367010
C5    C     C_3   0.021803 0.715026 0.309528 0.617172
C6    C     C_3   0.199357 0.671996 0.297072 -0.290042
H1    H     H_    0.243323 0.613111 0.332252 0.159848
H2    H     H_    0.468818 0.750328 0.301129 0.206171
C7    C     C_1   0.152853 0.617945 0.127771 -0.158094
C8    C     C_1   0.116510 0.874538 0.377708 -0.153413
C9    C     C_3   0.967740 0.740723 0.229147 0.591053
C10   C     C_3   0.143360 0.698380 0.216124 -0.022180
C11   C     C_3   0.086393 0.815601 0.212037 -0.324382
C12   C     C_3   0.141250 0.788852 0.293521 -0.051915
C13   C     C_3   0.264056 0.772087 0.199503 0.065000
C14   C     C_3   0.321381 0.746728 0.280726 -0.153291
C15   C     C_1   0.146247 0.652555 0.168886 0.026195
C16   C     C_1   0.128942 0.836353 0.339535 0.049426
H3    H     H_    0.040551 0.874171 0.176860 0.136053
C17   C     C_R   0.026542 0.765431 0.883779 0.565826
C18   C     C_R   0.972031 0.836133 0.884673 -0.203714
C19   C     C_R   0.979458 0.901792 0.821951 0.065117
C20   C     C_R   0.025791 0.895140 0.755922 -0.187272
C21   C     C_R   0.073992 0.823189 0.752488 -0.022862
C22   C     C_R   0.080981 0.757093 0.818121 -0.043252
C23   C     C_R   0.120082 0.817000 0.685201 -0.125873
C24   C     C_R   0.175730 0.745085 0.683626 0.078390
C25   C     C_R   0.184936 0.679196 0.748910 0.025284
C26   C     C_R   0.142183 0.685321 0.816485 -0.168749
C27   C     C_R   0.218594 0.737157 0.617185 -0.157357
C28   C     C_R   0.261219 0.665949 0.614471 -0.123035
C29   C     C_R   0.261434 0.600436 0.677647 0.111890
C30   C     C_R   0.228673 0.607296 0.744584 -0.174898
H4    H     H_    0.931591 0.840146 0.935844 0.145593
H5    H     H_    0.028347 0.946901 0.707736 0.113595
H6    H     H_    0.214961 0.785433 0.566172 0.108289
H7    H     H_    0.288395 0.661518 0.562419 0.131919
H8    H     H_    0.229961 0.555457 0.792689 0.084354
C31   C     C_R   0.478795 0.107165 0.247550 0.543703
C32   C     C_R   0.402215 0.103224 0.183582 -0.002633
C33   C     C_R   0.409628 0.167490 0.119859 -0.277420
C34   C     C_R   0.493748 0.235352 0.118454 0.583760
C35   C     C_R   0.563885 0.242932 0.182882 -0.121131
C36   C     C_R   0.554282 0.177512 0.249270 -0.130867
C37   C     C_R   0.644833 0.313324 0.182261 -0.133849
C38   C     C_R   0.707701 0.319230 0.248003 0.061454
C39   C     C_R   0.686649 0.255863 0.314645 0.037184
C40   C     C_R   0.618900 0.183942 0.315192 -0.139544
C41   C     C_R   0.783263 0.389217 0.249089 -0.199209
C42   C     C_R   0.820190 0.398814 0.313998 -0.137333
C43   C     C_R   0.779804 0.339649 0.379756 0.148202
C44   C     C_R   0.722637 0.267507 0.380163 -0.167758
H9    H     H_    0.353408 0.164498 0.069922 0.193019
H10   H     H_    0.806783 0.438774 0.200097 0.107074
H11   H     H_    0.869183 0.454368 0.312841 0.127448
H12   H     H_    0.694799 0.222242 0.431983 0.079510
O11   O     O_R   0.770540 0.084530 0.414050 -0.541293
O12   O     O_R   0.445710 0.065660 0.555720 -0.541208
O13   O     O_R   0.270420 0.915650 0.586190 -0.543739
C45   C     C_R   0.614591 0.079188 0.577025 0.684530
O14   O     O_R   0.441140 0.093540 0.412470 -0.519741
O15   O     O_R   0.265820 0.943740 0.441930 -0.506961
C46   C     C_R   0.609967 0.116650 0.385030 0.828351
O16   O     O_R   0.775150 0.056440 0.558310 -0.545372
O17   O     O_3   0.602370 0.950960 0.510050 -0.360760
V3    V     V_3+5 0.329450 0.009140 0.498150 1.507709
O18   O     O_R   0.935790 0.934280 0.444060 -0.531585
C47   C     C_R   0.104854 0.920433 0.423301 0.745513
O19   O     O_R   0.940370 0.906390 0.587310 -0.542091
C48   C     C_R   0.109120 0.885295 0.616271 0.671253
V4    V     V_3+5 0.828810 0.990710 0.501460 1.489793
O20   O     O_3   0.105780 0.049100 0.489960 -0.377751
C49   C     C_3   0.609874 0.322284 0.709912 0.410707
C50   C     C_3   0.465005 0.257134 0.717518 0.555571
C51   C     C_1   0.623150 0.123422 0.623956 -0.192764
C52   C     C_1   0.640984 0.376288 0.877222 -0.123906
C53   C     C_3   0.777381 0.271394 0.702543 -0.315929
C54   C     C_3   0.630833 0.205666 0.711188 -0.155277
C55   C     C_3   0.800998 0.240746 0.785966 0.630452
C56   C     C_3   0.636245 0.291991 0.792458 -0.185363
C57   C     C_3   0.658083 0.173854 0.794772 -0.390876
C58   C     C_3   0.492858 0.226691 0.800217 0.536778
C59   C     C_1   0.627278 0.160069 0.663549 0.101554
C60   C     C_1   0.637978 0.338571 0.838823 0.173533
H13   H     H_    0.673536 0.112491 0.829813 0.157431
H14   H     H_    0.895005 0.286586 0.662169 0.205091
C61   C     C_3   0.950287 0.979026 0.827498 -0.340429
C62   C     C_3   0.109672 0.993330 0.874980 -0.435800
C63   C     C_3   0.092340 0.071663 0.880151 -0.523125
H15   H     H_    0.109126 0.116293 0.825229 0.306329
H16   H     H_    0.951305 0.077376 0.903674 0.218226
H17   H     H_    0.207511 0.078391 0.916336 0.250880
H18   H     H_    0.101136 0.949811 0.930820 0.202317
H19   H     H_    0.253029 0.989268 0.851886 0.213246
H20   H     H_    0.953363 0.025541 0.772927 0.185681
H21   H     H_    0.806940 0.979907 0.851900 0.168193
C64   C     C_3   0.776091 0.356778 0.448120 -0.376499
C65   C     C_3   0.610169 0.412294 0.443581 -0.362067
C66   C     C_3   0.583720 0.424433 0.514417 -0.615232
H22   H     H_    0.543652 0.368981 0.557476 0.263720
H23   H     H_    0.718108 0.447426 0.529347 0.250212
H24   H     H_    0.466717 0.466481 0.508319 0.215081
H25   H     H_    0.638983 0.468996 0.400096 0.215691
H26   H     H_    0.473429 0.388847 0.430449 0.204547
H27   H     H_    0.755354 0.302980 0.496233 0.180517
H28   H     H_    0.915733 0.382865 0.454824 0.178228
F1    F     F_    0.483393 0.041038 0.306702 -0.708244
C67   C     C_3   0.316786 0.029689 0.181690 -0.281477
C68   C     C_3   0.445238 0.994915 0.139281 -0.339077
C69   C     C_3   0.633894 0.963848 0.178943 -0.651299
H29   H     H_    0.718196 0.010420 0.187562 0.232732
H30   H     H_    0.604269 0.917508 0.232133 0.242859
H31   H     H_    0.722285 0.940042 0.145767 0.192074
H32   H     H_    0.363603 0.947579 0.131770 0.183389
H33   H     H_    0.477312 0.037765 0.084438 0.203725
H34   H     H_    0.292159 0.986529 0.236983 0.220384
H35   H     H_    0.172981 0.042284 0.155218 0.132609
F2    F     F_    0.506336 0.292477 0.052620 -0.691960
F3    F     F_    0.892727 0.685501 0.366019 -0.678055
F4    F     F_    0.290168 0.263682 0.682433 -0.686550
F5    F     F_    0.588031 0.399245 0.668988 -0.720881
F6    F     F_    0.349106 0.206824 0.851507 -0.624327
F7    F     F_    0.973742 0.236650 0.821596 -0.611975
C70   C     C_3   0.408558 0.796856 0.136896 -0.257063
C71   C     C_3   0.311807 0.832429 0.062474 -0.368816
C72   C     C_3   0.461648 0.851872 0.002118 -0.739001
H36   H     H_    0.560997 0.897478 0.004986 0.224775
H37   H     H_    0.546218 0.800065 0.006813 0.249756
H38   H     H_    0.389256 0.872506 0.948554 0.215904
H39   H     H_    0.205520 0.791480 0.054736 0.232584
H40   H     H_    0.233973 0.885488 0.058362 0.185982
H41   H     H_    0.514714 0.837281 0.144905 0.211362
H42   H     H_    0.487781 0.744931 0.138553 0.245510
F8    F     F_    0.784878 0.735047 0.204670 -0.718884
C73   C     C_3   0.283342 0.522850 0.672466 -0.339761
C74   C     C_3   0.102118 0.503266 0.638204 -0.359067
C75   C     C_3   0.112511 0.422767 0.637022 -0.559785
H43   H     H_    0.243502 0.416192 0.608255 0.263941
H44   H     H_    0.113143 0.379881 0.693321 0.284969
H45   H     H_    0.985444 0.412735 0.607764 0.203812
H46   H     H_    0.972721 0.506993 0.669593 0.226787
H47   H     H_    0.085339 0.544733 0.581622 0.207011
H48   H     H_    0.411268 0.523964 0.638665 0.235030
H49   H     H_    0.306858 0.477896 0.727054 0.203466
F9    F     F_    0.027917 0.706507 0.948637 -0.713885

loop_
_geom_bond_atom_site_label_1
_geom_bond_atom_site_label_2
_ccdc_geom_bond_type
C11   H3    S    
C35   C36   A    
C52   C60   T    
C57   C58   S    
C65   H26   S    
O12   V3    S    
C66   H22   S    
C10   C13   S    
C1    O6    A    
C20   H5    S    
O19   C48   A    
C64   H27   S    
C54   C59   S    
C49   C50   S    
C67   C68   S    
C61   H21   S    
C62   H18   S    
C63   H15   S    
C42   H11   S    
C54   C57   S    
C6    C10   S    
C5    C12   S    
C44   H12   S    
C4    C7    S    
C21   C22   A    
C68   H33   S    
C75   H44   S    
O5    C3    A    
C23   C24   A    
C5    F3    S    
O17   V4    S    
V2    O10   S    
C56   C60   S    
C29   C73   S    
C19   C20   A    
C65   C66   S    
C50   C58   S    
C73   C74   S    
C10   C15   S    
O8    V2    S    
C41   H10   S    
C2    C52   S    
C51   C59   T    
C1    C37   S    
C31   F1    S    
O14   V3    S    
O1    V2    S    
C53   C55   S    
C33   H9    S    
O7    V1    S    
C70   H42   S    
C45   O16   A    
O13   C48   A    
C38   C41   A    
C71   H40   S    
C39   C40   A    
C63   H16   S    
O15   C47   A    
O9    C4    A    
C23   C48   S    
C22   C26   A    
C18   H4    S    
O14   C46   A    
C74   H47   S    
O16   V4    S    
O19   V4    S    
C49   C56   S    
C64   H28   S    
C5    C6    S    
C24   C27   A    
C25   C30   A    
C34   F2    S    
C9    F8    S    
C71   H39   S    
C31   C32   A    
C6    C14   S    
C74   C75   S    
C50   C54   S    
C75   H45   S    
C53   C54   S    
C55   C56   S    
O4    C2    A    
C49   C53   S    
C6    H1    S    
C27   H6    S    
H2    C14   S    
C38   C39   A    
O17   V3    S    
C7    C15   T    
C36   C40   A    
C20   C21   A    
C43   C64   S    
O2    C1    A    
C28   C29   A    
C42   C43   A    
O11   V4    S    
C55   C57   S    
V4    O20   S    
C9    C10   S    
C56   C58   S    
C19   C61   S    
C39   C44   A    
C66   H23   S    
C5    C9    S    
C17   C22   A    
C73   H49   S    
C68   C69   S    
O3    C4    A    
C72   H37   S    
C32   C67   S    
C25   C26   A    
C12   C16   S    
O6    V2    S    
O9    V2    S    
O15   V3    S    
O18   C47   A    
C11   C13   S    
C27   C28   A    
C13   C70   S    
C69   H30   S    
O2    V1    S    
C57   H13   S    
C24   C25   A    
C45   C51   S    
C73   H48   S    
C32   C33   A    
C3    C26   S    
C17   F9    S    
C34   C35   A    
C8    C16   T    
C67   H35   S    
O1    C2    A    
C62   H19   S    
C28   H7    S    
C29   C30   A    
C31   C36   A    
C70   C71   S    
C72   H38   S    
O5    V1    S    
O8    C3    A    
C67   H34   S    
C33   C34   A    
C63   H17   S    
C61   H20   S    
C71   C72   S    
C40   C46   S    
C12   C14   S    
C61   C62   S    
C53   H14   S    
C17   C18   A    
C69   H31   S    
C35   C37   A    
C11   C12   S    
C8    C47   S    
O4    V1    S    
C70   H41   S    
O3    V1    S    
V1    O10   S    
C75   H43   S    
O18   V4    S    
C50   F4    S    
C37   C38   A    
C30   H8    S    
C21   C23   A    
C62   C63   S    
C58   F6    S    
C18   C19   A    
O11   C46   A    
C66   H24   S    
C9    C11   S    
O7    V2    S    
C41   C42   A    
C72   H36   S    
C43   C44   A    
V3    O20   S    
C68   H32   S    
C55   F7    S    
C74   H46   S    
C13   C14   S    
O12   C45   A    
C69   H29   S    
C64   C65   S    
C65   H25   S    
O13   V3    S    
C49   F5    S    
