data_mof_unit_57318.cif
_audit_creation_date              2012-12-11T15:26:35-0500
_audit_creation_method            fapswitch 2.2
_symmetry_space_group_name_H-M    P1
_symmetry_Int_Tables_number       1
_space_group_crystal_system       triclinic
_cell_length_a                    7.220616
_cell_length_b                    12.119679
_cell_length_c                    29.258982
_cell_angle_alpha                 90.000795
_cell_angle_beta                  90.019506
_cell_angle_gamma                 89.999701
_cell_volume                      2560.49866205

loop_
_atom_site_label
_atom_site_type_symbol
_atom_type_description
_atom_site_fract_x
_atom_site_fract_y
_atom_site_fract_z
_atom_type_partial_charge
O1    O     O_R   0.647170 0.849180 0.201220 -0.528577
O2    O     O_R   0.352830 0.150820 0.798780 -0.528577
O3    O     O_R   0.352830 0.150820 0.701220 -0.528597
O4    O     O_R   0.647170 0.849180 0.298780 -0.528597
O5    O     O_R   0.147170 0.650820 0.298780 -0.528600
O6    O     O_R   0.852830 0.349180 0.701220 -0.528600
O7    O     O_R   0.852830 0.349180 0.798780 -0.528581
O8    O     O_R   0.147170 0.650820 0.201220 -0.528581
O9    O     O_R   0.317430 0.862210 0.298450 -0.529286
O10   O     O_R   0.682570 0.137790 0.701550 -0.529287
O11   O     O_R   0.682570 0.137790 0.798450 -0.529333
O12   O     O_R   0.317430 0.862210 0.201550 -0.529333
O13   O     O_R   0.817430 0.637790 0.201550 -0.529340
O14   O     O_R   0.182570 0.362210 0.798450 -0.529340
O15   O     O_R   0.182570 0.362210 0.701550 -0.529294
O16   O     O_R   0.817430 0.637790 0.298450 -0.529294
H1    H     H_    0.085379 0.229790 0.454471 0.149542
H2    H     H_    0.914620 0.770209 0.545529 0.149542
H3    H     H_    0.915040 0.770312 0.954449 0.149524
H4    H     H_    0.084960 0.229688 0.045551 0.149524
H5    H     H_    0.584973 0.270284 0.045550 0.149524
H6    H     H_    0.415027 0.729716 0.954450 0.149524
H7    H     H_    0.414423 0.729802 0.545524 0.149531
H8    H     H_    0.585577 0.270197 0.454476 0.149531
C1    C     C_R   0.485971 0.886747 0.313743 0.752535
C2    C     C_R   0.514029 0.113253 0.686257 0.752535
C3    C     C_R   0.514068 0.113252 0.813743 0.752507
C4    C     C_R   0.485932 0.886748 0.186257 0.752508
C5    C     C_R   0.985933 0.613249 0.186258 0.752522
C6    C     C_R   0.014067 0.386751 0.813742 0.752522
C7    C     C_R   0.014030 0.386744 0.686256 0.752544
C8    C     C_R   0.985969 0.613256 0.313744 0.752543
H9    H     H_    0.881858 0.592766 0.688498 0.112476
H10   H     H_    0.118142 0.407234 0.311502 0.112476
H11   H     H_    0.117773 0.407110 0.188532 0.112447
H12   H     H_    0.882227 0.592889 0.811468 0.112447
H13   H     H_    0.382268 0.907125 0.811468 0.112447
H14   H     H_    0.617731 0.092875 0.188532 0.112447
H15   H     H_    0.618289 0.092740 0.311507 0.112480
H16   H     H_    0.381711 0.907259 0.688493 0.112480
H17   H     H_    0.143313 0.276426 0.374882 0.133926
H18   H     H_    0.856687 0.723574 0.625117 0.133926
H19   H     H_    0.857147 0.723715 0.874847 0.133903
H20   H     H_    0.142853 0.276284 0.125153 0.133903
H21   H     H_    0.642788 0.223694 0.125155 0.133917
H22   H     H_    0.357212 0.776306 0.874845 0.133917
H23   H     H_    0.356458 0.776457 0.625111 0.133916
H24   H     H_    0.643542 0.223543 0.374889 0.133916
O17   O     O_3   0.480630 0.680630 0.250000 -0.380634
O18   O     O_3   0.519370 0.319370 0.750000 -0.380634
O19   O     O_3   0.980630 0.819370 0.250000 -0.380622
O20   O     O_3   0.019370 0.180630 0.750000 -0.380622
V1    V     V_3+5 0.205800 0.762860 0.250000 1.551694
V2    V     V_3+5 0.794200 0.237140 0.750000 1.551694
V3    V     V_3+5 0.705800 0.737140 0.250000 1.551682
V4    V     V_3+5 0.294200 0.262860 0.750000 1.551682
H25   H     H_    0.010052 0.283722 0.531054 0.212451
H26   H     H_    0.989948 0.716278 0.468946 0.212451
H27   H     H_    0.990193 0.716334 0.031046 0.212524
H28   H     H_    0.009807 0.283666 0.968954 0.212524
H29   H     H_    0.509890 0.216312 0.968950 0.212503
H30   H     H_    0.490110 0.783688 0.031050 0.212503
H31   H     H_    0.489850 0.783719 0.468944 0.212433
H32   H     H_    0.510150 0.216281 0.531056 0.212434
C9    C     C_R   0.998086 0.536772 0.352540 -0.056359
C10   C     C_R   0.001914 0.463228 0.647460 -0.056359
C11   C     C_R   0.002046 0.463241 0.852536 -0.056398
C12   C     C_R   0.997954 0.536759 0.147464 -0.056398
C13   C     C_R   0.497950 0.963241 0.147464 -0.056335
C14   C     C_R   0.502050 0.036759 0.852536 -0.056335
C15   C     C_R   0.501903 0.036767 0.647460 -0.056383
C16   C     C_R   0.498097 0.963233 0.352540 -0.056383
C17   C     C_R   0.093768 0.359298 0.381631 -0.156506
C18   C     C_R   0.906232 0.640702 0.618368 -0.156506
C19   C     C_R   0.906572 0.640795 0.881607 -0.156444
C20   C     C_R   0.093427 0.359205 0.118393 -0.156444
C21   C     C_R   0.593385 0.140782 0.118394 -0.156480
C22   C     C_R   0.406614 0.859218 0.881606 -0.156480
C23   C     C_R   0.406081 0.859317 0.618364 -0.156480
C24   C     C_R   0.593919 0.140683 0.381636 -0.156480
C25   C     C_R   0.076959 0.432934 0.345489 -0.226491
C26   C     C_R   0.923041 0.567066 0.654511 -0.226491
C27   C     C_R   0.923333 0.567148 0.845465 -0.226549
C28   C     C_R   0.076667 0.432852 0.154535 -0.226549
C29   C     C_R   0.576637 0.067139 0.154535 -0.226555
C30   C     C_R   0.423362 0.932861 0.845465 -0.226555
C31   C     C_R   0.422937 0.932949 0.654508 -0.226450
C32   C     C_R   0.577062 0.067050 0.345492 -0.226450
C33   C     C_R   0.944445 0.569723 0.396876 0.226103
C34   C     C_R   0.055555 0.430277 0.603124 0.226103
C35   C     C_R   0.055567 0.430234 0.896884 0.226178
C36   C     C_R   0.944433 0.569766 0.103115 0.226179
C37   C     C_R   0.444412 0.930246 0.103115 0.226167
C38   C     C_R   0.555588 0.069754 0.896884 0.226167
C39   C     C_R   0.555573 0.069709 0.603126 0.226093
C40   C     C_R   0.444427 0.930291 0.396874 0.226093
C41   C     C_R   0.994911 0.503116 0.435221 0.038375
C42   C     C_R   0.005089 0.496883 0.564779 0.038374
C43   C     C_R   0.005155 0.496877 0.935220 0.038320
C44   C     C_R   0.994845 0.503123 0.064780 0.038320
C45   C     C_R   0.494825 0.996881 0.064780 0.038369
C46   C     C_R   0.505175 0.003119 0.935220 0.038369
C47   C     C_R   0.505069 0.003115 0.564779 0.038382
C48   C     C_R   0.494931 0.996885 0.435221 0.038382
C49   C     C_R   0.051815 0.393031 0.426214 0.092667
C50   C     C_R   0.948185 0.606969 0.573786 0.092667
C51   C     C_R   0.948416 0.607020 0.926199 0.092685
C52   C     C_R   0.051584 0.392980 0.073800 0.092685
C53   C     C_R   0.551563 0.107012 0.073801 0.092680
C54   C     C_R   0.448437 0.892988 0.926199 0.092680
C55   C     C_R   0.448081 0.893040 0.573783 0.092682
C56   C     C_R   0.551919 0.106960 0.426216 0.092682
C57   C     C_R   0.989298 0.539217 0.481901 0.066277
C58   C     C_R   0.010702 0.460783 0.518099 0.066277
C59   C     C_R   0.010670 0.460768 0.981904 0.066248
C60   C     C_R   0.989330 0.539232 0.018096 0.066248
C61   C     C_R   0.489316 0.960773 0.018096 0.066268
C62   C     C_R   0.510684 0.039226 0.981904 0.066268
C63   C     C_R   0.510718 0.039216 0.518099 0.066274
C64   C     C_R   0.489282 0.960784 0.481901 0.066274
C65   C     C_R   0.025896 0.348540 0.506282 -0.117939
C66   C     C_R   0.974104 0.651460 0.493718 -0.117939
C67   C     C_R   0.974295 0.651505 0.006273 -0.117824
C68   C     C_R   0.025705 0.348495 0.993727 -0.117824
C69   C     C_R   0.525743 0.151489 0.993725 -0.117838
C70   C     C_R   0.474257 0.848511 0.006275 -0.117838
C71   C     C_R   0.474020 0.848541 0.493716 -0.117907
C72   C     C_R   0.525980 0.151458 0.506283 -0.117907
C73   C     C_R   0.059381 0.316241 0.461585 -0.195766
C74   C     C_R   0.940619 0.683759 0.538415 -0.195766
C75   C     C_R   0.940910 0.683828 0.961569 -0.195723
C76   C     C_R   0.059090 0.316172 0.038431 -0.195723
C77   C     C_R   0.559096 0.183809 0.038431 -0.195750
C78   C     C_R   0.440904 0.816190 0.961569 -0.195750
C79   C     C_R   0.440483 0.816249 0.538411 -0.195749
C80   C     C_R   0.559517 0.183751 0.461589 -0.195749
Br1   Br    Br    0.234377 0.311544 0.598992 -0.558966
Br2   Br    Br    0.765623 0.688456 0.401008 -0.558966
Br3   Br    Br    0.765814 0.688663 0.098952 -0.559014
Br4   Br    Br    0.234186 0.311337 0.901048 -0.559014
Br5   Br    Br    0.734268 0.188603 0.901048 -0.559042
Br6   Br    Br    0.265732 0.811397 0.098952 -0.559042
Br7   Br    Br    0.265557 0.811579 0.401002 -0.558982
Br8   Br    Br    0.734443 0.188421 0.598998 -0.558982

loop_
_geom_bond_atom_site_label_1
_geom_bond_atom_site_label_2
_ccdc_geom_bond_type
C7    C10   S    
O14   V4    S    
C11   C27   A    
C60   C67   A    
C4    C13   S    
C44   C60   A    
H23   C23   S    
C19   C27   A    
C20   C28   A    
H17   C17   S    
C23   C31   A    
O4    C1    A    
C64   C71   A    
O9    C1    A    
C10   C34   A    
C9    C33   A    
H6    C78   S    
O8    C5    A    
H16   C31   S    
O5    V1    S    
C14   C38   A    
C71   C79   A    
C13   C37   A    
C72   C80   A    
C43   C59   A    
C42   C58   A    
C15   C39   A    
H12   C27   S    
C45   C53   A    
C59   C60   A    
C68   C76   A    
C47   C55   A    
H5    C77   S    
H20   C20   S    
C58   C65   A    
C9    C25   A    
C57   C66   A    
C39   C47   A    
H32   C72   S    
O1    C4    A    
O2    C3    A    
C19   C51   A    
C62   C69   A    
C61   C70   A    
C6    C11   S    
C46   C62   A    
O5    C8    A    
C41   C49   A    
C63   C72   A    
H8    C80   S    
O6    C7    A    
C21   C29   A    
C39   Br8   S    
C20   C52   A    
O7    C6    A    
H3    C75   S    
C2    C15   S    
H15   C32   S    
C56   C80   A    
C17   C25   A    
C16   C32   A    
O20   V2    S    
H27   C67   S    
C44   C52   A    
H26   C66   S    
H14   C29   S    
C53   C77   A    
C12   C28   A    
H13   C30   S    
C51   C75   A    
C37   C45   A    
H22   C22   S    
C49   C73   A    
O17   V3    S    
H1    C73   S    
O18   V4    S    
C33   C41   A    
O19   V1    S    
H4    C76   S    
C18   C50   A    
C5    C12   S    
O3    V4    S    
C17   C49   A    
O11   C3    A    
H11   C28   S    
C69   C77   A    
C24   C56   A    
C11   C35   A    
O10   C2    A    
H7    C79   S    
C22   C54   A    
C1    C16   S    
C21   C53   A    
O11   V2    S    
C33   Br2   S    
C38   C46   A    
H18   C18   S    
C15   C31   A    
H30   C70   S    
H10   C25   S    
O12   C4    A    
O6    V2    S    
C40   C48   A    
O4    V3    S    
H2    C74   S    
O9    V1    S    
C41   C57   A    
C14   C30   A    
C34   Br1   S    
C13   C29   A    
C36   C44   A    
H19   C19   S    
C48   C56   A    
C57   C58   A    
C18   C26   A    
O13   C5    A    
C50   C74   A    
C59   C68   A    
C67   C75   A    
C38   Br5   S    
O3    C2    A    
C47   C63   A    
O12   V1    S    
C65   C73   A    
O8    V1    S    
H21   C21   S    
C63   C64   A    
O15   C7    A    
C3    C14   S    
O16   C8    A    
C43   C51   A    
C42   C50   A    
C23   C55   A    
C45   C61   A    
O15   V4    S    
H24   C24   S    
O1    V3    S    
O16   V3    S    
O14   C6    A    
C24   C32   A    
O2    V4    S    
C61   C62   A    
C40   Br7   S    
C55   C79   A    
C46   C54   A    
C12   C36   A    
C34   C42   A    
O10   V2    S    
H9    C26   S    
O13   V3    S    
C52   C76   A    
C54   C78   A    
H25   C65   S    
C35   Br4   S    
C16   C40   A    
C70   C78   A    
C22   C30   A    
H28   C68   S    
H29   C69   S    
O7    V2    S    
C35   C43   A    
C36   Br3   S    
C66   C74   A    
H31   C71   S    
C37   Br6   S    
C10   C26   A    
C8    C9    S    
C48   C64   A    
