data_mof_unit_34659.cif
_audit_creation_date              2012-12-10T16:59:18-0500
_audit_creation_method            fapswitch 2.2
_symmetry_space_group_name_H-M    P1
_symmetry_Int_Tables_number       1
_space_group_crystal_system       triclinic
_cell_length_a                    7.75608
_cell_length_b                    8.575539
_cell_length_c                    27.71863
_cell_angle_alpha                 90.735317
_cell_angle_beta                  85.733269
_cell_angle_gamma                 94.036815
_cell_volume                      1833.9127735

loop_
_atom_site_label
_atom_site_type_symbol
_atom_type_description
_atom_site_fract_x
_atom_site_fract_y
_atom_site_fract_z
_atom_type_partial_charge
C1    C     C_R   0.546120 0.794873 0.498712 0.971966
C2    C     C_R   0.453879 0.205127 0.501288 0.971966
C3    C     C_R   0.507823 0.491941 0.897906 -0.058130
C4    C     C_R   0.492159 0.508089 0.102095 -0.058128
C5    C     C_R   0.591556 0.616346 0.870102 -0.070578
C6    C     C_R   0.408428 0.383683 0.129899 -0.070580
C7    C     C_R   0.648309 0.756270 0.893665 0.027628
C8    C     C_R   0.351671 0.243760 0.106336 0.027627
C9    C     C_R   0.428437 0.362373 0.874326 0.011605
C10   C     C_R   0.571548 0.637656 0.125675 0.011603
C11   C     C_R   0.506279 0.491605 0.646392 -0.039716
C12   C     C_R   0.493721 0.508401 0.353608 -0.039720
C13   C     C_R   0.571687 0.634603 0.023841 0.061221
C14   C     C_R   0.428290 0.365429 0.976160 0.061222
C15   C     C_R   0.427717 0.368502 0.027359 0.025335
C16   C     C_R   0.572259 0.631530 0.972642 0.025335
C17   C     C_R   0.496627 0.503795 0.050910 0.066428
C18   C     C_R   0.503352 0.496236 0.949091 0.066428
C19   C     C_R   0.646992 0.763450 0.049122 -0.223701
C20   C     C_R   0.352986 0.236582 0.950879 -0.223703
C21   C     C_R   0.645820 0.764784 0.098984 -0.181768
C22   C     C_R   0.354163 0.235246 0.901017 -0.181768
C23   C     C_R   0.502015 0.498552 0.593895 0.870586
C24   C     C_R   0.497985 0.501448 0.406105 0.870585
C25   C     C_R   0.635005 0.761860 0.944186 -0.265285
C26   C     C_R   0.364971 0.238172 0.055815 -0.265284
C27   C     C_2   0.570216 0.958592 0.497990 -0.374829
C28   C     C_2   0.429784 0.041408 0.502010 -0.374829
C29   C     C_R   0.613368 0.594450 0.819600 0.480574
C30   C     C_R   0.386622 0.405577 0.180401 0.480572
C31   C     C_R   0.423583 0.363777 0.824163 0.474613
C32   C     C_R   0.576409 0.636248 0.175838 0.474613
C33   C     C_R   0.663297 0.450594 0.716829 -0.116843
C34   C     C_R   0.336712 0.549451 0.283173 -0.116841
C35   C     C_R   0.659639 0.458397 0.666924 -0.215141
C36   C     C_R   0.340370 0.541641 0.333078 -0.215137
C37   C     C_R   0.356557 0.515980 0.676402 -0.213963
C38   C     C_R   0.643433 0.484002 0.323598 -0.213960
C39   C     C_R   0.360883 0.508838 0.726292 -0.109522
C40   C     C_R   0.639106 0.491152 0.273707 -0.109531
C41   C     C_R   0.514192 0.476492 0.746555 0.302165
C42   C     C_R   0.485806 0.523529 0.253445 0.302179
H1    H     H_    0.236706 0.541637 0.661435 0.165278
H2    H     H_    0.763274 0.458321 0.338564 0.165282
H3    H     H_    0.014049 0.383275 0.463540 0.192150
H4    H     H_    0.985950 0.616725 0.536460 0.192149
H5    H     H_    0.245760 0.530104 0.749329 0.149663
H6    H     H_    0.754219 0.469867 0.250669 0.149660
H7    H     H_    0.223402 0.561595 0.355477 0.163579
H8    H     H_    0.776617 0.438463 0.644525 0.163575
H9    H     H_    0.217695 0.573748 0.267623 0.138922
H10   H     H_    0.782321 0.426319 0.732379 0.138933
H11   H     H_    0.702030 0.867595 0.116634 0.174506
H12   H     H_    0.297953 0.132434 0.883367 0.174509
H13   H     H_    0.712185 0.864865 0.031749 0.137826
H14   H     H_    0.287791 0.135167 0.968252 0.137827
H15   H     H_    0.669442 0.873371 0.960298 0.140687
H16   H     H_    0.330530 0.126662 0.039703 0.140687
H17   H     H_    0.702562 0.010405 0.494170 0.180341
H18   H     H_    0.297437 0.989595 0.505830 0.180341
N1    N     N_R   0.519186 0.476706 0.797869 -0.350495
N2    N     N_R   0.480808 0.523318 0.202132 -0.350497
N3    N     N_2   0.950320 0.457960 0.486880 -0.177138
N4    N     N_2   0.049680 0.542040 0.513120 -0.177139
O1    O     O_R   0.389250 0.738570 0.503220 -0.611858
O2    O     O_R   0.610750 0.261430 0.496780 -0.611858
O3    O     O_R   0.678390 0.711630 0.494810 -0.628281
O4    O     O_R   0.321610 0.288370 0.505190 -0.628280
O5    O     O_R   0.355440 0.513440 0.575450 -0.620996
O6    O     O_R   0.644560 0.486560 0.424550 -0.620995
O7    O     O_R   0.644590 0.486500 0.567040 -0.630687
O8    O     O_R   0.355410 0.513500 0.432960 -0.630687
O9    O     O_2   0.728515 0.687445 0.792372 -0.563816
O10   O     O_2   0.271476 0.312583 0.207630 -0.563811
O11   O     O_2   0.672915 0.748211 0.198329 -0.597884
O12   O     O_2   0.327080 0.251812 0.801671 -0.597888
Zn1   Zn    Zn3+2 0.306940 0.517990 0.505620 0.947565
Zn2   Zn    Zn3+2 0.693060 0.482010 0.494380 0.947566
C43   C     C_R   0.708763 0.903915 0.867591 0.164288
C44   C     C_R   0.615321 0.960048 0.830539 -0.048890
C45   C     C_R   0.679164 0.092787 0.804457 -0.102558
C46   C     C_R   0.826121 0.180272 0.818239 -0.108641
C47   C     C_R   0.912989 0.132031 0.857051 -0.088969
C48   C     C_R   0.857624 0.992864 0.880967 -0.179505
H19   H     H_    0.496621 0.897790 0.820619 0.136813
H20   H     H_    0.613382 0.129035 0.773880 0.172971
H21   H     H_    0.872398 0.285923 0.799114 0.139863
H22   H     H_    0.023830 0.202450 0.868279 0.158499
H23   H     H_    0.930788 0.954821 0.909920 0.124116
C49   C     C_R   0.291218 0.096115 0.132410 0.164292
C50   C     C_R   0.142355 0.007167 0.119035 -0.179508
C51   C     C_R   0.086993 0.867998 0.142950 -0.088964
C52   C     C_R   0.173866 0.819754 0.181760 -0.108639
C53   C     C_R   0.320825 0.907238 0.195542 -0.102570
C54   C     C_R   0.384665 0.039979 0.169460 -0.048893
H24   H     H_    0.069188 0.045212 0.090082 0.124116
H25   H     H_    0.976151 0.797580 0.131722 0.158501
H26   H     H_    0.127592 0.714101 0.200885 0.139867
H27   H     H_    0.386611 0.870988 0.226118 0.172970
H28   H     H_    0.503366 0.102237 0.179379 0.136810

loop_
_geom_bond_atom_site_label_1
_geom_bond_atom_site_label_2
_ccdc_geom_bond_type
C21   H11   S    
C52   C53   A    
O6    Zn2   S    
C8    C26   A    
N4    Zn1   S    
C31   N1    A    
O5    Zn1   S    
C34   C42   A    
C41   N1    S    
C20   H14   S    
C32   O11   S    
C45   C46   A    
C49   C50   A    
C24   O6    A    
C49   C54   A    
C39   C41   A    
C33   H10   S    
C34   H9    S    
O8    Zn1   S    
C39   H5    S    
C19   C21   A    
C2    O4    A    
C43   C48   A    
C30   O10   S    
C9    C22   A    
C29   O9    S    
C46   H21   S    
O4    Zn1   S    
C3    C18   A    
C40   H6    S    
C11   C37   A    
C14   C18   A    
C33   C35   A    
C50   H24   S    
C1    O1    A    
C12   C36   A    
C42   N2    S    
C45   H20   S    
C40   C42   A    
C47   H22   S    
O3    Zn2   S    
C25   H15   S    
C51   H25   S    
C5    C29   A    
C28   H18   S    
C10   C21   A    
O2    Zn2   S    
C29   N1    A    
O1    Zn1   S    
C13   C19   A    
C14   C20   A    
C22   H12   S    
C50   C51   A    
C5    C7    A    
C54   H28   S    
C15   C26   A    
C6    C8    A    
C2    O2    A    
C23   O5    A    
H3    N3    S    
N3    N4    D    
H4    N4    S    
C37   H1    S    
C38   H2    S    
C44   H19   S    
C3    C9    A    
C23   O7    A    
C47   C48   A    
C35   H8    S    
C26   H16   S    
C4    C17   A    
C4    C6    A    
C6    C30   A    
C20   C22   A    
C30   N2    A    
C8    C49   S    
C48   H23   S    
C4    C10   A    
C24   O8    A    
C7    C43   S    
C19   H13   S    
C16   C25   A    
C15   C17   A    
C44   C45   A    
C3    C5    A    
C12   C24   S    
C7    C25   A    
C13   C17   A    
C33   C41   A    
C11   C35   A    
C32   N2    A    
C37   C39   A    
C27   H17   S    
C38   C40   A    
C31   O12   S    
C53   H27   S    
C11   C23   S    
C51   C52   A    
C1    O3    A    
C34   C36   A    
C12   C38   A    
C53   C54   A    
C9    C31   A    
C43   C44   A    
C10   C32   A    
C16   C18   A    
C46   C47   A    
C13   C16   A    
C27   C28   D    
C1    C27   S    
C14   C15   A    
C2    C28   S    
C52   H26   S    
O7    Zn2   S    
C36   H7    S    
N3    Zn2   S    
