data_mof_unit_53373.cif
_audit_creation_date              2012-12-10T16:50:13-0500
_audit_creation_method            fapswitch 2.2
_symmetry_space_group_name_H-M    P1
_symmetry_Int_Tables_number       1
_space_group_crystal_system       triclinic
_cell_length_a                    23.500002
_cell_length_b                    8.720675
_cell_length_c                    7.419261
_cell_angle_alpha                 102.718626
_cell_angle_beta                  94.219834
_cell_angle_gamma                 92.370425
_cell_volume                      1476.55275937

loop_
_atom_site_label
_atom_site_type_symbol
_atom_type_description
_atom_site_fract_x
_atom_site_fract_y
_atom_site_fract_z
_atom_type_partial_charge
C1    C     C_R   0.497018 0.200194 0.454335 0.851694
C2    C     C_R   0.502985 0.799806 0.545664 0.851683
C3    C     C_R   0.234679 0.497513 0.345448 -0.094294
C4    C     C_R   0.765316 0.502284 0.654515 -0.094371
C5    C     C_R   0.293780 0.496193 0.342721 -0.166248
C6    C     C_R   0.706214 0.503564 0.657230 -0.166176
C7    C     C_R   0.328550 0.502655 0.507066 -0.028410
C8    C     C_R   0.671449 0.497357 0.492937 -0.028442
C9    C     C_R   0.303080 0.511161 0.674366 -0.211343
C10   C     C_R   0.696926 0.489143 0.325696 -0.211332
C11   C     C_R   0.243779 0.512218 0.676609 -0.078010
C12   C     C_R   0.756228 0.488124 0.323465 -0.077987
C13   C     C_R   0.209493 0.505157 0.512005 0.347985
C14   C     C_R   0.790507 0.494932 0.488018 0.348046
C15   C     C_2   0.487102 0.034513 0.435760 -0.267914
C16   C     C_2   0.512904 0.965486 0.564236 -0.267934
C17   C     C_R   0.390969 0.500518 0.502476 0.818255
C18   C     C_R   0.609031 0.499482 0.497524 0.818272
C19   C     C_R   0.883154 0.631624 0.568178 0.561966
C20   C     C_R   0.116843 0.368470 0.431873 0.561945
C21   C     C_R   0.876368 0.360825 0.410075 0.560059
C22   C     C_R   0.123631 0.639280 0.589937 0.560048
C23   C     C_R   0.936638 0.355328 0.420896 -0.087362
C24   C     C_R   0.063360 0.644773 0.579132 -0.087351
C25   C     C_R   0.969841 0.497735 0.498205 -0.020324
C26   C     C_R   0.030156 0.502365 0.501830 -0.020324
C27   C     C_R   0.942801 0.635954 0.572448 -0.038078
C28   C     C_R   0.057196 0.364144 0.427596 -0.038069
C29   C     C_R   0.965103 0.215529 0.353996 -0.035981
C30   C     C_R   0.034894 0.784571 0.646040 -0.035971
C31   C     C_R   0.024564 0.223382 0.353506 -0.165465
C32   C     C_R   0.975433 0.776715 0.646541 -0.165473
Cu1   Cu    Cu3+1 0.506340 0.517380 0.684380 1.011887
Cu2   Cu    Cu3+1 0.493660 0.482620 0.315620 1.011876
H1    H     H_    0.045645 0.116320 0.300690 0.234044
H2    H     H_    0.954352 0.883776 0.699363 0.234027
H3    H     H_    0.208309 0.492393 0.217985 0.140420
H4    H     H_    0.791683 0.507206 0.781933 0.140395
H5    H     H_    0.312147 0.490160 0.211830 0.162651
H6    H     H_    0.687842 0.509362 0.788071 0.162690
H7    H     H_    0.328850 0.516270 0.802972 0.159899
H8    H     H_    0.671160 0.484242 0.197135 0.159861
H9    H     H_    0.224421 0.517690 0.805744 0.141621
H10   H     H_    0.775592 0.482877 0.194381 0.141550
H11   H     H_    0.455195 0.379173 0.948460 0.233972
H12   H     H_    0.544805 0.620827 0.051540 0.233978
N1    N     N_R   0.851466 0.495973 0.487542 -0.477478
N2    N     N_R   0.148533 0.504126 0.512486 -0.477462
N3    N     N_2   0.484110 0.456420 0.038520 -0.204461
N4    N     N_2   0.515890 0.543580 0.961480 -0.204449
O1    O     O_R   0.504120 0.286130 0.619770 -0.580988
O2    O     O_R   0.495880 0.713870 0.380230 -0.581003
O3    O     O_R   0.493410 0.256770 0.308360 -0.537952
O4    O     O_R   0.506590 0.743230 0.691640 -0.537915
O5    O     O_R   0.423230 0.514630 0.655730 -0.601236
O6    O     O_R   0.576770 0.485370 0.344270 -0.601222
O7    O     O_R   0.412530 0.485280 0.344320 -0.574922
O8    O     O_R   0.587470 0.514720 0.655680 -0.574914
O9    O     O_2   0.856758 0.762675 0.641896 -0.485902
O10   O     O_2   0.143238 0.237406 0.358188 -0.485913
O11   O     O_2   0.842581 0.234273 0.320635 -0.484793
O12   O     O_2   0.157418 0.765844 0.679339 -0.484818
C33   C     C_2   0.936068 0.056301 0.293784 0.922961
O13   O     O_2   0.903925 0.007979 0.394013 -0.533864
O14   O     O_R   0.948470 0.957799 0.127287 -0.731060
H13   H     H_    0.927126 0.850818 0.102666 0.339614
C34   C     C_2   0.063928 0.943799 0.706262 0.922961
O15   O     O_2   0.096064 0.992137 0.606024 -0.533847
O16   O     O_R   0.051533 0.042282 0.872780 -0.731061
H14   H     H_    0.072876 0.149266 0.897407 0.339608
C35   C     C_2   0.440372 0.955995 0.293688 0.880099
O17   O     O_2   0.401136 0.878943 0.337635 -0.591921
O18   O     O_R   0.440724 0.974369 0.111220 -0.705372
H15   H     H_    0.406897 0.916022 0.027996 0.336272
C36   C     C_2   0.559639 0.044001 0.706298 0.880095
O19   O     O_2   0.598861 0.121107 0.662365 -0.591931
O20   O     O_R   0.559307 0.025549 0.888741 -0.705376
H16   H     H_    0.593137 0.083896 0.971954 0.336288

loop_
_geom_bond_atom_site_label_1
_geom_bond_atom_site_label_2
_ccdc_geom_bond_type
Cu1   O5    S    
C22   N2    A    
C33   O14   S    
Cu2   O6    S    
Cu1   O8    S    
C10   H8    S    
C16   C36   S    
O18   H15   S    
C29   C33   S    
O20   H16   S    
C23   C29   A    
C24   C26   A    
C19   N1    A    
C15   C16   D    
C1    O3    A    
C18   O8    A    
C7    C17   S    
Cu2   O7    S    
C11   H9    S    
C1    C15   S    
C20   O10   S    
C2    C16   S    
C17   O5    A    
C21   O11   S    
C30   C34   S    
C3    C13   A    
C18   O6    A    
C10   C12   A    
C26   C28   A    
C34   O15   D    
C6    H6    S    
C4    C6    A    
C2    O4    A    
C5    C7    A    
C6    C8    A    
C20   C28   A    
C19   O9    S    
C25   C26   A    
C8    C18   S    
C34   O16   S    
C36   O19   D    
C22   O12   S    
C9    C11   A    
H11   N3    S    
Cu1   Cu2   S    
C36   O20   S    
C20   N2    A    
C2    O2    A    
C8    C10   A    
C12   C14   A    
N3    N4    D    
C21   C23   A    
C31   H1    S    
Cu1   O1    S    
C32   H2    S    
C19   C27   A    
C35   O18   S    
Cu1   O4    S    
C7    C9    A    
Cu2   N3    S    
C27   C32   A    
Cu2   O2    S    
C28   C31   A    
C4    H4    S    
C3    C5    A    
C13   N2    S    
C14   N1    S    
C25   C27   A    
C15   C35   S    
H12   N4    S    
C9    H7    S    
C1    O1    A    
C5    H5    S    
Cu1   N4    S    
C35   O17   D    
C29   C31   A    
C30   C32   A    
C11   C13   A    
C22   C24   A    
C23   C25   A    
C4    C14   A    
O16   H14   S    
C24   C30   A    
C33   O13   D    
C3    H3    S    
Cu2   O3    S    
C12   H10   S    
O14   H13   S    
C17   O7    A    
C21   N1    A    
