data_mof_unit_24091.cif
_audit_creation_date              2012-12-10T17:36:18-0500
_audit_creation_method            fapswitch 2.2
_symmetry_space_group_name_H-M    P1
_symmetry_Int_Tables_number       1
_space_group_crystal_system       triclinic
_cell_length_a                    12.311414
_cell_length_b                    13.104886
_cell_length_c                    15.8634
_cell_angle_alpha                 78.192238
_cell_angle_beta                  100.980753
_cell_angle_gamma                 116.508021
_cell_volume                      2227.45911041

loop_
_atom_site_label
_atom_site_type_symbol
_atom_type_description
_atom_site_fract_x
_atom_site_fract_y
_atom_site_fract_z
_atom_type_partial_charge
C1    C     C_R   0.854732 0.286682 0.503131 0.799898
C2    C     C_3   0.097628 0.460746 0.069379 0.391592
C3    C     C_3   0.997798 0.495773 0.083014 0.161224
C4    C     C_3   0.024686 0.618262 0.032857 -0.499871
C5    C     C_3   0.033155 0.621818 0.935867 -0.415726
C6    C     C_1   0.999083 0.496763 0.175396 -0.027328
C7    C     C_1   0.996986 0.499730 0.824296 -0.003182
C8    C     C_1   0.998180 0.500222 0.748863 -0.167806
C9    C     C_R   0.267161 0.039011 0.445263 0.440459
C10   C     C_R   0.227351 0.837064 0.474194 -0.241622
C11   C     C_R   0.817624 0.081493 0.527062 -0.282919
C12   C     C_R   0.999538 0.500120 0.659492 0.828059
C13   C     C_R   0.739587 0.965410 0.535773 -0.232681
C14   C     C_R   0.613114 0.928383 0.517471 0.509834
C15   C     C_R   0.563244 0.009465 0.478074 0.016765
C16   C     C_R   0.645630 0.127269 0.462882 -0.037165
C17   C     C_R   0.435126 0.980659 0.459618 -0.048933
C18   C     C_R   0.392550 0.068752 0.440064 -0.124502
C19   C     C_R   0.475965 0.182556 0.414176 0.522506
C20   C     C_R   0.599069 0.206091 0.417534 -0.284425
C21   C     C_R   0.347400 0.867061 0.461710 -0.278865
C22   C     C_R   0.188641 0.923563 0.472332 0.391609
C23   C     C_R   0.145145 0.713999 0.488321 0.863100
C24   C     C_R   0.771847 0.164050 0.495274 -0.080752
C25   C     C_R   0.346440 0.329016 0.639687 0.422499
C26   C     C_R   0.758107 0.643226 0.382331 0.033864
C27   C     C_R   0.661832 0.675229 0.357373 -0.297764
C28   C     C_R   0.559450 0.621935 0.402421 -0.156018
C29   C     C_R   0.551912 0.535019 0.473289 0.065028
C30   C     C_R   0.653587 0.506010 0.496953 0.296935
C31   C     C_R   0.447572 0.475498 0.521066 -0.060504
C32   C     C_R   0.446976 0.388327 0.591201 0.074844
C33   C     C_R   0.547503 0.362112 0.613057 -0.210608
C34   C     C_R   0.000294 0.499735 0.340424 0.801446
C35   C     C_R   0.648049 0.419648 0.567329 -0.174813
C36   C     C_R   0.342928 0.498358 0.502294 0.031432
C37   C     C_R   0.245218 0.354542 0.615692 -0.017294
C38   C     C_3   0.095790 0.461913 0.970931 -0.539972
C39   C     C_3   0.862380 0.419207 0.944490 0.944884
C40   C     C_3   0.870384 0.409736 0.045708 -0.447909
C41   C     C_1   0.000091 0.498060 0.250941 -0.182158
C42   C     C_3   0.995496 0.497769 0.916546 0.154232
Cu1   Cu    Cu3+1 0.098280 0.475420 0.519630 0.940956
Cu2   Cu    Cu3+1 0.901720 0.524580 0.480370 0.930311
H1    H     H_    0.950944 0.642961 0.038197 0.208046
H2    H     H_    0.088685 0.379748 0.957260 0.186541
H3    H     H_    0.658697 0.288658 0.387196 0.181578
H4    H     H_    0.487697 0.650126 0.380045 0.135170
H5    H     H_    0.719392 0.392690 0.589857 0.205134
H6    H     H_    0.111955 0.682772 0.061734 0.169981
N1    N     N_R   0.246300 0.438200 0.549400 -0.213288
N2    N     N_R   0.754300 0.561180 0.451130 -0.209079
O1    O     O_R   0.972520 0.318130 0.524690 -0.574597
O2    O     O_R   0.806530 0.359650 0.491530 -0.608858
O3    O     O_R   0.083030 0.479240 0.637150 -0.584135
O4    O     O_R   0.917040 0.520750 0.603990 -0.581307
O5    O     O_R   0.193470 0.640350 0.508470 -0.586624
O6    O     O_R   0.027480 0.681870 0.475310 -0.556085
O7    O     O_R   0.082960 0.479250 0.396010 -0.571929
O8    O     O_R   0.916970 0.520760 0.362850 -0.598471
O9    O     O_3   0.076410 0.349664 0.115139 -0.576254
C43   C     C_3   0.187191 0.338093 0.138763 -0.393447
H7    H     H_    0.242873 0.389565 0.191865 0.167051
H8    H     H_    0.240496 0.363445 0.082705 0.156680
H9    H     H_    0.165885 0.246384 0.162823 0.184306
H10   H     H_    0.186902 0.525375 0.951336 0.146126
H11   H     H_    0.187698 0.527620 0.093671 0.076373
O10   O     O_3   0.085965 0.896996 0.511620 -0.547939
C44   C     C_3   0.988260 0.899481 0.449679 -0.219736
H12   H     H_    0.901777 0.835086 0.475004 0.185198
H13   H     H_    0.989704 0.877097 0.385907 0.104373
H14   H     H_    0.985810 0.984486 0.442117 0.187138
O11   O     O_3   0.439092 0.271609 0.395198 -0.528872
C45   C     C_3   0.478500 0.341816 0.316640 -0.371143
H15   H     H_    0.470415 0.291018 0.265520 0.131531
H16   H     H_    0.573232 0.408630 0.327556 0.184423
H17   H     H_    0.419642 0.387903 0.292211 0.185409
O12   O     O_3   0.224137 0.122651 0.433409 -0.515692
C46   C     C_3   0.183106 0.141889 0.344509 -0.259354
H18   H     H_    0.249893 0.153594 0.300958 0.144100
H19   H     H_    0.168487 0.221492 0.332707 0.208289
H20   H     H_    0.095199 0.070635 0.325392 0.112122
H21   H     H_    0.370893 0.800204 0.453295 0.233650
H22   H     H_    0.913845 0.106594 0.548814 0.195033
O13   O     O_3   0.541449 0.812576 0.539199 -0.609805
C47   C     C_3   0.523344 0.791976 0.627351 -0.322334
H23   H     H_    0.479785 0.844448 0.640919 0.174551
H24   H     H_    0.610678 0.808371 0.670110 0.161707
H25   H     H_    0.460635 0.700017 0.643262 0.196166
H26   H     H_    0.776940 0.903300 0.562718 0.170466
H27   H     H_    0.165022 0.307581 0.649713 0.139333
H28   H     H_    0.549481 0.296378 0.666566 0.194300
O14   O     O_3   0.344881 0.241389 0.706119 -0.567598
C48   C     C_3   0.340546 0.271594 0.785463 -0.380354
H29   H     H_    0.362977 0.212613 0.839148 0.197480
H30   H     H_    0.408819 0.360932 0.794493 0.140899
H31   H     H_    0.247273 0.260828 0.790925 0.164009
H32   H     H_    0.335682 0.563295 0.450629 0.134980
H33   H     H_    0.836913 0.684559 0.346708 0.128281
H34   H     H_    0.666480 0.741404 0.302814 0.145034
O15   O     O_3   0.790832 0.481790 0.906727 -0.608452
C49   C     C_3   0.663231 0.412838 0.902228 -0.271437
H35   H     H_    0.635532 0.349114 0.961214 0.150049
H36   H     H_    0.631672 0.367848 0.843959 0.210530
H37   H     H_    0.616302 0.469795 0.895272 0.153251
O16   O     O_3   0.803730 0.309409 0.912980 -0.601051
C50   C     C_3   0.863965 0.236492 0.937003 -0.415648
H38   H     H_    0.911425 0.239431 0.003526 0.207023
H39   H     H_    0.926008 0.253692 0.888327 0.178901
H40   H     H_    0.794113 0.146587 0.934838 0.199088
H41   H     H_    0.849967 0.320885 0.078409 0.178892
H42   H     H_    0.799615 0.430360 0.062951 0.154100
H43   H     H_    0.128301 0.678995 0.920843 0.173443
H44   H     H_    0.974825 0.661657 0.894227 0.224098

loop_
_geom_bond_atom_site_label_1
_geom_bond_atom_site_label_2
_ccdc_geom_bond_type
C39   O16   S    
C5    C42   S    
C25   O14   S    
O14   C48   S    
C13   H26   S    
C23   O6    A    
O11   C45   S    
C19   C20   A    
C1    O2    A    
C3    C6    S    
C7    C8    T    
C40   H42   S    
O13   C47   S    
C10   C22   A    
C26   C27   A    
O15   C49   S    
C45   H16   S    
C30   C35   A    
C28   C29   A    
C38   C42   S    
C44   H12   S    
C37   N1    A    
C47   H24   S    
C9    C22   A    
O16   C50   S    
C15   C16   A    
C11   C24   A    
C49   H37   S    
C23   O5    A    
C18   C19   A    
C7    C42   S    
C44   H13   S    
C1    O1    A    
C43   H8    S    
C25   C37   A    
Cu1   O1    S    
C21   H21   S    
Cu2   O6    S    
O10   C44   S    
C45   H17   S    
C35   H5    S    
C50   H38   S    
C8    C12   S    
C39   C42   S    
C2    O9    S    
Cu1   O7    S    
C26   H33   S    
Cu2   N2    S    
C25   C32   A    
C16   C24   A    
C13   C14   A    
C34   O8    A    
C50   H39   S    
C48   H29   S    
C34   C41   S    
C39   O15   S    
C40   H41   S    
C4    H1    S    
C10   C21   A    
C27   H34   S    
C45   H15   S    
C37   H27   S    
C49   H35   S    
C20   H3    S    
C38   H10   S    
C19   O11   S    
C2    H11   S    
C33   H28   S    
C39   C40   S    
C46   H19   S    
C47   H23   S    
C48   H31   S    
C6    C41   T    
C17   C21   A    
C4    H6    S    
C44   H14   S    
C48   H30   S    
Cu1   Cu2   S    
C29   C30   A    
C26   N2    A    
C2    C38   S    
C31   C32   A    
C14   C15   A    
C16   C20   A    
C43   H7    S    
C17   C18   A    
C49   H36   S    
C22   O10   S    
C12   O4    A    
C36   N1    A    
Cu1   O3    S    
C3    C40   S    
C34   O7    A    
C11   H22   S    
C50   H40   S    
C3    C4    S    
C15   C17   A    
C30   N2    A    
C28   H4    S    
C43   H9    S    
C5    H43   S    
O12   C46   S    
C14   O13   S    
C4    C5    S    
C47   H25   S    
C46   H20   S    
C10   C23   S    
C32   C33   A    
C5    H44   S    
C2    C3    S    
C29   C31   A    
Cu2   O4    S    
C11   C13   A    
Cu1   N1    S    
Cu2   O8    S    
C33   C35   A    
C9    O12   S    
O9    C43   S    
C38   H2    S    
C12   O3    A    
Cu1   O5    S    
C46   H18   S    
Cu2   O2    S    
C9    C18   A    
C1    C24   S    
C27   C28   A    
C31   C36   A    
C36   H32   S    
