data_mof_unit_9852.cif
_audit_creation_date              2012-12-11T15:20:34-0500
_audit_creation_method            fapswitch 2.2
_symmetry_space_group_name_H-M    P1
_symmetry_Int_Tables_number       1
_space_group_crystal_system       triclinic
_cell_length_a                    12.83223
_cell_length_b                    13.267817
_cell_length_c                    15.197735
_cell_angle_alpha                 116.161753
_cell_angle_beta                  63.463184
_cell_angle_gamma                 96.930452
_cell_volume                      2068.33998703

loop_
_atom_site_label
_atom_site_type_symbol
_atom_type_description
_atom_site_fract_x
_atom_site_fract_y
_atom_site_fract_z
_atom_type_partial_charge
C1    C     C_R   0.065282 0.816323 0.983171 -0.156189
C2    C     C_R   0.320170 0.549762 0.775580 0.424294
C3    C     C_R   0.245617 0.479329 0.106738 0.158388
C4    C     C_R   0.704218 0.399684 0.206625 -0.142327
C5    C     C_R   0.008602 0.290576 0.687368 -0.125396
C6    C     C_R   0.335815 0.545352 0.081037 0.032225
C7    C     C_R   0.969056 0.188751 0.682592 0.002660
C8    C     C_R   0.329440 0.482726 0.670431 0.019635
C9    C     C_R   0.969489 0.174281 0.082246 0.057879
C10   C     C_R   0.892778 0.020596 0.456085 -0.072905
C11   C     C_R   0.901657 0.112268 0.542151 -0.175725
C12   C     C_R   0.714641 0.413057 0.297725 0.132507
C13   C     C_R   0.965482 0.097181 0.590279 -0.039554
C14   C     C_R   0.021372 0.992522 0.553887 0.452808
C15   C     C_R   0.010420 0.901571 0.469805 -0.210193
C16   C     C_R   0.740432 0.588368 0.958721 -0.097691
C17   C     C_R   0.946769 0.916143 0.421419 0.098423
C18   C     C_R   0.647523 0.397182 0.472571 0.465214
C19   C     C_R   0.543824 0.428545 0.568732 -0.249626
C20   C     C_R   0.436567 0.437016 0.566836 -0.061593
C21   C     C_R   0.433096 0.388062 0.464485 0.426027
C22   C     C_R   0.534621 0.328567 0.371128 0.038681
C23   C     C_R   0.636454 0.572124 0.034034 0.110144
C24   C     C_R   0.641307 0.363867 0.373703 -0.156080
C25   C     C_2   0.426658 0.574974 0.118238 -0.159805
C26   C     C_2   0.521231 0.617661 0.066258 -0.158719
C27   C     C_2   0.007846 0.912428 0.892255 0.052713
C28   C     C_R   0.939819 0.716842 0.315279 -0.210523
C29   C     C_2   0.098761 0.958244 0.838976 0.291879
C30   C     C_R   0.660164 0.487879 0.054413 -0.114165
C31   C     C_R   0.029027 0.818353 0.221372 0.469247
C32   C     C_R   0.806015 0.480135 0.300891 -0.088355
C33   C     C_R   0.968458 0.724345 0.885975 0.444033
C34   C     C_R   0.954881 0.824480 0.323729 -0.061374
C35   C     C_R   0.020401 0.820613 0.916257 -0.099544
C36   C     C_3   0.724249 0.186605 0.904543 -0.964546
C37   C     C_3   0.277512 0.343763 0.158850 -0.835861
C38   C     C_3   0.452578 0.155329 0.291748 -0.759236
C39   C     C_3   0.846295 0.902409 0.845212 -0.751561
C40   C     C_3   0.297368 0.005362 0.777824 -0.789473
C41   C     C_R   0.321232 0.582322 0.015748 -0.082891
C42   C     C_R   0.925061 0.192228 0.784514 0.275964
C43   C     C_R   0.218145 0.454444 0.682660 -0.071570
C44   C     C_R   0.032652 0.266188 0.107028 -0.097186
C45   C     C_R   0.926635 0.187700 0.018631 -0.133814
Cl1   Cl    Cl    0.420807 0.643747 0.806761 -0.688385
Cl2   Cl    Cl    0.110048 0.973455 0.607802 -0.684821
Cl3   Cl    Cl    0.780833 0.392381 0.478077 -0.644094
Cl4   Cl    Cl    0.318121 0.420510 0.444285 -0.641508
Cl5   Cl    Cl    0.114547 0.925605 0.197334 -0.682734
Cl6   Cl    Cl    0.967310 0.653229 0.757535 -0.625945
H1    H     H_    0.126165 0.871710 0.006685 0.199397
H2    H     H_    0.548358 0.450107 0.644218 0.219619
H3    H     H_    0.428435 0.537319 0.167922 0.149364
H4    H     H_    0.518662 0.661412 0.021477 0.152652
H5    H     H_    0.751984 0.646785 0.923959 0.142104
H6    H     H_    0.895864 0.691537 0.380785 0.154990
H7    H     H_    0.599824 0.451149 0.106333 0.109968
H8    H     H_    0.846611 0.499617 0.354400 0.167751
H9    H     H_    0.361365 0.651647 0.998623 0.184215
H10   H     H_    0.830832 0.053595 0.761276 0.182489
H11   H     H_    0.660355 0.127123 0.925856 0.257160
H12   H     H_    0.191910 0.401360 0.620415 0.179811
H13   H     H_    0.691767 0.230704 0.872803 0.264243
H14   H     H_    0.729840 0.248222 0.979958 0.251021
H15   H     H_    0.209331 0.509812 0.262612 0.204530
H16   H     H_    0.238859 0.316914 0.225755 0.291829
H17   H     H_    0.370189 0.358417 0.141741 0.243024
H18   H     H_    0.274747 0.274463 0.084494 0.239588
H19   H     H_    0.612495 0.202459 0.213053 0.162486
H20   H     H_    0.458073 0.090802 0.211845 0.244476
H21   H     H_    0.360418 0.192169 0.344633 0.286904
H22   H     H_    0.478037 0.113110 0.329190 0.229270
H23   H     H_    0.062004 0.291622 0.169377 0.161745
H24   H     H_    0.832305 0.953126 0.999810 0.158622
H25   H     H_    0.769423 0.957303 0.872043 0.226206
H26   H     H_    0.812500 0.820656 0.841500 0.272667
H27   H     H_    0.913595 0.892795 0.763466 0.291918
H28   H     H_    0.236161 0.881919 0.835225 0.187342
H29   H     H_    0.388930 0.968856 0.739817 0.253481
H30   H     H_    0.280437 0.081824 0.855409 0.221915
H31   H     H_    0.286792 0.029147 0.720495 0.281048
H32   H     H_    0.854073 0.147766 0.004609 0.145687
H33   H     H_    0.031075 0.320649 0.626160 0.164909
H34   H     H_    0.846316 0.030832 0.415571 0.147881
H35   H     H_    0.858933 0.194047 0.571537 0.177359
H36   H     H_    0.648972 0.346328 0.172660 0.106625
H37   H     H_    0.056097 0.820628 0.438663 0.175918
N1    N     N_R   0.037310 0.720000 0.995790 -0.064543
N2    N     N_R   0.824890 0.517960 0.936420 -0.037829
N3    N     N_R   0.003210 0.648190 0.211380 -0.069066
N4    N     N_R   0.774330 0.457010 0.995840 -0.054931
N5    N     N_R   0.053760 0.709140 0.151960 -0.082666
N6    N     N_R   0.853860 0.498840 0.211410 -0.051520
N7    N     N_R   0.974240 0.667310 0.936390 -0.092588
N8    N     N_R   0.225670 0.542990 0.004160 -0.068576
N9    N     N_2   0.837448 0.125565 0.823054 -0.113864
N10   N     N_2   0.211505 0.445504 0.191443 -0.124524
N11   N     N_2   0.530862 0.240463 0.274934 -0.098843
N12   N     N_R   0.946240 0.290860 0.848040 -0.065047
N13   N     N_2   0.891553 0.950998 0.925433 -0.132714
N14   N     N_2   0.218007 0.923231 0.799353 -0.097927
N15   N     N_R   0.146140 0.501160 0.788590 -0.069620
N16   N     N_R   0.025760 0.332690 0.063610 -0.049970
N17   N     N_R   0.962690 0.280000 0.004210 -0.044801
N18   N     N_R   0.209210 0.553840 0.847990 -0.090415
N19   N     N_R   0.175110 0.482040 0.063580 -0.071550
N20   N     N_R   0.996790 0.351810 0.788620 -0.060244
N21   N     N_R   0.790790 0.446160 0.152010 -0.050049
Ni1   Ni    Ni4+2 0.130310 0.630310 0.999970 0.268648
Ni2   Ni    Ni4+2 0.869690 0.369690 0.000030 0.204223
Ni3   Ni    Ni4+2 0.985640 0.509470 0.863740 0.288897
Ni4   Ni    Ni4+2 0.014360 0.490530 0.136260 0.219976

loop_
_geom_bond_atom_site_label_1
_geom_bond_atom_site_label_2
_ccdc_geom_bond_type
C32   N6    A    
C4    N21   A    
C10   H34   S    
C16   N2    A    
C37   H18   S    
C27   C29   D    
C19   C20   A    
C8    C43   A    
N2    Ni3   S    
C3    C6    A    
C26   H4    S    
C21   Cl4   S    
C44   N16   A    
C43   H12   S    
C4    H36   S    
C28   H6    S    
C2    Cl1   S    
C9    C45   A    
C8    C20   S    
C18   C24   A    
C39   H26   S    
C21   C22   A    
N7    Ni3   S    
N21   Ni2   S    
C7    C42   A    
C6    C25   S    
C11   H35   S    
C37   H17   S    
C30   H7    S    
C18   C19   A    
C23   C26   S    
C37   N10   S    
N19   Ni4   S    
C6    C41   A    
C40   H29   S    
H28   N14   S    
C36   N9    S    
C4    C12   A    
N5    Ni1   S    
C19   H2    S    
N17   Ni2   S    
C28   C34   A    
C13   C14   A    
C12   C32   A    
C45   H32   S    
C36   H11   S    
C33   N7    A    
N16   N17   A    
N6    Ni4   S    
C45   N17   A    
C39   N13   S    
C38   H21   S    
N12   N20   A    
C23   C30   A    
C40   H31   S    
C25   H3    S    
C30   N4    A    
C42   N9    S    
C5    C7    A    
C5    H33   S    
C36   H14   S    
C3    N19   A    
C25   C26   D    
C31   N5    A    
N8    Ni1   S    
N1    Ni1   S    
C27   N13   S    
N20   Ni3   S    
N15   Ni3   S    
N15   N18   A    
N1    N7    A    
C16   H5    S    
C42   N12   A    
N3    N5    A    
N2    N4    A    
C31   C34   A    
C39   H25   S    
C44   H23   S    
N8    N19   A    
C16   C23   A    
C22   C24   A    
C17   C34   S    
C31   Cl5   S    
H19   N11   S    
C1    C35   A    
N18   Ni1   S    
C15   C17   A    
C38   H20   S    
C9    C44   A    
C1    N1    A    
C22   N11   S    
C40   H30   S    
H10   N9    S    
C41   H9    S    
C38   N11   S    
C18   Cl3   S    
N4    Ni2   S    
C14   Cl2   S    
C33   Cl6   S    
C12   C24   S    
N6    N21   A    
C27   C35   S    
H15   N10   S    
C11   C13   A    
C3    N10   S    
C37   H16   S    
C33   C35   A    
C2    N18   A    
C29   N14   S    
C28   N3    A    
C1    H1    S    
C43   N15   A    
C10   C11   A    
C40   N14   S    
N16   Ni4   S    
C41   N8    A    
N3    Ni4   S    
C7    C13   S    
C20   C21   A    
N12   Ni2   S    
C2    C8    A    
H24   N13   S    
C14   C15   A    
C10   C17   A    
C32   H8    S    
C39   H27   S    
C36   H13   S    
C5    N20   A    
C15   H37   S    
C38   H22   S    
