data_mof_unit_30029.cif
_audit_creation_date              2013-03-05T16:32:08-0500
_audit_creation_method            fapswitch 2.2
_symmetry_space_group_name_H-M    P1
_symmetry_Int_Tables_number       1
_space_group_crystal_system       triclinic
_cell_length_a                    10.738678
_cell_length_b                    10.841281
_cell_length_c                    9.544937
_cell_angle_alpha                 90.786896
_cell_angle_beta                  90.032651
_cell_angle_gamma                 90.399328
_cell_volume                      1111.0993248

loop_
_atom_site_label
_atom_site_type_symbol
_atom_site_description
_atom_site_fract_x
_atom_site_fract_y
_atom_site_fract_z
_atom_type_partial_charge
O1    O     O_R   0.500000 0.319640 0.618810 -0.589013
O2    O     O_R   0.500010 0.319680 0.381230 -0.513919
C1    C     C_R   0.496016 0.262310 0.498773 0.873656
O3    O     O_R   0.317690 0.499960 0.618790 -0.600140
O4    O     O_R   0.317700 0.500000 0.381210 -0.602068
C2    C     C_R   0.259888 0.498565 0.500118 0.755376
Cu1   Cu    Cu3+1 0.499990 0.499980 0.640670 0.943392
Cu2   Cu    Cu3+1 0.500010 0.500020 0.359330 0.971113
O5    O     O_R   0.499990 0.680320 0.618770 -0.579627
O6    O     O_R   0.500000 0.680360 0.381190 -0.591274
O7    O     O_R   0.682300 0.500000 0.618790 -0.584999
O8    O     O_R   0.682310 0.500040 0.381210 -0.583967
C3    C     C_R   0.497164 0.737757 0.500588 0.823252
C4    C     C_R   0.740169 0.499469 0.500192 0.804904
C5    C     C_3   0.071613 0.489722 0.652734 -0.368957
H1    H     H_    0.108949 0.567627 0.717831 0.169744
H2    H     H_    0.102211 0.402370 0.701757 0.181059
C6    C     C_3   0.929338 0.494997 0.653111 -0.342293
H3    H     H_    0.890566 0.416195 0.712531 0.215779
H4    H     H_    0.900692 0.580319 0.709805 0.153308
H5    H     H_    0.108144 0.699057 0.492402 0.168956
H6    H     H_    0.894842 0.699788 0.490905 0.183955
C7    C     C_3   0.072871 0.616866 0.433081 -0.379630
C8    C     C_3   0.072135 0.383656 0.416723 -0.440114
C9    C     C_3   0.122047 0.497265 0.500547 0.114796
H7    H     H_    0.107936 0.385391 0.307312 0.134998
H8    H     H_    0.107577 0.297483 0.464104 0.185695
C10   C     C_3   0.878248 0.497617 0.500647 0.039778
C11   C     C_3   0.929127 0.617036 0.432753 -0.459778
C12   C     C_3   0.927724 0.384941 0.413611 0.231169
H9    H     H_    0.898973 0.397790 0.302476 0.100807
H10   H     H_    0.107384 0.624163 0.323537 0.174137
H11   H     H_    0.895445 0.623996 0.323146 0.167564
C13   C     C_R   0.473555 0.066017 0.621963 0.026070
C14   C     C_R   0.480150 0.129204 0.495908 -0.181381
C15   C     C_R   0.465612 0.061327 0.369006 0.507376
C16   C     C_R   0.468967 0.932328 0.372121 -0.291838
H12   H     H_    0.467302 0.881667 0.273512 0.174895
C17   C     C_R   0.482309 0.870693 0.499955 -0.160578
C18   C     C_R   0.473955 0.939166 0.624324 0.114884
C19   C     C_3   0.552814 0.938305 0.753244 -0.450979
C20   C     C_3   0.552133 0.078050 0.750336 -0.372416
H13   H     H_    0.501195 0.901351 0.844601 0.193933
H14   H     H_    0.646621 0.898682 0.733993 0.201293
H15   H     H_    0.500595 0.120474 0.839568 0.202321
H16   H     H_    0.645282 0.119237 0.729086 0.231756
C21   C     C_R   0.604654 0.532537 0.074433 0.279830
N1    N     N_R   0.500800 0.500930 0.147930 -0.183271
C22   C     C_R   0.401137 0.455316 0.073586 -0.062180
H17   H     H_    0.320339 0.420611 0.128263 0.131353
C23   C     C_R   0.401111 0.455328 0.924827 -0.091641
H18   H     H_    0.320312 0.420564 0.869025 0.135675
N2    N     N_R   0.500800 0.500890 0.852020 -0.185925
C24   C     C_R   0.604989 0.531847 0.927005 0.267989
C25   C     C_3   0.671596 0.652624 0.923865 -0.519672
C26   C     C_3   0.670875 0.653445 0.082579 -0.497679
H19   H     H_    0.766538 0.645158 0.879394 0.187560
H20   H     H_    0.613378 0.725340 0.878516 0.215387
H21   H     H_    0.765451 0.645182 0.128125 0.187621
H22   H     H_    0.612864 0.728064 0.128910 0.218443
O9    O     O_3   0.464285 0.119086 0.240812 -0.540545
C27   C     C_3   0.340203 0.123091 0.192912 -0.320748
H23   H     H_    0.338671 0.171330 0.091176 0.180142
H24   H     H_    0.280169 0.175982 0.267188 0.147776
H25   H     H_    0.301445 0.028726 0.174679 0.154851
N3    N     N_R   0.874920 0.267168 0.460655 0.107999
O10   O     O_R   0.906633 0.220416 0.580240 -0.402246
O11   O     O_R   0.799667 0.205127 0.378816 -0.363714

loop_
_geom_bond_atom_site_label_1
_geom_bond_atom_site_label_2
_geom_bond_distance
_ccdc_geom_bond_type
C5    C6    1.529319 S    
N3    O11   1.301124 A    
C25   C26   1.514843 S    
Cu2   N1    2.017983 S    
C18   C19   1.493540 S    
C16   H12   1.083291 S    
H6    C11   1.113401 S    
O4    Cu2   1.968993 S    
C26   H21   1.109208 S    
C19   C20   1.515714 S    
C27   H24   1.114252 S    
C21   N1    1.362169 A    
C13   C20   1.491093 S    
C8    H8    1.112887 S    
C1    C14   1.451765 S    
Cu2   O8    1.968648 S    
C4    C10   1.483066 S    
C7    H10   1.113188 S    
C27   H23   1.109400 S    
C10   C12   1.564068 S    
O2    C1    1.290842 A    
Cu1   Cu2   2.685378 S    
C16   C17   1.406901 A    
O7    C4    1.291637 A    
C12   N3    1.469470 S    
N2    C24   1.365273 A    
Cu1   O7    1.968994 S    
C19   H13   1.111398 S    
O9    C27   1.409641 S    
N1    C22   1.369542 A    
C21   C24   1.407121 A    
C13   C18   1.375755 A    
O4    C2    1.294213 A    
C7    C11   1.543639 S    
O3    C2    1.291185 A    
C10   C11   1.551839 S    
C26   H22   1.111568 S    
C8    H7    1.113396 S    
C22   H17   1.080801 S    
C6    H4    1.110635 S    
C25   H19   1.107661 S    
H5    C7    1.113222 S    
C12   H9    1.115468 S    
C19   H14   1.112265 S    
C8    C12   1.551212 S    
C5    C9    1.553591 S    
C2    C9    1.480203 S    
C3    C17   1.451196 S    
Cu1   N2    2.017226 S    
C23   N2    1.369615 A    
C5    H1    1.113884 S    
C11   H11   1.110475 S    
C17   C18   1.394685 A    
C7    C9    1.551412 S    
C6    C10   1.555647 S    
C8    C9    1.551672 S    
Cu2   O6    1.963368 S    
C13   C14   1.394282 A    
C20   H16   1.112478 S    
C25   H20   1.102552 S    
N3    O10   1.301384 A    
C5    H2    1.113582 S    
C6    H3    1.110630 S    
Cu1   O5    1.969113 S    
O3    Cu1   1.968649 S    
C15   C16   1.399953 A    
O1    Cu1   1.963368 S    
O5    C3    1.296397 A    
C14   C15   1.416600 A    
C27   H25   1.113198 S    
O1    C1    1.296487 A    
C24   C25   1.488296 S    
O6    C3    1.291419 A    
O2    Cu2   1.969111 S    
C23   H18   1.080743 S    
O8    C4    1.294331 A    
C21   C26   1.487986 S    
C22   C23   1.419896 A    
C20   H15   1.112021 S    
C15   O9    1.382263 S    
