data_mof_unit_8788.cif
_audit_creation_date              2012-12-10T17:06:12-0500
_audit_creation_method            fapswitch 2.2
_symmetry_space_group_name_H-M    P1
_symmetry_Int_Tables_number       1
_space_group_crystal_system       triclinic
_cell_length_a                    10.614126
_cell_length_b                    11.039326
_cell_length_c                    9.874908
_cell_angle_alpha                 111.045459
_cell_angle_beta                  99.147263
_cell_angle_gamma                 90.736714
_cell_volume                      1063.07992029

loop_
_atom_site_label
_atom_site_type_symbol
_atom_type_description
_atom_site_fract_x
_atom_site_fract_y
_atom_site_fract_z
_atom_type_partial_charge
C1    C     C_R   0.490711 0.254215 0.440742 0.850242
C2    C     C_R   0.509271 0.745785 0.559264 0.851521
C3    C     C_R   0.259285 0.499771 0.499929 0.771293
C4    C     C_R   0.740636 0.499083 0.499688 0.771306
C5    C     C_3   0.045353 0.396526 0.529852 -0.176367
C6    C     C_3   0.954427 0.600598 0.468574 -0.175894
C7    C     C_3   0.941694 0.387180 0.396572 -0.162222
C8    C     C_3   0.057927 0.609982 0.602004 -0.162719
C9    C     C_3   0.877471 0.498121 0.499481 0.028879
C10   C     C_3   0.122284 0.499167 0.499180 0.029293
C11   C     C_3   0.978773 0.507289 0.632841 -0.144910
C12   C     C_3   0.020955 0.489711 0.365582 -0.138813
C13   C     C_2   0.485699 0.114913 0.407441 -0.356736
C14   C     C_2   0.514253 0.885092 0.592592 -0.360355
C15   C     C_2   0.502203 0.069570 0.516582 -0.158202
C16   C     C_2   0.497720 0.930447 0.483464 -0.153661
C17   C     C_2   0.507620 0.512382 0.081511 0.093799
C18   C     C_2   0.499496 0.480645 0.916460 0.094659
Cu1   Cu    Cu3+1 0.522260 0.521810 0.644920 0.958372
Cu2   Cu    Cu3+1 0.477740 0.478190 0.355080 0.953184
H1    H     H_    0.891042 0.296186 0.312503 0.131511
H2    H     H_    0.108487 0.701002 0.686122 0.134135
H3    H     H_    0.085853 0.313289 0.555191 0.125476
H4    H     H_    0.913973 0.683805 0.443125 0.128500
H5    H     H_    0.958629 0.512088 0.741366 0.148198
H6    H     H_    0.040461 0.482664 0.255968 0.129392
H7    H     H_    0.480691 0.864760 0.368698 0.187255
H8    H     H_    0.519233 0.135259 0.631347 0.183506
H9    H     H_    0.531376 0.951072 0.707163 0.157377
H10   H     H_    0.468583 0.048922 0.292876 0.160197
H11   H     H_    0.447813 0.390630 0.839770 0.131854
H12   H     H_    0.567746 0.597022 0.157849 0.124802
N1    N     N_2   0.444270 0.445410 0.137360 -0.031530
N2    N     N_2   0.555730 0.554590 0.862640 -0.023475
O1    O     O_R   0.511880 0.332340 0.577400 -0.602582
O2    O     O_R   0.488120 0.667660 0.422600 -0.598107
O3    O     O_R   0.474280 0.295500 0.332650 -0.559668
O4    O     O_R   0.525720 0.704500 0.667350 -0.561877
O5    O     O_R   0.335640 0.518390 0.622350 -0.575026
O6    O     O_R   0.664360 0.481610 0.377650 -0.586513
O7    O     O_R   0.298050 0.481550 0.377590 -0.618734
O8    O     O_R   0.701950 0.518450 0.622410 -0.607856
O9    O     O_3   0.586366 0.678075 0.958687 -0.542058
C19   C     C_3   0.713973 0.714244 0.957287 0.183299
H13   H     H_    0.732153 0.819537 0.025890 0.129030
H14   H     H_    0.729075 0.704817 0.845786 0.172667
C20   C     C_3   0.809976 0.638932 0.024029 -0.413927
H15   H     H_    0.785390 0.639635 0.129534 0.217311
H16   H     H_    0.805352 0.536195 0.946863 0.216743
C21   C     C_3   0.946548 0.699426 0.054315 -0.940430
H17   H     H_    0.972004 0.707870 0.953129 0.252987
H18   H     H_    0.014347 0.637497 0.091964 0.256005
H19   H     H_    0.956232 0.797847 0.141990 0.259144
O10   O     O_3   0.386085 0.331200 0.039424 -0.549735
C22   C     C_3   0.259557 0.323450 0.063620 0.207277
H20   H     H_    0.219236 0.420727 0.097272 0.133679
H21   H     H_    0.256850 0.280632 0.149242 0.168975
C23   C     C_3   0.175407 0.234744 0.920609 -0.419355
H22   H     H_    0.181956 0.273051 0.831839 0.221406
H23   H     H_    0.210098 0.135414 0.887237 0.228916
C24   C     C_3   0.035697 0.226994 0.938884 -0.944031
H24   H     H_    0.026608 0.189165 0.027342 0.254452
H25   H     H_    0.977473 0.160330 0.834052 0.264643
H26   H     H_    0.997815 0.324757 0.967005 0.253497

loop_
_geom_bond_atom_site_label_1
_geom_bond_atom_site_label_2
_ccdc_geom_bond_type
C17   C18   S    
C24   H26   S    
C21   H18   S    
O9    C19   S    
Cu1   O8    S    
C4    O6    A    
Cu1   O4    S    
C9    C11   S    
C2    O4    A    
C8    H2    S    
Cu1   Cu2   S    
C5    H3    S    
C19   C20   S    
C1    O3    A    
C22   H20   S    
C6    H4    S    
C23   C24   S    
C13   C15   D    
C21   H17   S    
C23   H22   S    
C3    O5    A    
C5    C10   S    
C20   H16   S    
C3    C10   S    
Cu1   O1    S    
C17   N1    D    
Cu2   O3    S    
C18   N2    D    
C15   H8    S    
C7    C12   S    
C4    O8    A    
C16   H7    S    
C8    C11   S    
Cu2   O7    S    
Cu2   N1    S    
Cu1   O5    S    
C19   H14   S    
C5    C11   S    
C20   C21   S    
C10   C12   S    
C22   H21   S    
C7    H1    S    
C6    C12   S    
C24   H24   S    
C2    C14   S    
C14   C16   D    
C21   H19   S    
C1    C13   S    
C11   H5    S    
C14   H9    S    
C23   H23   S    
C15   C16   S    
Cu2   O2    S    
C7    C9    S    
C13   H10   S    
C6    C9    S    
C19   H13   S    
C1    O1    A    
C8    C10   S    
C22   C23   S    
C2    O2    A    
N1    O10   S    
C24   H25   S    
C17   H12   S    
C5    C7    S    
C3    O7    A    
C6    C8    S    
C18   H11   S    
C4    C9    S    
O10   C22   S    
Cu2   O6    S    
N2    O9    S    
C20   H15   S    
C12   H6    S    
Cu1   N2    S    
