data_mof_unit_20528.cif
_audit_creation_date              2012-12-11T15:55:46-0500
_audit_creation_method            fapswitch 2.2
_symmetry_space_group_name_H-M    P1
_symmetry_Int_Tables_number       1
_space_group_crystal_system       triclinic
_cell_length_a                    10.989661
_cell_length_b                    11.034184
_cell_length_c                    18.736527
_cell_angle_alpha                 90.100263
_cell_angle_beta                  90.118146
_cell_angle_gamma                 59.420376
_cell_volume                      1956.03605193

loop_
_atom_site_label
_atom_site_type_symbol
_atom_type_description
_atom_site_fract_x
_atom_site_fract_y
_atom_site_fract_z
_atom_type_partial_charge
C1    C     C_R   0.389135 0.705860 0.390086 0.557364
C2    C     C_R   0.614979 0.194711 0.148856 0.046094
C3    C     C_R   0.350692 0.343512 0.161168 0.029541
C4    C     C_R   0.492646 0.275294 0.267526 -0.118979
C5    C     C_R   0.485279 0.275370 0.193183 -0.009561
C6    C     C_R   0.072000 0.468295 0.380197 -0.046836
C7    C     C_R   0.966354 0.562260 0.426473 -0.072641
C8    C     C_R   0.715647 0.054407 0.165485 -0.095992
C9    C     C_R   0.813103 0.966724 0.114021 -0.126192
C10   C     C_R   0.229266 0.428308 0.202527 -0.108364
C11   C     C_R   0.235393 0.427805 0.276705 -0.002534
C12   C     C_R   0.389712 0.356785 0.386263 0.521667
C13   C     C_R   0.879937 0.703248 0.407206 -0.092273
C14   C     C_R   0.900731 0.751023 0.342013 -0.128847
C15   C     C_R   0.011326 0.659281 0.297361 -0.114883
C16   C     C_R   0.102260 0.517914 0.317483 0.046588
C17   C     C_R   0.369218 0.346913 0.309772 0.033196
C18   C     C_R   0.852613 0.336344 0.182124 0.033232
C19   C     C_R   0.869089 0.222027 0.222953 0.021218
C20   C     C_R   0.850807 0.234270 0.295794 -0.005918
C21   C     C_R   0.788496 0.477542 0.287906 -0.138051
C22   C     C_R   0.802105 0.467166 0.214661 -0.157073
C23   C     C_R   0.775629 0.380580 0.402648 0.533877
C24   C     C_3   0.992361 0.074807 0.229953 -0.225890
C25   C     C_3   0.972282 0.090246 0.309874 -0.266372
C26   C     C_R   0.819507 0.358703 0.329482 0.029003
C27   C     C_R   0.369305 0.807664 0.168467 0.028267
C28   C     C_R   0.458979 0.825201 0.214833 0.014847
C29   C     C_R   0.476818 0.780322 0.285247 -0.023682
C30   C     C_R   0.321594 0.690943 0.265514 -0.159023
C31   C     C_R   0.310801 0.727622 0.193326 -0.163319
C32   C     C_3   0.464706 0.952908 0.235163 0.098898
C33   C     C_3   0.492330 0.899299 0.311358 -0.211913
C34   C     C_R   0.342805 0.770449 0.603824 0.554462
C35   C     C_R   0.395508 0.727271 0.313397 0.020191
C36   C     C_R   0.275268 0.273515 0.803192 0.017793
C37   C     C_R   0.395407 0.174057 0.766496 0.016863
C38   C     C_R   0.415333 0.191226 0.696079 0.010303
C39   C     C_R   0.185872 0.401589 0.691015 -0.162682
C40   C     C_R   0.164432 0.382419 0.763493 -0.155226
C41   C     C_3   0.548808 0.113668 0.784216 -0.266248
C42   C     C_3   0.570851 0.130917 0.706616 -0.230257
C43   C     C_R   0.318047 0.311763 0.658935 0.009602
C44   C     C_R   0.837892 0.319286 0.831332 -0.031191
C45   C     C_R   0.368431 0.348544 0.595070 0.531626
C46   C     C_R   0.812999 0.440071 0.796392 0.017243
C47   C     C_R   0.806341 0.449696 0.724104 -0.015947
C48   C     C_R   0.861493 0.208775 0.714920 0.184034
C49   C     C_R   0.870966 0.199147 0.789933 -0.138353
C50   C     C_3   0.698198 0.587743 0.808203 -0.276255
C51   C     C_3   0.688214 0.599527 0.727903 -0.253553
C52   C     C_R   0.820305 0.339106 0.681854 0.033029
C53   C     C_R   0.297396 0.857407 0.822850 0.000325
C54   C     C_R   0.199692 0.835362 0.787293 0.038238
C55   C     C_R   0.207213 0.819557 0.714436 0.111491
C56   C     C_R   0.765372 0.375555 0.609706 0.570143
C57   C     C_R   0.390483 0.877604 0.708085 -0.174020
C58   C     C_R   0.388715 0.885237 0.782328 -0.164713
C59   C     C_3   0.168327 0.720172 0.798246 -0.289019
C60   C     C_3   0.177752 0.701528 0.718068 -0.243090
C61   C     C_R   0.307324 0.832740 0.674083 0.030008
C62   C     C_R   0.912820 0.314290 0.112130 0.569692
C63   C     C_R   0.327757 0.296826 0.091688 0.584693
C64   C     C_R   0.310252 0.893792 0.104016 0.578387
C65   C     C_R   0.883938 0.308226 0.904552 0.529883
C66   C     C_R   0.269232 0.254356 0.880007 0.558074
C67   C     C_R   0.813149 0.019224 0.046293 -0.057496
C68   C     C_R   0.275225 0.896001 0.897377 0.534282
C69   C     C_R   0.718602 0.160585 0.030680 -0.055867
C70   C     C_R   0.624199 0.249357 0.082516 -0.080676
Cr1   Cr    Cr6+3 0.601740 0.606840 0.505840 0.984787
Cr2   Cr    Cr6+3 0.291500 0.601560 0.495070 1.025689
Cr3   Cr    Cr6+3 0.606780 0.291630 0.499130 1.047082
Cr4   Cr    Cr6+3 0.062440 0.063060 0.008240 0.993315
Cr5   Cr    Cr6+3 0.062950 0.375000 0.998920 1.006899
Cr6   Cr    Cr6+3 0.374550 0.061770 0.992470 1.021679
H1    H     H_    0.595887 0.221168 0.292529 0.131710
H2    H     H_    0.796468 0.775201 0.442609 0.112207
H3    H     H_    0.833420 0.860103 0.326902 0.094372
H4    H     H_    0.029496 0.700632 0.248748 0.081693
H5    H     H_    0.754172 0.579236 0.311734 0.156465
H6    H     H_    0.784168 0.558669 0.184595 0.130148
H7    H     H_    0.092124 0.064285 0.211512 0.227344
H8    H     H_    0.973438 0.992576 0.208485 0.137725
H9    H     H_    0.937895 0.020016 0.333215 0.142885
H10   H     H_    0.060885 0.090881 0.338361 0.175294
H11   H     H_    0.263731 0.644127 0.285314 0.135006
H12   H     H_    0.887924 0.857727 0.126605 0.086387
H13   H     H_    0.243254 0.707469 0.159243 0.121195
H14   H     H_    0.553462 0.954638 0.209186 0.132985
H15   H     H_    0.601715 0.863149 0.329401 0.097665
H16   H     H_    0.408922 0.967739 0.350245 0.188534
H17   H     H_    0.105098 0.492496 0.662602 0.126106
H18   H     H_    0.066632 0.457650 0.789298 0.140776
H19   H     H_    0.603154 0.001705 0.800984 0.127131
H20   H     H_    0.568502 0.183358 0.819358 0.151638
H21   H     H_    0.603582 0.209907 0.698133 0.189489
H22   H     H_    0.951093 0.525375 0.477283 0.131562
H23   H     H_    0.634726 0.029098 0.678155 0.174530
H24   H     H_    0.905518 0.098628 0.815320 0.163515
H25   H     H_    0.737550 0.652993 0.832982 0.140989
H26   H     H_    0.603373 0.595188 0.833783 0.132478
H27   H     H_    0.588643 0.610473 0.706935 0.158530
H28   H     H_    0.718462 0.674123 0.705999 0.142993
H29   H     H_    0.467181 0.891416 0.678527 0.131002
H30   H     H_    0.461667 0.909119 0.808216 0.145141
H31   H     H_    0.059903 0.760319 0.819300 0.147723
H32   H     H_    0.886681 0.950700 0.006068 0.103859
H33   H     H_    0.253705 0.628491 0.827481 0.133130
H34   H     H_    0.270116 0.599720 0.700994 0.136463
H35   H     H_    0.075225 0.729257 0.692778 0.177883
H36   H     H_    0.715145 0.201125 0.977841 0.111175
H37   H     H_    0.549256 0.357662 0.068552 0.079691
H38   H     H_    0.136804 0.359044 0.395823 0.115747
H39   H     H_    0.717021 0.011395 0.217440 0.078727
H40   H     H_    0.125837 0.484271 0.177676 0.141016
O1    O     O_R   0.748670 0.497520 0.427970 -0.545967
O2    O     O_R   0.300170 0.471020 0.567120 -0.513235
O3    O     O_R   0.491630 0.259030 0.574940 -0.505055
O4    O     O_R   0.718640 0.304340 0.577850 -0.447550
O5    O     O_3   0.500010 0.500010 0.500020 -0.282480
O6    O     O_R   0.186620 0.923750 0.087000 -0.533766
O7    O     O_R   0.957350 0.194160 0.084660 -0.489783
O8    O     O_R   0.935120 0.407280 0.085350 -0.526013
O9    O     O_R   0.203800 0.365060 0.067090 -0.507640
O10   O     O_R   0.417470 0.174910 0.067830 -0.479421
O11   O     O_R   0.375160 0.946380 0.070880 -0.472418
O12   O     O_R   0.476470 0.723930 0.429450 -0.504476
O13   O     O_R   0.160500 0.919670 0.926690 -0.523712
O14   O     O_R   0.933140 0.190380 0.936050 -0.528373
O15   O     O_R   0.909010 0.403210 0.925030 -0.520551
O16   O     O_R   0.179590 0.361290 0.918480 -0.510925
O17   O     O_R   0.391360 0.170840 0.907510 -0.533964
O18   O     O_R   0.350950 0.942600 0.922260 -0.531431
O19   O     O_3   0.166650 0.166610 0.999880 -0.253414
O20   O     O_R   0.264730 0.744140 0.416740 -0.502927
O21   O     O_R   0.309440 0.472410 0.418220 -0.518196
O22   O     O_R   0.501630 0.260530 0.414310 -0.523037
O23   O     O_R   0.727920 0.305730 0.428950 -0.496830
O24   O     O_R   0.738670 0.496020 0.588600 -0.539039
O25   O     O_R   0.467190 0.722540 0.578350 -0.515190
O26   O     O_R   0.254720 0.742640 0.577370 -0.487713
Cl1   Cl    Cl    0.298113 0.110565 0.228040 -0.685185
Cl2   Cl    Cl    0.899428 0.058516 0.664887 -0.665292

loop_
_geom_bond_atom_site_label_1
_geom_bond_atom_site_label_2
_ccdc_geom_bond_type
C45   O2    A    
C44   C49   A    
C7    C13   A    
C57   H29   S    
C21   C26   A    
C34   O25   A    
Cr3   O3    S    
C7    H22   S    
Cr2   O5    S    
Cr6   O10   S    
C41   C42   S    
Cr1   O24   S    
C19   C20   A    
C1    O12   A    
C62   O8    A    
C65   O14   A    
C53   C54   A    
Cr2   O26   S    
C30   C35   A    
C64   O6    A    
C22   H6    S    
C23   O23   A    
C28   C29   A    
C24   H7    S    
C38   C42   S    
C33   H15   S    
C9    H12   S    
C30   C31   A    
C56   O24   A    
C69   H36   S    
Cr5   O19   S    
C67   H32   S    
Cr2   O20   S    
C41   H20   S    
C20   C25   S    
C51   H27   S    
C15   C16   A    
C29   C33   S    
C48   Cl2   S    
C18   C19   A    
C23   C26   S    
C4    H1    S    
C53   C68   S    
C6    H38   S    
C32   Cl1   S    
C8    H39   S    
C21   C22   A    
C54   C55   A    
C32   H14   S    
Cr5   O15   S    
C8    C9    A    
C31   H13   S    
C12   C17   S    
C1    O20   A    
Cr1   O25   S    
C45   O3    A    
Cr4   O7    S    
C59   C60   S    
Cr3   O4    S    
C13   C14   A    
C56   O4    A    
C44   C65   S    
C68   O13   A    
C39   H17   S    
C62   O7    A    
C65   O15   A    
Cr6   O19   S    
C44   C46   A    
C66   O16   A    
C54   C59   S    
C70   H37   S    
Cr1   O1    S    
C27   C31   A    
Cr5   O8    S    
C28   C32   S    
C24   C25   S    
C10   C11   A    
C42   H21   S    
C39   C40   A    
Cr6   O18   S    
C18   C62   S    
C39   C43   A    
Cr3   O23   S    
C51   H28   S    
C34   C61   S    
C59   H31   S    
C67   C69   A    
C47   C52   A    
C9    C67   A    
C37   C38   A    
C66   O17   A    
C34   O26   A    
C11   C16   S    
C58   H30   S    
C15   H4    S    
C14   C15   A    
C36   C40   A    
Cr6   O17   S    
C64   O11   A    
Cr4   O19   S    
C25   H9    S    
C50   C51   S    
C14   H3    S    
C43   C45   S    
C63   O9    A    
C4    C17   A    
Cr2   O21   S    
Cr4   O6    S    
C21   H5    S    
C50   H26   S    
Cr3   O5    S    
Cr4   O14   S    
C12   O22   A    
Cr1   O12   S    
C33   H16   S    
C2    C5    S    
C10   H40   S    
Cr5   O16   S    
C1    C35   S    
C46   C50   S    
C46   C47   A    
C36   C37   A    
C18   C22   A    
Cr1   O5    S    
C2    C8    A    
C40   H18   S    
C4    C5    A    
C3    C5    A    
C11   C17   A    
C23   O1    A    
C47   C51   S    
C53   C58   A    
C57   C61   A    
C6    C7    A    
C3    C63   S    
C29   C35   A    
C32   C33   S    
C68   O18   A    
C19   C24   S    
C24   H8    S    
C38   C43   A    
C60   H35   S    
C2    C70   A    
C42   H23   S    
C49   H24   S    
C57   C58   A    
C41   H19   S    
C20   C26   A    
C48   C49   A    
C55   C61   A    
C25   H10   S    
C59   H33   S    
C36   C66   S    
C37   C41   S    
C69   C70   A    
C63   O10   A    
C60   H34   S    
C27   C64   S    
C13   H2    S    
C6    C16   A    
C48   C52   A    
C50   H25   S    
Cr3   O22   S    
Cr4   O13   S    
Cr2   O2    S    
C27   C28   A    
C3    C10   A    
Cr6   O11   S    
C12   O21   A    
Cr5   O9    S    
C30   H11   S    
C55   C60   S    
C52   C56   S    
