data_mof_unit_22616.cif
_audit_creation_date              2012-12-10T17:33:43-0500
_audit_creation_method            fapswitch 2.2
_symmetry_space_group_name_H-M    P1
_symmetry_Int_Tables_number       1
_space_group_crystal_system       triclinic
_cell_length_a                    11.638154
_cell_length_b                    12.428787
_cell_length_c                    13.069297
_cell_angle_alpha                 116.769289
_cell_angle_beta                  76.245999
_cell_angle_gamma                 100.065539
_cell_volume                      1634.44510701

loop_
_atom_site_label
_atom_site_type_symbol
_atom_type_description
_atom_site_fract_x
_atom_site_fract_y
_atom_site_fract_z
_atom_type_partial_charge
C1    C     C_R   0.515141 0.855171 0.285444 0.956988
C2    C     C_R   0.489085 0.227810 0.840620 -0.202311
C3    C     C_R   0.633734 0.803919 0.086285 0.234565
C4    C     C_R   0.702394 0.713133 0.994031 -0.120138
C5    C     C_R   0.670244 0.591546 0.973587 0.520998
C6    C     C_R   0.556021 0.558311 0.025828 -0.062404
C7    C     C_R   0.492564 0.649405 0.122897 -0.091405
C8    C     C_R   0.506062 0.436742 0.988269 0.058222
C9    C     C_R   0.418888 0.403593 0.067120 -0.088318
C10   C     C_R   0.351713 0.495359 0.161845 -0.104617
C11   C     C_R   0.382400 0.617379 0.180473 0.456300
C12   C     C_R   0.715332 0.999766 0.500429 0.822890
C13   C     C_R   0.534424 0.349807 0.872280 0.332255
C14   C     C_R   0.437553 0.190799 0.930835 -0.082854
C15   C     C_R   0.540225 0.771246 0.160307 -0.067390
C16   C     C_R   0.637184 0.301790 0.280361 -0.100892
C17   C     C_R   0.355886 0.770282 0.661446 0.526639
C18   C     C_R   0.354558 0.694064 0.715826 0.163610
C19   C     C_R   0.421748 0.592138 0.656212 0.462824
C20   C     C_R   0.473550 0.556374 0.536701 -0.101562
C21   C     C_R   0.491408 0.646858 0.495051 -0.037448
C22   C     C_R   0.520963 0.440060 0.462623 -0.022964
C23   C     C_R   0.490459 0.144810 0.714659 0.792902
C24   C     C_R   0.583772 0.414188 0.347685 -0.170672
C25   C     C_R   0.596275 0.503828 0.307033 0.299035
C26   C     C_R   0.571481 0.622513 0.386775 0.065028
C27   C     C_R   0.497211 0.343152 0.494716 0.662592
C28   C     C_R   0.638011 0.227485 0.334699 0.049883
C29   C     C_R   0.284584 0.000791 0.500328 0.836622
C30   C     C_1   0.836967 0.999101 0.500695 -0.125858
C31   C     C_1   0.939839 0.999617 0.500500 0.035134
C32   C     C_1   0.060089 0.000821 0.500149 0.043162
C33   C     C_1   0.162969 0.001471 0.500038 -0.094941
C34   C     C_R   0.400942 0.279608 0.045542 -0.094849
Cu1   Cu    Cu3+1 0.526510 0.098270 0.475420 1.008623
Cu2   Cu    Cu3+1 0.473490 0.901730 0.524580 1.054098
H1    H     H_    0.681966 0.144430 0.287400 0.221958
N1    N     N_R   0.566700 0.246290 0.438210 -0.274107
N2    N     N_R   0.434010 0.754320 0.561170 -0.203535
O1    O     O_R   0.533340 0.972510 0.318140 -0.550351
O2    O     O_R   0.488570 0.806530 0.359650 -0.547471
O3    O     O_R   0.685190 0.083000 0.479260 -0.574743
O4    O     O_R   0.640410 0.917020 0.520770 -0.599383
O5    O     O_R   0.511430 0.193470 0.640350 -0.588468
O6    O     O_R   0.466660 0.027490 0.681860 -0.516884
O7    O     O_R   0.359590 0.082980 0.479230 -0.589329
O8    O     O_R   0.314810 0.917000 0.520740 -0.500296
C35   C     C_2   0.426902 0.061635 0.907314 0.518034
H2    H     H_    0.341951 0.018414 0.929945 0.111724
O9    O     O_2   0.514140 0.003314 0.864178 -0.541140
O10   O     O_3   0.658848 0.486286 0.197748 -0.738108
H3    H     H_    0.742302 0.478606 0.197859 0.336539
C36   C     C_2   0.684519 0.253406 0.153193 0.409588
H4    H     H_    0.644463 0.272136 0.096633 0.125509
O11   O     O_2   0.766982 0.188579 0.109460 -0.532475
O12   O     O_3   0.388713 0.336808 0.563437 -0.684983
H5    H     H_    0.391209 0.285269 0.601133 0.379712
O13   O     O_3   0.285216 0.865626 0.710393 -0.709327
H6    H     H_    0.210849 0.844677 0.755482 0.317553
O14   O     O_3   0.449274 0.534988 0.716094 -0.660120
H7    H     H_    0.416089 0.575658 0.800231 0.380646
O15   O     O_3   0.294059 0.719166 0.827830 -0.713602
H8    H     H_    0.283377 0.806687 0.870705 0.337973
C37   C     C_2   0.679421 0.702341 0.381177 0.453128
H9    H     H_    0.731287 0.734593 0.449864 0.061637
O16   O     O_2   0.716594 0.725628 0.297128 -0.550704
C38   C     C_2   0.243248 0.464837 0.233728 0.325105
H10   H     H_    0.186362 0.383961 0.194318 0.114265
O17   O     O_2   0.218051 0.528527 0.338113 -0.498247
C39   C     C_2   0.361314 0.246935 0.146051 0.334009
H11   H     H_    0.381598 0.310320 0.230810 0.112154
O18   O     O_2   0.303447 0.152285 0.137175 -0.540581
O19   O     O_3   0.597008 0.388084 0.789240 -0.650420
H12   H     H_    0.658244 0.330217 0.739670 0.351958
O20   O     O_3   0.662487 0.924933 0.112538 -0.703816
H13   H     H_    0.697507 0.933214 0.039368 0.346474
O21   O     O_3   0.756949 0.510621 0.913762 -0.645445
H14   H     H_    0.739462 0.445409 0.940421 0.330303
C40   C     C_2   0.815930 0.746084 0.929619 0.482433
H15   H     H_    0.861300 0.835248 0.967146 0.073140
O22   O     O_2   0.860089 0.674007 0.833162 -0.453394
O23   O     O_3   0.305198 0.706606 0.250433 -0.720540
H16   H     H_    0.222481 0.670178 0.250613 0.349878

loop_
_geom_bond_atom_site_label_1
_geom_bond_atom_site_label_2
_ccdc_geom_bond_type
C16   C28   A    
C21   C26   A    
C8    C13   A    
C23   O6    A    
O19   H12   S    
Cu1   Cu2   S    
O21   H14   S    
C7    C11   A    
C29   O8    A    
C12   O4    A    
C5    C6    A    
C27   N1    A    
C29   C33   S    
O12   H5    S    
Cu2   O8    S    
C18   C19   A    
C17   N2    A    
Cu1   O3    S    
C2    C13   A    
C26   C37   S    
C16   C36   S    
C12   O3    A    
C1    O1    A    
C19   C20   A    
C8    C9    A    
C39   H11   S    
C1    C15   S    
C3    O20   S    
C9    C10   A    
C34   C39   S    
C17   O13   S    
C35   O9    D    
C16   C24   A    
Cu2   O2    S    
C36   O11   D    
C11   O23   S    
O10   H3    S    
Cu1   N1    S    
C24   C25   A    
C4    C40   S    
C40   O22   D    
C27   O12   S    
C18   O15   S    
C14   C35   S    
C25   C26   A    
C10   C38   S    
C23   O5    A    
C38   H10   S    
O14   H7    S    
C38   O17   D    
C37   O16   D    
O20   H13   S    
C25   O10   S    
O15   H8    S    
C31   C32   S    
C21   N2    A    
C28   N1    A    
C17   C18   A    
Cu2   O6    S    
Cu1   O5    S    
C1    O2    A    
C35   H2    S    
C13   O19   S    
C22   C27   A    
C9    C34   A    
C22   C24   A    
C5    O21   S    
C3    C4    A    
C3    C15   A    
C12   C30   S    
Cu2   N2    S    
C20   C22   A    
C4    C5    A    
C14   C34   A    
C6    C8    A    
C36   H4    S    
C6    C7    A    
C19   O14   S    
C29   O7    A    
C37   H9    S    
Cu1   O1    S    
O13   H6    S    
C32   C33   T    
C30   C31   T    
C28   H1    S    
C7    C15   A    
C2    C14   A    
C10   C11   A    
C40   H15   S    
C20   C21   A    
O23   H16   S    
C2    C23   S    
Cu2   O4    S    
C39   O18   D    
Cu1   O7    S    
