data_mof_unit_65312.cif
_audit_creation_date              2012-12-11T17:20:01-0500
_audit_creation_method            fapswitch 2.2
_symmetry_space_group_name_H-M    P1
_symmetry_Int_Tables_number       1
_space_group_crystal_system       orthorhombic
_cell_length_a                    6.944417
_cell_length_b                    12.343675
_cell_length_c                    13.475436
_cell_angle_alpha                 90.0
_cell_angle_beta                  90.0
_cell_angle_gamma                 90.0
_cell_volume                      1155.10934101

loop_
_atom_site_label
_atom_site_type_symbol
_atom_type_description
_atom_site_fract_x
_atom_site_fract_y
_atom_site_fract_z
_atom_type_partial_charge
O1    O     O_R   0.645130 0.848170 0.147940 -0.536251
O2    O     O_R   0.354870 0.151830 0.852060 -0.536251
O3    O     O_R   0.354870 0.151830 0.647940 -0.536251
O4    O     O_R   0.645130 0.848170 0.352060 -0.536251
O5    O     O_R   0.145130 0.651830 0.352060 -0.536251
O6    O     O_R   0.854870 0.348170 0.647940 -0.536251
O7    O     O_R   0.854870 0.348170 0.852060 -0.536251
O8    O     O_R   0.145130 0.651830 0.147940 -0.536251
O9    O     O_R   0.315360 0.861070 0.351370 -0.538922
O10   O     O_R   0.684640 0.138930 0.648630 -0.538922
O11   O     O_R   0.684640 0.138930 0.851370 -0.538922
O12   O     O_R   0.315360 0.861070 0.148630 -0.538922
O13   O     O_R   0.815360 0.638930 0.148630 -0.538922
O14   O     O_R   0.184640 0.361070 0.851370 -0.538922
O15   O     O_R   0.184640 0.361070 0.648630 -0.538922
O16   O     O_R   0.815360 0.638930 0.351370 -0.538922
C1    C     C_R   0.484376 0.887403 0.385902 0.732740
C2    C     C_R   0.515624 0.112597 0.614098 0.732740
C3    C     C_R   0.515624 0.112597 0.885902 0.732740
C4    C     C_R   0.484376 0.887403 0.114098 0.732740
C5    C     C_R   0.984376 0.612597 0.114098 0.732740
C6    C     C_R   0.015624 0.387403 0.885902 0.732740
C7    C     C_R   0.015624 0.387403 0.614098 0.732740
C8    C     C_R   0.984376 0.612597 0.385902 0.732740
O17   O     O_3   0.478580 0.681340 0.250000 -0.369388
O18   O     O_3   0.521420 0.318660 0.750000 -0.369388
O19   O     O_3   0.978580 0.818660 0.250000 -0.369388
O20   O     O_3   0.021420 0.181340 0.750000 -0.369388
V1    V     V_3+5 0.203740 0.762730 0.250000 1.431401
V2    V     V_3+5 0.796260 0.237270 0.750000 1.431401
V3    V     V_3+5 0.703740 0.737270 0.250000 1.431401
V4    V     V_3+5 0.296260 0.262730 0.750000 1.431401
C9    C     C_1   0.995005 0.533060 0.466307 -0.188573
C10   C     C_1   0.004995 0.466940 0.533693 -0.188573
C11   C     C_1   0.004995 0.466940 0.966307 -0.188573
C12   C     C_1   0.995005 0.533060 0.033693 -0.188573
C13   C     C_1   0.495005 0.966940 0.033693 -0.188573
C14   C     C_1   0.504995 0.033060 0.966307 -0.188573
C15   C     C_1   0.504995 0.033060 0.533693 -0.188573
C16   C     C_1   0.495005 0.966940 0.466307 -0.188573

loop_
_geom_bond_atom_site_label_1
_geom_bond_atom_site_label_2
_ccdc_geom_bond_type
O17   V3    S    
C2    C15   S    
O18   V4    S    
C13   C14   T    
C6    C11   S    
C3    C14   S    
O12   V1    S    
O19   V1    S    
O7    C6    A    
O10   V2    S    
C8    C9    S    
O9    V1    S    
C7    C10   S    
O12   C4    A    
O15   C7    A    
C9    C10   T    
O13   C5    A    
O15   V4    S    
O16   C8    A    
O7    V2    S    
O16   V3    S    
O14   C6    A    
C4    C13   S    
O11   C3    A    
O5    C8    A    
O10   C2    A    
O8    V1    S    
O9    C1    A    
O6    V2    S    
O18   V2    S    
O5    V1    S    
O1    V3    S    
O17   V1    S    
O3    V4    S    
O4    V3    S    
O6    C7    A    
O19   V3    S    
O20   V4    S    
O8    C5    A    
O3    C2    A    
O2    V4    S    
C15   C16   T    
C5    C12   S    
O1    C4    A    
O2    C3    A    
O13   V3    S    
C11   C12   T    
O11   V2    S    
O14   V4    S    
O20   V2    S    
C1    C16   S    
O4    C1    A    
