data_mof_unit_61858.cif
_audit_creation_date              2013-03-05T15:40:07-0500
_audit_creation_method            fapswitch 2.2
_symmetry_space_group_name_H-M    P1
_symmetry_Int_Tables_number       1
_space_group_crystal_system       triclinic
_cell_length_a                    18.972572
_cell_length_b                    18.662401
_cell_length_c                    18.708372
_cell_angle_alpha                 108.940858
_cell_angle_beta                  109.532577
_cell_angle_gamma                 109.480923
_cell_volume                      5127.84320057

loop_
_atom_site_label
_atom_site_type_symbol
_atom_site_description
_atom_site_fract_x
_atom_site_fract_y
_atom_site_fract_z
_atom_type_partial_charge
O1    O     O_R   0.460610 0.409240 0.550770 -0.636704
O2    O     O_R   0.358470 0.409870 0.449260 -0.617752
C1    C     C_R   0.381930 0.374582 0.494463 0.882878
O3    O     O_R   0.551070 0.590720 0.641790 -0.621878
O4    O     O_R   0.448930 0.591350 0.540280 -0.621617
C2    C     C_R   0.497484 0.616571 0.619677 0.873713
Zn1   Zn    Zn3+2 0.568200 0.499580 0.567780 0.948101
Zn2   Zn    Zn3+2 0.431800 0.500420 0.432220 1.011612
O5    O     O_R   0.641530 0.590130 0.550740 -0.612605
O6    O     O_R   0.539390 0.590760 0.449230 -0.625005
O7    O     O_R   0.551070 0.408650 0.459720 -0.642440
O8    O     O_R   0.448930 0.409280 0.358210 -0.557422
C3    C     C_R   0.618296 0.616690 0.496776 0.935052
C4    C     C_R   0.497412 0.377669 0.380253 0.955773
H1    H     H_    0.497193 0.758551 0.624342 0.158752
C5    C     C_R   0.486943 0.592847 0.763482 -0.178283
H2    H     H_    0.474160 0.535885 0.709853 0.149278
C6    C     C_R   0.493021 0.587987 0.837936 -0.138212
H3    H     H_    0.486784 0.529437 0.841097 0.136143
C7    C     C_R   0.507888 0.658622 0.908504 -0.134414
H4    H     H_    0.514239 0.655362 0.966902 0.139354
C8    C     C_R   0.513804 0.733262 0.903768 -0.175923
H5    H     H_    0.526566 0.786933 0.960654 0.153025
C9    C     C_R   0.504767 0.738245 0.827542 0.098957
C10   C     C_R   0.495833 0.669276 0.758630 0.100473
C11   C     C_R   0.494960 0.678710 0.686387 -0.106823
C12   C     C_R   0.497669 0.751753 0.679880 -0.205077
H6    H     H_    0.502886 0.872996 0.738720 0.159726
C13   C     C_R   0.502588 0.817333 0.745414 -0.205583
C14   C     C_R   0.505432 0.810660 0.818242 -0.105818
C15   C     C_2   0.173341 0.178585 0.418598 -0.163295
C16   C     C_2   0.174824 0.188347 0.493049 -0.386629
H7    H     H_    0.124354 0.120009 0.356749 0.186421
H8    H     H_    0.218818 0.250979 0.552532 0.159763
C17   C     C_2   0.237095 0.251939 0.421818 -0.131328
C18   C     C_2   0.321746 0.289809 0.478035 0.005260
H9    H     H_    0.213100 0.280505 0.384144 0.171039
C19   C     C_2   0.426214 0.166148 0.188570 -0.210982
C20   C     C_2   0.492260 0.184505 0.173046 -0.407149
H10   H     H_    0.373683 0.099603 0.155257 0.205629
H11   H     H_    0.540756 0.251443 0.199441 0.164873
C21   C     C_2   0.421020 0.236306 0.247179 0.363310
C22   C     C_2   0.494598 0.307279 0.315508 -0.473386
H12   H     H_    0.556066 0.309566 0.330672 0.141877
C23   C     C_2   0.817160 0.739080 0.491205 -0.154920
C24   C     C_2   0.823150 0.817082 0.510247 -0.327902
H13   H     H_    0.859695 0.722060 0.471579 0.164968
H14   H     H_    0.787656 0.837728 0.539407 0.158509
C25   C     C_2   0.755636 0.677433 0.501888 -0.150909
C26   C     C_2   0.680634 0.675223 0.486258 -0.333445
H15   H     H_    0.770750 0.632458 0.519931 0.166498
H16   H     H_    0.661334 0.712964 0.458521 0.156183
O9    O     O_R   0.460650 0.048500 0.906910 -0.625495
O10   O     O_R   0.358520 0.946380 0.906940 -0.610956
C27   C     C_R   0.381683 0.996055 0.876085 0.943141
O11   O     O_R   0.551120 0.956920 0.905770 -0.618899
O12   O     O_R   0.449000 0.854790 0.905800 -0.627653
C28   C     C_R   0.502651 0.877257 0.880243 0.872280
Zn3   Zn    Zn3+2 0.568250 0.065080 0.996810 0.962819
Zn4   Zn    Zn3+2 0.431870 0.928710 0.996840 0.949381
O13   O     O_R   0.641600 0.047410 0.086710 -0.612350
O14   O     O_R   0.539480 0.945290 0.086740 -0.639129
O15   O     O_R   0.551130 0.138990 0.087850 -0.622435
O16   O     O_R   0.449000 0.036870 0.087880 -0.621986
C29   C     C_R   0.618796 0.998974 0.118451 0.913715
C30   C     C_R   0.498335 0.116991 0.114742 0.960810
O17   O     O_R   0.909540 0.051950 0.461490 -0.621966
O18   O     O_R   0.909530 0.949160 0.358700 -0.622591
C31   C     C_R   0.878497 0.997931 0.381329 0.948391
O19   O     O_R   0.090460 0.141840 0.551380 -0.619965
O20   O     O_R   0.090460 0.039050 0.448590 -0.611648
C32   C     C_R   0.116072 0.119521 0.497417 0.946578
Zn5   Zn    Zn3+2 0.000000 0.068630 0.568630 0.961990
Zn6   Zn    Zn3+2 1.000000 0.931370 0.431370 0.959923
O21   O     O_R   0.090470 0.050840 0.641300 -0.619712
O22   O     O_R   0.090460 0.948050 0.538510 -0.618947
O23   O     O_R   0.909540 0.960950 0.551410 -0.623896
O24   O     O_R   0.909540 0.858160 0.448620 -0.620272
C33   C     C_R   0.116943 0.997515 0.618718 0.929590
C34   C     C_R   0.883042 0.881060 0.502257 0.927899
C35   C     C_2   0.181751 0.920838 0.673198 -0.156157
C36   C     C_2   0.176662 0.993328 0.686632 -0.329209
H17   H     H_    0.138521 0.861136 0.610917 0.165430
H18   H     H_    0.212895 0.049714 0.751437 0.162396
C37   C     C_2   0.243371 0.920359 0.744958 -0.149077
C38   C     C_2   0.319123 0.992837 0.803874 -0.334132
H19   H     H_    0.227777 0.860122 0.747742 0.168224
H20   H     H_    0.338703 0.049934 0.795480 0.156044
C39   C     C_2   0.754213 0.018176 0.332197 -0.148929
C40   C     C_2   0.803505 0.986481 0.314059 -0.393502
H21   H     H_    0.769408 0.052944 0.399115 0.181688
H22   H     H_    0.785171 0.945679 0.247126 0.163091
C41   C     C_2   0.678029 0.004445 0.260883 0.187760
C42   C     C_2   0.685435 0.008010 0.192599 -0.409123
H23   H     H_    0.747429 0.028030 0.195193 0.153453
C43   C     C_3   0.360158 0.243343 0.518961 -0.392193
C44   C     C_3   0.407855 0.211989 0.476068 -0.803522
H24   H     H_    0.363363 0.167195 0.405070 0.282375
H25   H     H_    0.463316 0.267537 0.486156 0.268860
H26   H     H_    0.432665 0.176198 0.504930 0.235426
H27   H     H_    0.405097 0.288408 0.589859 0.201678
H28   H     H_    0.311611 0.185022 0.512700 0.231603
N1    N     N_R   0.337883 0.223251 0.234810 0.210757
O25   O     O_R   0.283839 0.151895 0.226278 -0.416632
O26   O     O_R   0.309570 0.271569 0.212584 -0.363089
C45   C     C_3   0.596588 0.991202 0.266367 -0.332416
C46   C     C_3   0.602928 0.999248 0.352561 -0.913503
H29   H     H_    0.619315 0.951295 0.365630 0.265555
H30   H     H_    0.652040 0.066431 0.406878 0.258109
H31   H     H_    0.539866 0.985687 0.348967 0.258816
H32   H     H_    0.579802 0.040068 0.256087 0.205625
H33   H     H_    0.542916 0.924967 0.213787 0.224309

loop_
_geom_bond_atom_site_label_1
_geom_bond_atom_site_label_2
_geom_bond_distance
_ccdc_geom_bond_type
C19   H10   1.086589 S    
C41   C42   1.350970 D    
C43   H28   1.105953 S    
C12   C13   1.372189 A    
Zn5   O21   2.004359 S    
C17   C18   1.347556 D    
O22   C33   1.282010 A    
C21   N1    1.436622 S    
C33   C36   1.437036 S    
C35   C36   1.336147 D    
O9    Zn3   2.009206 S    
C16   C32   1.439834 S    
C45   H33   1.110768 S    
C23   C24   1.335976 D    
Zn1   O7    2.009477 S    
C11   C12   1.393136 A    
Zn6   O22   1.999597 S    
H6    C13   1.084365 S    
C17   H9    1.086026 S    
C19   C21   1.467160 S    
C19   C20   1.339217 D    
O7    C4    1.272116 A    
O24   C34   1.282412 A    
C45   C46   1.529181 S    
O18   Zn6   2.004360 S    
Zn4   O14   2.009335 S    
C6    H3    1.082523 S    
O5    C3    1.277590 A    
C44   H25   1.109117 S    
H1    C12   1.084352 S    
C5    H2    1.080929 S    
C25   H15   1.086476 S    
C26   H16   1.087061 S    
C46   H29   1.110914 S    
C15   H7    1.086166 S    
O17   Zn5   1.999595 S    
C39   H21   1.085363 S    
C6    C7    1.390477 A    
O9    C27   1.270013 A    
O15   C30   1.273473 A    
C43   H27   1.111255 S    
C46   H30   1.110563 S    
O3    Zn1   2.014084 S    
C35   H17   1.086466 S    
C44   H24   1.111036 S    
C45   H32   1.112064 S    
C23   H13   1.086431 S    
C24   H14   1.087110 S    
Zn3   O13   1.993783 S    
C37   H19   1.086494 S    
C9    C10   1.406645 A    
O3    C2    1.270026 A    
O18   C31   1.276045 A    
O12   Zn4   2.013329 S    
O10   Zn4   1.993782 S    
C10   C11   1.414006 A    
C37   C38   1.336520 D    
O1    C1    1.272224 A    
C16   H8    1.088602 S    
C22   H12   1.086292 S    
C13   C14   1.392947 A    
C41   C45   1.525406 S    
O4    Zn2   2.009475 S    
C18   C43   1.532556 S    
C40   H22   1.087158 S    
C15   C16   1.334053 D    
C23   C25   1.461380 S    
Zn2   O8    2.014083 S    
C43   C44   1.529438 S    
O19   Zn5   2.002246 S    
C2    C11   1.429039 S    
N1    O26   1.300636 A    
C5    C6    1.394036 A    
C29   C42   1.443751 S    
C7    C8    1.394027 A    
C36   H18   1.087096 S    
C20   C30   1.441999 S    
C8    C9    1.415965 A    
C21   C22   1.345925 D    
C31   C40   1.441916 S    
C44   H26   1.110492 S    
O23   C34   1.273625 A    
C5    C10   1.415990 A    
Zn1   O5    1.992762 S    
O10   C27   1.277128 A    
O14   C29   1.277425 A    
O1    Zn1   2.008079 S    
O2    Zn2   1.992761 S    
O8    C4    1.276866 A    
O6    C3    1.270236 A    
O20   Zn6   1.999323 S    
Zn3   O15   2.013115 S    
O11   Zn3   2.010325 S    
Zn4   O16   2.010327 S    
C27   C38   1.437029 S    
O2    C1    1.285431 A    
O20   C32   1.285214 A    
C24   C34   1.436531 S    
O12   C28   1.269436 A    
O4    C2    1.272184 A    
C1    C18   1.464924 S    
C14   C28   1.428890 S    
C15   C17   1.460843 S    
C46   H31   1.110523 S    
O11   C28   1.271820 A    
C38   H20   1.087061 S    
C39   C41   1.475235 S    
C42   H23   1.087331 S    
C9    C14   1.414038 A    
C3    C26   1.436751 S    
O13   C29   1.271332 A    
C7    H4    1.082521 S    
C20   H11   1.086297 S    
Zn2   O6    2.008077 S    
C25   C26   1.336734 D    
Zn6   O24   2.002251 S    
N1    O25   1.300775 A    
Zn5   O23   1.999326 S    
C8    H5    1.080927 S    
O19   C32   1.272349 A    
O17   C31   1.282232 A    
C39   C40   1.338091 D    
O21   C33   1.274137 A    
C35   C37   1.460972 S    
O16   C30   1.276170 A    
C4    C22   1.439690 S    
