data_mof_unit_48559.cif
_audit_creation_date              2012-12-10T17:10:27-0500
_audit_creation_method            fapswitch 2.2
_symmetry_space_group_name_H-M    P1
_symmetry_Int_Tables_number       1
_space_group_crystal_system       triclinic
_cell_length_a                    10.783719
_cell_length_b                    12.978494
_cell_length_c                    11.676592
_cell_angle_alpha                 99.699964
_cell_angle_beta                  93.474267
_cell_angle_gamma                 90.331115
_cell_volume                      1607.67784307

loop_
_atom_site_label
_atom_site_type_symbol
_atom_type_description
_atom_site_fract_x
_atom_site_fract_y
_atom_site_fract_z
_atom_type_partial_charge
C1    C     C_R   0.495824 0.299141 0.478850 0.779559
C2    C     C_R   0.500613 0.700890 0.521308 0.778501
C3    C     C_R   0.498536 0.814279 0.533975 -0.037929
C4    C     C_R   0.486936 0.185934 0.467237 -0.053497
C5    C     C_R   0.448658 0.016043 0.348132 -0.220767
C6    C     C_R   0.526077 0.984566 0.654635 -0.231089
C7    C     C_R   0.456955 0.124106 0.358300 -0.178724
C8    C     C_R   0.524973 0.876373 0.643421 -0.184233
C9    C     C_R   0.506813 0.139322 0.566306 -0.300534
C10   C     C_R   0.470481 0.860934 0.436105 -0.247664
C11   C     C_R   0.500871 0.031341 0.556527 0.181743
C12   C     C_R   0.471990 0.969141 0.446522 0.183068
C13   C     C_R   0.388381 0.397571 0.022034 -0.335590
C14   C     C_R   0.611651 0.602372 0.977957 -0.335695
C15   C     C_R   0.398404 0.407904 0.144201 0.097657
C16   C     C_R   0.601606 0.592076 0.855800 0.093789
C17   C     C_R   0.547309 0.544949 0.156918 0.031723
C18   C     C_R   0.452714 0.455017 0.843068 0.028789
C19   C     C_R   0.540308 0.537366 0.034120 0.065660
C20   C     C_R   0.459716 0.462584 0.965867 0.065774
C21   C     C_R   0.262929 0.500092 0.500542 0.795749
C22   C     C_R   0.737209 0.499451 0.499353 0.797392
C23   C     C_R   0.134499 0.691602 0.561417 -0.197776
C24   C     C_R   0.866111 0.308472 0.428405 -0.254476
C25   C     C_R   0.074243 0.786143 0.592813 0.509652
C26   C     C_R   0.928972 0.214956 0.395908 0.496269
C27   C     C_R   0.943764 0.785079 0.593149 -0.275188
C28   C     C_R   0.058187 0.216016 0.397639 -0.210911
C29   C     C_R   0.876726 0.691187 0.563648 -0.223850
C30   C     C_R   0.124756 0.309140 0.433477 -0.252797
C31   C     C_R   0.937647 0.595175 0.532325 0.072872
C32   C     C_R   0.062992 0.404573 0.466464 0.075152
C33   C     C_R   0.068024 0.595372 0.532487 -0.011456
C34   C     C_R   0.932298 0.404358 0.464293 0.008055
C35   C     C_R   0.871015 0.499649 0.498306 -0.133192
C36   C     C_R   0.129287 0.499893 0.501154 -0.131688
Cu1   Cu    Cu3+1 0.509250 0.507730 0.615930 0.935579
Cu2   Cu    Cu3+1 0.490750 0.492270 0.384070 0.941188
H1    H     H_    0.107272 0.144170 0.371278 0.163962
H2    H     H_    0.892699 0.856493 0.613783 0.127590
H3    H     H_    0.325452 0.339129 0.972028 0.137790
H4    H     H_    0.674606 0.660784 0.027963 0.140351
H5    H     H_    0.234572 0.694904 0.559409 0.147614
H6    H     H_    0.765673 0.304843 0.424475 0.146067
H7    H     H_    0.776575 0.695119 0.563858 0.144126
H8    H     H_    0.224926 0.305387 0.434275 0.147609
H9    H     H_    0.449153 0.813263 0.351514 0.151725
H10   H     H_    0.529641 0.186726 0.650777 0.157012
H11   H     H_    0.546399 0.841425 0.720071 0.152575
H12   H     H_    0.439807 0.159166 0.281089 0.155147
H13   H     H_    0.426343 0.969193 0.263338 0.137529
H14   H     H_    0.548062 0.031493 0.739453 0.135019
H15   H     H_    0.390668 0.397961 0.789738 0.121720
H16   H     H_    0.609372 0.601993 0.210241 0.122590
H17   H     H_    0.656794 0.642660 0.813437 0.123541
H18   H     H_    0.343215 0.357326 0.186572 0.124249
N1    N     N_R   0.523180 0.519350 0.790130 -0.180374
N2    N     N_R   0.476820 0.480650 0.209870 -0.180702
O1    O     O_R   0.506570 0.354460 0.582000 -0.589605
O2    O     O_R   0.493430 0.645540 0.418000 -0.589225
O3    O     O_R   0.490940 0.341410 0.386200 -0.594031
O4    O     O_R   0.509060 0.658590 0.613800 -0.595330
O5    O     O_R   0.327470 0.506520 0.597900 -0.580268
O6    O     O_R   0.672530 0.493480 0.402100 -0.576298
O7    O     O_R   0.311840 0.493460 0.402100 -0.579432
O8    O     O_R   0.688160 0.506540 0.597900 -0.582128
O9    O     O_3   0.146852 0.877146 0.611973 -0.579042
C37   C     C_3   0.104064 0.953248 0.701408 0.065274
H19   H     H_    0.077560 0.918063 0.777423 0.138053
H20   H     H_    0.023837 0.994967 0.667581 0.132917
C38   C     C_3   0.207559 0.033391 0.743085 -0.773791
H21   H     H_    0.236253 0.070278 0.669395 0.256326
H22   H     H_    0.174576 0.095092 0.811813 0.190309
H23   H     H_    0.288934 0.994843 0.779554 0.249887
O10   O     O_3   0.864192 0.122872 0.354710 -0.578297
C39   C     C_3   0.833118 0.076634 0.450411 0.053526
H24   H     H_    0.757787 0.121090 0.496507 0.152977
H25   H     H_    0.914743 0.073461 0.513063 0.130659
C40   C     C_3   0.787558 0.965057 0.406395 -0.751035
H26   H     H_    0.865044 0.916794 0.369654 0.246557
H27   H     H_    0.752058 0.930783 0.479157 0.198140
H28   H     H_    0.711656 0.964018 0.337618 0.257601

loop_
_geom_bond_atom_site_label_1
_geom_bond_atom_site_label_2
_ccdc_geom_bond_type
C27   C29   A    
C19   C20   A    
C25   O9    S    
C39   C40   S    
C13   H3    S    
Cu1   O4    S    
C21   C36   S    
C22   C35   S    
C32   C36   A    
C39   H25   S    
C1    O1    A    
C2    O2    A    
C33   C36   A    
C23   H5    S    
C34   C35   A    
C22   O8    A    
C18   H15   S    
Cu2   N2    S    
C37   H19   S    
C23   C33   A    
C31   C33   A    
C17   N2    A    
C14   H4    S    
Cu2   O3    S    
C4    C7    A    
Cu1   O5    S    
Cu2   O6    S    
O9    C37   S    
C39   H24   S    
C5    C12   A    
C3    C8    A    
C6    C11   A    
C40   H27   S    
C6    C8    A    
C28   H1    S    
C24   C34   A    
C29   H7    S    
C32   C34   A    
O10   C39   S    
Cu1   Cu2   S    
C38   H23   S    
C5    C7    A    
C18   N1    A    
Cu2   O7    S    
C27   H2    S    
Cu1   O8    S    
C26   O10   S    
C9    C11   A    
Cu1   O1    S    
C10   C12   A    
Cu2   O2    S    
C13   C15   A    
C24   H6    S    
C15   N2    A    
C14   C16   A    
C38   H22   S    
C13   C20   A    
C21   O7    A    
C14   C19   A    
C30   H8    S    
C7    H12   S    
C24   C26   A    
C1    O3    A    
C40   H28   S    
C11   C12   A    
C25   C27   A    
C26   C28   A    
C1    C4    S    
C15   H18   S    
C28   C30   A    
C2    C3    S    
C16   H17   S    
C38   H21   S    
C29   C31   A    
C3    C10   A    
C30   C32   A    
C37   C38   S    
C17   H16   S    
C31   C35   A    
C17   C19   A    
C18   C20   A    
C16   N1    A    
C23   C25   A    
C21   O5    A    
C22   O6    A    
C40   H26   S    
C9    H10   S    
C37   H20   S    
C10   H9    S    
C5    H13   S    
C6    H14   S    
C4    C9    A    
C8    H11   S    
Cu1   N1    S    
C2    O4    A    
