data_mof_unit_35427.cif
_audit_creation_date              2012-12-10T18:32:02-0500
_audit_creation_method            fapswitch 2.2
_symmetry_space_group_name_H-M    P1
_symmetry_Int_Tables_number       1
_space_group_crystal_system       triclinic
_cell_length_a                    10.601557
_cell_length_b                    14.904265
_cell_length_c                    15.412869
_cell_angle_alpha                 81.901658
_cell_angle_beta                  91.989052
_cell_angle_gamma                 102.420481
_cell_volume                      2354.62227688

loop_
_atom_site_label
_atom_site_type_symbol
_atom_type_description
_atom_site_fract_x
_atom_site_fract_y
_atom_site_fract_z
_atom_type_partial_charge
C1    C     C_R   0.486645 0.442153 0.662325 0.850399
C2    C     C_3   0.121377 0.499149 0.504193 0.145475
C3    C     C_3   0.069198 0.505427 0.408953 -0.377093
C4    C     C_3   0.098773 0.583030 0.546541 -0.369362
C5    C     C_R   0.504573 0.408450 0.754713 -0.066207
C6    C     C_R   0.560201 0.591052 0.245798 -0.118816
C7    C     C_R   0.521943 0.285869 0.872479 -0.086817
C8    C     C_R   0.494916 0.314196 0.784967 -0.198056
C9    C     C_R   0.544487 0.473919 0.811747 -0.232500
C10   C     C_R   0.575478 0.447563 0.898731 0.036648
C11   C     C_R   0.560203 0.351683 0.930898 0.018106
C12   C     C_R   0.741606 0.499089 0.502428 0.805390
C13   C     C_R   0.611738 0.514760 0.955941 0.087264
C14   C     C_R   0.595909 0.485352 0.046082 -0.010904
C15   C     C_R   0.589154 0.391080 0.078191 -0.322603
C16   C     C_R   0.580387 0.325093 0.020916 0.379480
C17   C     C_R   0.661819 0.609844 0.926774 -0.203625
C18   C     C_R   0.689178 0.673719 0.986475 -0.184338
C19   C     C_R   0.653860 0.645801 0.074232 0.122029
C20   C     C_R   0.594918 0.552226 0.102056 -0.010001
C21   C     C_R   0.675838 0.709283 0.134799 -0.189121
C22   C     C_R   0.635697 0.680331 0.221413 -0.217861
C23   C     C_R   0.522585 0.557788 0.337586 0.941454
C24   C     C_R   0.532034 0.529177 0.183600 0.363264
C25   C     C_R   0.657557 0.821438 0.667341 -0.277448
C26   C     C_R   0.632212 0.738217 0.632350 -0.066677
C27   C     C_R   0.548351 0.809668 0.500785 0.491755
C28   C     C_R   0.592484 0.898900 0.529529 -0.104280
C29   C     C_R   0.633479 0.901623 0.617181 0.025685
C30   C     C_R   0.586950 0.984806 0.477443 0.081384
C31   C     C_R   0.576600 0.063184 0.517350 -0.016992
C32   C     C_R   0.621835 0.064926 0.605416 0.405616
C33   C     C_R   0.650913 0.984669 0.653412 -0.168585
C34   C     C_R   0.258071 0.499316 0.502352 0.855907
C35   C     C_R   0.599278 0.997146 0.386309 -0.141554
C36   C     C_R   0.546948 0.064288 0.335379 -0.027553
C37   C     C_R   0.496017 0.127313 0.375295 0.020657
C38   C     C_R   0.520763 0.133412 0.465871 -0.071141
C39   C     C_R   0.422380 0.184296 0.325678 0.380889
C40   C     C_R   0.384216 0.253744 0.364764 0.459786
C41   C     C_R   0.483427 0.207098 0.499698 -0.153375
C42   C     C_3   0.902908 0.408684 0.559034 -0.385648
C43   C     C_3   0.047699 0.408665 0.558761 -0.399226
C44   C     C_3   0.924383 0.504709 0.408940 -0.408019
C45   C     C_3   0.955572 0.583322 0.545749 -0.396141
C46   C     C_3   0.878220 0.498840 0.504116 0.175789
H1    H     H_    0.848361 0.346548 0.531284 0.183182
H2    H     H_    0.150531 0.649713 0.510039 0.238063
H3    H     H_    0.905970 0.568835 0.368742 0.167239
H4    H     H_    0.121394 0.570212 0.369282 0.201594
H5    H     H_    0.664047 0.727671 0.269031 0.218513
H6    H     H_    0.733101 0.745378 0.963414 0.149407
H7    H     H_    0.508816 0.212274 0.893954 0.211892
H8    H     H_    0.466248 0.262438 0.741233 0.180325
H9    H     H_    0.546323 0.545971 0.788529 0.154843
H10   H     H_    0.869507 0.403625 0.627591 0.171430
H11   H     H_    0.595862 0.369488 0.147951 0.230992
H12   H     H_    0.687253 0.634967 0.859042 0.131562
H13   H     H_    0.727278 0.780142 0.115915 0.170698
H14   H     H_    0.686912 0.987381 0.719913 0.178795
H15   H     H_    0.502100 0.219455 0.566419 0.204153
H16   H     H_    0.541996 0.063932 0.265183 0.252779
H17   H     H_    0.695702 0.822927 0.733404 0.154879
H18   H     H_    0.654761 0.677386 0.671027 0.151657
H19   H     H_    0.085227 0.403108 0.627239 0.167029
H20   H     H_    0.643269 0.951820 0.354463 0.190417
H21   H     H_    0.061574 0.346706 0.530549 0.193889
H22   H     H_    0.870265 0.444452 0.378166 0.185056
H23   H     H_    0.085066 0.445914 0.377556 0.181193
H24   H     H_    0.940565 0.649531 0.507633 0.197613
H25   H     H_    0.922397 0.580758 0.614023 0.173347
H26   H     H_    0.135590 0.579184 0.615239 0.170968
N1    N     N_R   0.573860 0.731700 0.552730 -0.148483
N2    N     N_R   0.426060 0.268290 0.447230 -0.183980
O1    O     O_R   0.462770 0.383110 0.605620 -0.619424
O2    O     O_R   0.510160 0.531900 0.639510 -0.637564
O3    O     O_R   0.661510 0.425600 0.483070 -0.627135
O4    O     O_R   0.708900 0.574390 0.516960 -0.637948
O5    O     O_R   0.489840 0.468100 0.360490 -0.550503
O6    O     O_R   0.537230 0.616890 0.394380 -0.560953
O7    O     O_R   0.291100 0.425610 0.483040 -0.654035
O8    O     O_R   0.338490 0.574400 0.516930 -0.560181
Zn1   Zn    Zn3+2 0.468350 0.400660 0.477370 0.955649
Zn2   Zn    Zn3+2 0.531650 0.599340 0.522630 0.996936
S1    S     S_3+6 0.596502 0.211663 0.064232 0.025663
O9    O     O_2   0.465983 0.147334 0.067616 -0.234879
O10   O     O_2   0.683543 0.178240 0.006846 -0.302393
O11   O     O_3   0.659842 0.210709 0.165807 -0.551421
H27   H     H_    0.749565 0.247049 0.157755 0.354017
O12   O     O_3   0.435892 0.450386 0.201467 -0.717393
H28   H     H_    0.392855 0.434737 0.145781 0.349181
O13   O     O_3   0.308693 0.308239 0.318203 -0.741553
H29   H     H_    0.277965 0.344143 0.359077 0.373458
S2    S     S_3+6 0.440121 0.799809 0.407918 0.007494
O14   O     O_2   0.515563 0.812116 0.324947 -0.363804
O15   O     O_2   0.345458 0.709805 0.411898 -0.293160
O16   O     O_3   0.351764 0.881852 0.401476 -0.567871
H30   H     H_    0.313442 0.884131 0.341873 0.392001
O17   O     O_3   0.654072 0.144869 0.643583 -0.779962
H31   H     H_    0.696011 0.194918 0.597761 0.320625
O18   O     O_3   0.388745 0.169840 0.240439 -0.689026
H32   H     H_    0.341856 0.217238 0.212751 0.392093

loop_
_geom_bond_atom_site_label_1
_geom_bond_atom_site_label_2
_ccdc_geom_bond_type
C44   H3    S    
O18   H32   S    
C45   H25   S    
C19   C20   A    
C41   H15   S    
N2    Zn1   S    
O6    Zn2   S    
O2    Zn2   S    
O16   H30   S    
C18   H6    S    
C7    C8    A    
C45   C46   S    
C7    C11   A    
C30   C35   A    
C1    C5    S    
C28   C29   A    
C3    H23   S    
C21   H13   S    
C42   C46   S    
C30   C31   A    
O3    Zn1   S    
C15   C16   A    
C6    C22   A    
C29   C33   A    
C26   N1    A    
C18   C19   A    
C25   H17   S    
C26   H18   S    
C42   H10   S    
C41   N2    A    
C35   C36   A    
C12   O4    A    
C9    H9    S    
C34   O7    A    
C13   C14   A    
C23   O6    A    
C9    C10   A    
N1    Zn2   S    
C17   H12   S    
C2    C34   S    
C21   C22   A    
C15   H11   S    
C36   H16   S    
O7    Zn1   S    
C3    H4    S    
C44   C46   S    
C39   O18   S    
C4    C45   S    
S1    O10   D    
C25   C29   A    
C3    C44   S    
C1    O1    A    
C14   C20   A    
C38   C41   A    
C12   C46   S    
C8    H8    S    
C39   C40   A    
C35   H20   S    
C25   C26   A    
S1    O9    D    
C2    C4    S    
C5    C9    A    
C37   C38   A    
C11   C16   A    
C31   C32   A    
C2    C43   S    
C43   H19   S    
C6    C24   A    
C12   O3    A    
C17   C18   A    
C40   O13   S    
S2    O15   D    
C33   H14   S    
O8    Zn2   S    
C16   S1    S    
C44   H22   S    
C42   C43   S    
C7    H7    S    
C4    H26   S    
C4    H2    S    
S1    O11   S    
C36   C37   A    
C19   C21   A    
C45   H24   S    
C1    O2    A    
C10   C13   A    
C24   O12   S    
C5    C8    A    
C32   O17   S    
S2    O16   S    
C31   C38   A    
C13   C17   A    
C32   C33   A    
C28   C30   A    
C2    C3    S    
C37   C39   A    
O17   H31   S    
O5    Zn1   S    
O1    Zn1   S    
O12   H28   S    
C6    C23   S    
O13   H29   S    
C40   N2    A    
C42   H1    S    
S2    O14   D    
C10   C11   A    
O4    Zn2   S    
O11   H27   S    
C43   H21   S    
C27   C28   A    
C14   C15   A    
C27   S2    S    
C34   O8    A    
C23   O5    A    
C27   N1    A    
C20   C24   A    
C22   H5    S    
