data_mof_unit_59021.cif
_audit_creation_date              2013-03-05T15:48:20-0500
_audit_creation_method            fapswitch 2.2
_symmetry_space_group_name_H-M    P1
_symmetry_Int_Tables_number       1
_space_group_crystal_system       triclinic
_cell_length_a                    21.785733
_cell_length_b                    21.785735
_cell_length_c                    38.795978
_cell_angle_alpha                 90.002664
_cell_angle_beta                  90.000066
_cell_angle_gamma                 89.99855
_cell_volume                      18413.2774494

loop_
_atom_site_label
_atom_site_type_symbol
_atom_site_description
_atom_site_fract_x
_atom_site_fract_y
_atom_site_fract_z
_atom_type_partial_charge
O1    O     O_R   0.552090 0.090090 0.500110 -0.579902
O2    O     O_R   0.909910 0.552090 0.500110 -0.580007
O3    O     O_R   0.447910 0.909910 0.500110 -0.579972
O4    O     O_R   0.090090 0.447910 0.500110 -0.579934
O5    O     O_R   0.552090 0.909910 0.499890 -0.579858
O6    O     O_R   0.909910 0.447910 0.499890 -0.579922
O7    O     O_R   0.447910 0.090090 0.499890 -0.579950
O8    O     O_R   0.090090 0.552090 0.499890 -0.579932
O9    O     O_R   0.052090 0.590090 0.000110 -0.579893
O10   O     O_R   0.409910 0.052090 0.000110 -0.579926
O11   O     O_R   0.947910 0.409910 0.000110 -0.579946
O12   O     O_R   0.590090 0.947910 0.000110 -0.579941
O13   O     O_R   0.052090 0.409910 0.999890 -0.579909
O14   O     O_R   0.409910 0.947910 0.999890 -0.579936
O15   O     O_R   0.947910 0.590090 0.999890 -0.579925
O16   O     O_R   0.590090 0.052090 0.999890 -0.579896
C1    C     C_R   0.499999 0.118638 0.499999 0.791968
C2    C     C_R   0.881362 0.500001 0.500000 0.791980
C3    C     C_R   0.500000 0.881363 0.500000 0.791966
C4    C     C_R   0.118638 0.499999 0.499999 0.791978
C5    C     C_R   0.999999 0.618637 0.999999 0.791982
C6    C     C_R   0.381362 0.000001 0.000001 0.791975
C7    C     C_R   0.000001 0.381363 0.999999 0.791996
C8    C     C_R   0.618637 0.999999 0.000000 0.791969
O17   O     O_R   0.552090 0.999930 0.450180 -0.587076
O18   O     O_R   0.000070 0.552090 0.450180 -0.587029
O19   O     O_R   0.447910 0.000070 0.450180 -0.587144
O20   O     O_R   0.999930 0.447910 0.450180 -0.587016
O21   O     O_R   0.552090 0.000070 0.549820 -0.587063
O22   O     O_R   0.000070 0.447910 0.549820 -0.587106
O23   O     O_R   0.447910 0.999930 0.549820 -0.587110
O24   O     O_R   0.999930 0.552090 0.549820 -0.587144
O25   O     O_R   0.052090 0.499930 0.950180 -0.587133
O26   O     O_R   0.500070 0.052090 0.950180 -0.587073
O27   O     O_R   0.947910 0.500070 0.950180 -0.587097
O28   O     O_R   0.499930 0.947910 0.950180 -0.587109
O29   O     O_R   0.052090 0.500070 0.049820 -0.587138
O30   O     O_R   0.500070 0.947910 0.049820 -0.587105
O31   O     O_R   0.947910 0.499930 0.049820 -0.587197
O32   O     O_R   0.499930 0.052090 0.049820 -0.587132
C9    C     C_R   0.500000 0.000001 0.433822 0.770427
C10   C     C_R   0.999999 0.499999 0.433821 0.770401
C11   C     C_R   0.500000 0.999999 0.566179 0.770430
C12   C     C_R   0.000001 0.500001 0.566178 0.770459
C13   C     C_R   0.000000 0.500000 0.933821 0.770433
C14   C     C_R   0.499999 0.999999 0.933821 0.770424
C15   C     C_R   1.000000 0.499998 0.066181 0.770470
C16   C     C_R   0.499999 0.000001 0.066178 0.770429
Cu1   Cu    Cu3+1 0.561710 1.000000 0.500000 0.959596
Cu2   Cu    Cu3+1 1.000000 0.561710 0.500000 0.959391
Cu3   Cu    Cu3+1 0.438290 1.000000 0.500000 0.959402
Cu4   Cu    Cu3+1 1.000000 0.438290 0.500000 0.959489
Cu5   Cu    Cu3+1 0.061710 0.500000 0.000000 0.959455
Cu6   Cu    Cu3+1 0.500000 0.061710 0.000000 0.959477
Cu7   Cu    Cu3+1 0.938290 0.500000 0.000000 0.959386
Cu8   Cu    Cu3+1 0.500000 0.938290 0.000000 0.959419
Cu9   Cu    Cu3+1 0.500000 0.500000 0.534330 1.053394
Cu10  Cu    Cu3+1 0.500000 0.500000 0.465670 1.053291
Cu11  Cu    Cu3+1 0.000000 1.000000 0.034330 1.053306
Cu12  Cu    Cu3+1 0.000000 1.000000 0.965670 1.053316
C17   C     C_R   0.449181 0.022460 0.377510 -0.169307
C18   C     C_R   0.977320 0.449279 0.377512 -0.169298
C19   C     C_R   0.550813 0.977559 0.377505 -0.169266
C20   C     C_R   0.022669 0.550709 0.377512 -0.169309
C21   C     C_R   0.449186 0.977536 0.622491 -0.169282
C22   C     C_R   0.977469 0.550784 0.622492 -0.169342
C23   C     C_R   0.550811 0.022447 0.622495 -0.169261
C24   C     C_R   0.022543 0.449228 0.622490 -0.169323
C25   C     C_R   0.949162 0.522392 0.877505 -0.169272
C26   C     C_R   0.477585 0.949161 0.877506 -0.169268
C27   C     C_R   0.050845 0.477608 0.877506 -0.169282
C28   C     C_R   0.522403 0.050827 0.877506 -0.169254
C29   C     C_R   0.949026 0.477897 0.122497 -0.169249
C30   C     C_R   0.477564 0.050832 0.122492 -0.169303
C31   C     C_R   0.050968 0.522082 0.122502 -0.169220
C32   C     C_R   0.522423 0.949182 0.122494 -0.169284
H1    H     H_    0.409579 0.040164 0.391067 0.155753
H2    H     H_    0.959435 0.409760 0.391069 0.155679
H3    H     H_    0.590418 0.959850 0.391058 0.155780
H4    H     H_    0.040555 0.590230 0.391068 0.155684
H5    H     H_    0.409585 0.959827 0.608933 0.155775
H6    H     H_    0.959693 0.590354 0.608936 0.155696
H7    H     H_    0.590413 0.040158 0.608941 0.155778
H8    H     H_    0.040317 0.409655 0.608934 0.155717
H9    H     H_    0.909536 0.540050 0.891060 0.155815
H10   H     H_    0.459913 0.909544 0.891062 0.155800
H11   H     H_    0.090469 0.459949 0.891062 0.155789
H12   H     H_    0.540076 0.090446 0.891061 0.155812
H13   H     H_    0.909294 0.460482 0.108944 0.155933
H14   H     H_    0.459876 0.090441 0.108936 0.155761
H15   H     H_    0.090703 0.539500 0.108952 0.155951
H16   H     H_    0.540114 0.909569 0.108939 0.155790
C33   C     C_R   0.449395 0.023068 0.341506 -0.140789
C34   C     C_R   0.976714 0.449497 0.341508 -0.140813
C35   C     C_R   0.550593 0.976963 0.341501 -0.140821
C36   C     C_R   0.023269 0.550487 0.341508 -0.140797
C37   C     C_R   0.449400 0.976930 0.658494 -0.140827
C38   C     C_R   0.976870 0.550569 0.658495 -0.140759
C39   C     C_R   0.550592 0.023043 0.658498 -0.140840
C40   C     C_R   0.023148 0.449449 0.658494 -0.140767
C41   C     C_R   0.949382 0.522995 0.841502 -0.140814
C42   C     C_R   0.476982 0.949374 0.841503 -0.140830
C43   C     C_R   0.050633 0.477009 0.841503 -0.140796
C44   C     C_R   0.523001 0.050608 0.841502 -0.140841
C45   C     C_R   0.949236 0.477292 0.158502 -0.140855
C46   C     C_R   0.476958 0.050619 0.158496 -0.140795
C47   C     C_R   0.050754 0.522678 0.158506 -0.140878
C48   C     C_R   0.523021 0.949402 0.158498 -0.140811
H17   H     H_    0.409650 0.040919 0.328070 0.153034
H18   H     H_    0.958689 0.409835 0.328069 0.153001
H19   H     H_    0.590335 0.959119 0.328060 0.153005
H20   H     H_    0.041291 0.590146 0.328068 0.153006
H21   H     H_    0.409659 0.959077 0.671931 0.153022
H22   H     H_    0.958950 0.590283 0.671933 0.153047
H23   H     H_    0.590332 0.040891 0.671939 0.153000
H24   H     H_    0.041068 0.409737 0.671931 0.153049
H25   H     H_    0.909619 0.540795 0.828063 0.153027
H26   H     H_    0.459168 0.909616 0.828064 0.153004
H27   H     H_    0.090399 0.459208 0.828065 0.153026
H28   H     H_    0.540812 0.090363 0.828063 0.153001
H29   H     H_    0.909367 0.459729 0.171938 0.152990
H30   H     H_    0.459124 0.090371 0.171933 0.153028
H31   H     H_    0.090621 0.540236 0.171947 0.152972
H32   H     H_    0.540850 0.909653 0.171937 0.153015
C49   C     C_R   0.499992 0.000017 0.323128 0.049486
C50   C     C_R   0.999990 0.499990 0.323133 0.049486
C51   C     C_R   0.499995 0.999985 0.676872 0.049473
C52   C     C_R   0.000011 0.500011 0.676870 0.049496
C53   C     C_R   0.000010 0.500004 0.823127 0.049480
C54   C     C_R   0.499991 0.999989 0.823127 0.049468
C55   C     C_R   0.999993 0.499984 0.176879 0.049493
C56   C     C_R   0.499988 0.000013 0.176872 0.049485
C57   C     C_R   0.499998 0.000006 0.395816 -0.029028
C58   C     C_R   0.999996 0.499995 0.395819 -0.028892
C59   C     C_R   0.499999 0.999994 0.604184 -0.029036
C60   C     C_R   0.000004 0.500004 0.604183 -0.028919
C61   C     C_R   0.000002 0.500000 0.895815 -0.029091
C62   C     C_R   0.499996 0.999995 0.895816 -0.029103
C63   C     C_R   0.999998 0.499993 0.104189 -0.029312
C64   C     C_R   0.499996 0.000005 0.104184 -0.029051
N1    N     N_R   0.537976 0.962178 0.267163 -0.240202
N2    N     N_R   0.038073 0.537726 0.267172 -0.240166
N3    N     N_R   0.462003 0.037856 0.267166 -0.240070
N4    N     N_R   0.961908 0.462249 0.267170 -0.240125
N5    N     N_R   0.537970 0.037831 0.732836 -0.240202
N6    N     N_R   0.037896 0.462069 0.732833 -0.240091
N7    N     N_R   0.462016 0.962139 0.732834 -0.240142
N8    N     N_R   0.962131 0.537953 0.732836 -0.240050
N9    N     N_R   0.038058 0.462230 0.767161 -0.240097
N10   N     N_R   0.537806 0.037995 0.767165 -0.240213
N11   N     N_R   0.961968 0.537789 0.767164 -0.240159
N12   N     N_R   0.462178 0.961977 0.767162 -0.240171
N13   N     N_R   0.038235 0.537560 0.232843 -0.240224
N14   N     N_R   0.537812 0.962015 0.232835 -0.240191
N15   N     N_R   0.961746 0.462412 0.232842 -0.240159
N16   N     N_R   0.462165 0.038018 0.232837 -0.240078
C65   C     C_R   0.499989 0.000016 0.214974 0.415703
C66   C     C_R   0.999991 0.499985 0.214980 0.415707
C67   C     C_R   0.499991 0.999987 0.785026 0.415697
C68   C     C_R   0.000012 0.500008 0.785025 0.415692
C69   C     C_R   0.000013 0.500012 0.714972 0.415718
C70   C     C_R   0.499994 0.999985 0.714973 0.415705
C71   C     C_R   0.999990 0.499988 0.285033 0.415672
C72   C     C_R   0.499990 0.000017 0.285027 0.415704
C73   C     C_R   0.427118 0.187467 0.450939 -0.235181
C74   C     C_R   0.812526 0.427133 0.450936 -0.235307
C75   C     C_R   0.572799 0.812525 0.450908 -0.235243
C76   C     C_R   0.187470 0.572836 0.450926 -0.235293
C77   C     C_R   0.427163 0.812551 0.549080 -0.235260
C78   C     C_R   0.812533 0.572936 0.549038 -0.235188
C79   C     C_R   0.572824 0.187474 0.549080 -0.235281
C80   C     C_R   0.187463 0.427114 0.549056 -0.235238
C81   C     C_R   0.927223 0.687462 0.950893 -0.235303
C82   C     C_R   0.312533 0.927181 0.950913 -0.235284
C83   C     C_R   0.072845 0.312526 0.950925 -0.235225
C84   C     C_R   0.687462 0.072772 0.950897 -0.235289
C85   C     C_R   0.927190 0.312544 0.049089 -0.235192
C86   C     C_R   0.312524 0.072869 0.049066 -0.235209
C87   C     C_R   0.072751 0.687465 0.049114 -0.235244
C88   C     C_R   0.687466 0.927203 0.049095 -0.235301
C89   C     C_R   0.384151 0.218677 0.430612 -0.059655
C90   C     C_R   0.781309 0.384202 0.430589 -0.059789
C91   C     C_R   0.615696 0.781304 0.430540 -0.059813
C92   C     C_R   0.218687 0.615756 0.430573 -0.059797
C93   C     C_R   0.384237 0.781343 0.569433 -0.059734
C94   C     C_R   0.781327 0.615939 0.569346 -0.059578
C95   C     C_R   0.615736 0.218693 0.569439 -0.059818
C96   C     C_R   0.218674 0.384157 0.569389 -0.059653
C97   C     C_R   0.884334 0.718680 0.930520 -0.059831
C98   C     C_R   0.281316 0.884273 0.930550 -0.059833
C99   C     C_R   0.115781 0.281309 0.930580 -0.059708
C100  C     C_R   0.718680 0.115657 0.930522 -0.059843
C101  C     C_R   0.884271 0.281334 0.069447 -0.059782
C102  C     C_R   0.281310 0.115830 0.069397 -0.059678
C103  C     C_R   0.115629 0.718682 0.069495 -0.059856
C104  C     C_R   0.718684 0.884302 0.069459 -0.059797
C105  C     C_R   0.373993 0.281765 0.436318 0.344935
C106  C     C_R   0.718223 0.374024 0.436299 0.344842
C107  C     C_R   0.625885 0.718215 0.436244 0.344886
C108  C     C_R   0.281773 0.625934 0.436280 0.344856
C109  C     C_R   0.374099 0.718247 0.563750 0.344972
C110  C     C_R   0.718234 0.626060 0.563650 0.345017
C111  C     C_R   0.625928 0.281776 0.563727 0.344785
C112  C     C_R   0.281769 0.374028 0.563700 0.345040
C113  C     C_R   0.874146 0.781768 0.936222 0.344787
C114  C     C_R   0.218232 0.874083 0.936259 0.344789
C115  C     C_R   0.125947 0.218222 0.936283 0.344903
C116  C     C_R   0.781766 0.125850 0.936225 0.344805
C117  C     C_R   0.874095 0.218247 0.063744 0.344839
C118  C     C_R   0.218226 0.126006 0.063683 0.344866
C119  C     C_R   0.125831 0.781766 0.063789 0.344748
C120  C     C_R   0.781773 0.874123 0.063759 0.344827
C121  C     C_R   0.411166 0.312827 0.460089 -0.219860
C122  C     C_R   0.687174 0.411159 0.460097 -0.219984
C123  C     C_R   0.588789 0.687174 0.460062 -0.219941
C124  C     C_R   0.312823 0.588814 0.460083 -0.220015
C125  C     C_R   0.411227 0.687184 0.539959 -0.219882
C126  C     C_R   0.687166 0.588851 0.539903 -0.219800
C127  C     C_R   0.588819 0.312823 0.539917 -0.219964
C128  C     C_R   0.312830 0.411189 0.539928 -0.219815
C129  C     C_R   0.911234 0.812817 0.960042 -0.219962
C130  C     C_R   0.187181 0.911191 0.960071 -0.219984
C131  C     C_R   0.088810 0.187169 0.960074 -0.219835
C132  C     C_R   0.812814 0.088769 0.960048 -0.219960
C133  C     C_R   0.911211 0.187187 0.039943 -0.219898
C134  C     C_R   0.187171 0.088841 0.039904 -0.219856
C135  C     C_R   0.088760 0.812814 0.039960 -0.219915
C136  C     C_R   0.812822 0.911223 0.039948 -0.219937
C137  C     C_R   0.457646 0.282216 0.478944 0.030986
C138  C     C_R   0.717784 0.457634 0.478954 0.030999
C139  C     C_R   0.542336 0.717785 0.478938 0.031007
C140  C     C_R   0.282214 0.542349 0.478946 0.030935
C141  C     C_R   0.457672 0.717791 0.521075 0.030989
C142  C     C_R   0.717780 0.542366 0.521050 0.031005
C143  C     C_R   0.542353 0.282214 0.521053 0.030974
C144  C     C_R   0.282217 0.457651 0.521059 0.030973
C145  C     C_R   0.957679 0.782210 0.978924 0.031010
C146  C     C_R   0.217788 0.957652 0.978939 0.030963
C147  C     C_R   0.042347 0.217782 0.978941 0.031037
C148  C     C_R   0.782209 0.042324 0.978929 0.030991
C149  C     C_R   0.957667 0.217791 0.021069 0.030994
C150  C     C_R   0.217782 0.042357 0.021052 0.030992
C151  C     C_R   0.042318 0.782209 0.021075 0.031010
C152  C     C_R   0.782213 0.957672 0.021070 0.030983
C153  C     C_R   0.461551 0.217922 0.476705 0.075946
C154  C     C_R   0.782077 0.461547 0.476711 0.075974
C155  C     C_R   0.538421 0.782077 0.476696 0.075999
C156  C     C_R   0.217921 0.538436 0.476704 0.075989
C157  C     C_R   0.461575 0.782086 0.523308 0.075900
C158  C     C_R   0.782076 0.538469 0.523285 0.075887
C159  C     C_R   0.538435 0.217923 0.523297 0.075947
C160  C     C_R   0.217921 0.461551 0.523294 0.075905
C161  C     C_R   0.961592 0.717917 0.976683 0.075927
C162  C     C_R   0.282080 0.961569 0.976697 0.075933
C163  C     C_R   0.038438 0.282076 0.976701 0.075930
C164  C     C_R   0.717917 0.038407 0.976687 0.075939
C165  C     C_R   0.961580 0.282085 0.023307 0.075893
C166  C     C_R   0.282075 0.038447 0.023296 0.075915
C167  C     C_R   0.038398 0.717917 0.023318 0.075888
C168  C     C_R   0.717920 0.961584 0.023311 0.075894
C169  C     C_R   0.500006 0.314341 0.499997 -0.097325
C170  C     C_R   0.685658 0.499994 0.500003 -0.097199
C171  C     C_R   0.500005 0.685661 0.500005 -0.097361
C172  C     C_R   0.314341 0.500003 0.500002 -0.097394
C173  C     C_R   0.000001 0.814337 0.999998 -0.097326
C174  C     C_R   0.185659 0.999997 0.999999 -0.097311
C175  C     C_R   0.000003 0.185661 0.000003 -0.097266
C176  C     C_R   0.814338 0.000000 0.000000 -0.097354
C177  C     C_R   0.499998 0.185717 0.500000 -0.127210
C178  C     C_R   0.814282 0.500002 0.500000 -0.127233
C179  C     C_R   0.500000 0.814286 0.500002 -0.127171
C180  C     C_R   0.185717 0.499997 0.499999 -0.127201
C181  C     C_R   0.999997 0.685714 0.999999 -0.127223
C182  C     C_R   0.314283 0.000002 0.999999 -0.127238
C183  C     C_R   0.000005 0.314285 0.000002 -0.127210
C184  C     C_R   0.685715 0.999998 0.999999 -0.127222
H33   H     H_    0.434508 0.139363 0.445456 0.158175
H34   H     H_    0.860629 0.434525 0.445452 0.158172
H35   H     H_    0.565407 0.860631 0.445432 0.158170
H36   H     H_    0.139366 0.565446 0.445445 0.158166
H37   H     H_    0.434540 0.860661 0.554551 0.158219
H38   H     H_    0.860636 0.565555 0.554522 0.158193
H39   H     H_    0.565426 0.139372 0.554562 0.158192
H40   H     H_    0.139357 0.434492 0.554534 0.158194
H41   H     H_    0.934613 0.639354 0.945422 0.158195
H42   H     H_    0.360637 0.934576 0.945435 0.158209
H43   H     H_    0.065456 0.360630 0.945446 0.158186
H44   H     H_    0.639356 0.065380 0.945423 0.158193
H45   H     H_    0.934586 0.360649 0.054566 0.158252
H46   H     H_    0.360626 0.065473 0.054551 0.158166
H47   H     H_    0.065351 0.639359 0.054586 0.158237
H48   H     H_    0.639359 0.934592 0.054569 0.158198
H49   H     H_    0.401955 0.360971 0.464316 0.178167
H50   H     H_    0.639035 0.401943 0.464330 0.178238
H51   H     H_    0.598020 0.639037 0.464295 0.178276
H52   H     H_    0.360961 0.598037 0.464315 0.178278
H53   H     H_    0.402010 0.639038 0.535746 0.178217
H54   H     H_    0.639015 0.598049 0.535689 0.178075
H55   H     H_    0.598045 0.360959 0.535682 0.178270
H56   H     H_    0.360978 0.401981 0.535713 0.178147
H57   H     H_    0.902000 0.860954 0.964274 0.178329
H58   H     H_    0.139044 0.901964 0.964303 0.178289
H59   H     H_    0.098030 0.139028 0.964301 0.178197
H60   H     H_    0.860950 0.098005 0.964280 0.178318
H61   H     H_    0.901984 0.139047 0.035717 0.178236
H62   H     H_    0.139030 0.098057 0.035671 0.178190
H63   H     H_    0.098002 0.860948 0.035728 0.178317
H64   H     H_    0.860961 0.901994 0.035719 0.178295
O33   O     O_R   0.590060 0.499930 0.529020 -0.569819
O34   O     O_R   0.500070 0.590060 0.529020 -0.569918
O35   O     O_R   0.409940 0.500070 0.529020 -0.569881
O36   O     O_R   0.499930 0.409940 0.529020 -0.569906
O37   O     O_R   0.590060 0.500070 0.470980 -0.569864
O38   O     O_R   0.500070 0.409940 0.470980 -0.569829
O39   O     O_R   0.409940 0.499930 0.470980 -0.569871
O40   O     O_R   0.499930 0.590060 0.470980 -0.569840
O41   O     O_R   0.090060 0.999930 0.029020 -0.569842
O42   O     O_R   0.000070 0.090060 0.029020 -0.569876
O43   O     O_R   0.909940 0.000070 0.029020 -0.569887
O44   O     O_R   0.999930 0.909940 0.029020 -0.569879
O45   O     O_R   0.090060 0.000070 0.970980 -0.569888
O46   O     O_R   0.000070 0.909940 0.970980 -0.569861
O47   O     O_R   0.909940 0.999930 0.970980 -0.569858
O48   O     O_R   0.999930 0.090060 0.970980 -0.569852
C185  C     C_R   0.618691 0.499999 0.500000 0.750833
C186  C     C_R   0.499999 0.618692 0.500001 0.750776
C187  C     C_R   0.381309 0.500000 0.500000 0.750795
C188  C     C_R   0.500003 0.381309 0.500000 0.750788
C189  C     C_R   0.118691 0.999996 0.999999 0.750823
C190  C     C_R   0.999998 0.118692 0.000001 0.750824
C191  C     C_R   0.881308 0.000001 1.000000 0.750824
C192  C     C_R   0.000001 0.881307 0.999999 0.750820
C193  C     C_R   0.647444 0.184446 0.597179 0.146767
C194  C     C_R   0.641836 0.203277 0.631677 -0.064076
C195  C     C_R   0.670439 0.169892 0.657937 -0.124293
C196  C     C_R   0.704767 0.117591 0.649965 -0.117777
C197  C     C_R   0.710463 0.098507 0.615723 -0.142277
C198  C     C_R   0.681719 0.131598 0.589392 -0.135463
H65   H     H_    0.614966 0.243456 0.638213 0.143124
H66   H     H_    0.665844 0.184464 0.684481 0.142320
H67   H     H_    0.726772 0.091739 0.670330 0.140858
H68   H     H_    0.736849 0.057853 0.609598 0.145856
H69   H     H_    0.686208 0.116140 0.562976 0.142318
C199  C     C_R   0.815585 0.647853 0.597015 0.146372
C200  C     C_R   0.796543 0.642822 0.631507 -0.063907
C201  C     C_R   0.829938 0.671602 0.657702 -0.124392
C202  C     C_R   0.882472 0.705529 0.649676 -0.117545
C203  C     C_R   0.901767 0.710660 0.615443 -0.142343
C204  C     C_R   0.868658 0.681749 0.589178 -0.136028
H70   H     H_    0.756190 0.616252 0.638095 0.143384
H71   H     H_    0.815197 0.667453 0.684241 0.142260
H72   H     H_    0.908335 0.727667 0.669991 0.140838
H73   H     H_    0.942598 0.736738 0.609274 0.145878
H74   H     H_    0.884284 0.685804 0.562768 0.142402
C205  C     C_R   0.352433 0.815604 0.597137 0.146521
C206  C     C_R   0.357826 0.796723 0.631637 -0.064063
C207  C     C_R   0.329138 0.830122 0.657863 -0.124363
C208  C     C_R   0.294934 0.882486 0.649857 -0.117701
C209  C     C_R   0.289444 0.901617 0.615613 -0.142300
C210  C     C_R   0.318273 0.868511 0.589316 -0.135661
H75   H     H_    0.384604 0.756498 0.638203 0.143279
H76   H     H_    0.333570 0.815512 0.684410 0.142311
H77   H     H_    0.272864 0.908350 0.670197 0.140851
H78   H     H_    0.263152 0.942318 0.609460 0.145857
H79   H     H_    0.313941 0.884007 0.562899 0.142353
C211  C     C_R   0.184418 0.352310 0.597078 0.146435
C212  C     C_R   0.203359 0.357570 0.631576 -0.064043
C213  C     C_R   0.169963 0.328849 0.657789 -0.124432
C214  C     C_R   0.117537 0.294747 0.649774 -0.117631
C215  C     C_R   0.098345 0.289388 0.615534 -0.142277
C216  C     C_R   0.131451 0.318246 0.589250 -0.135785
H80   H     H_    0.243630 0.384272 0.638151 0.143329
H81   H     H_    0.184622 0.333177 0.684334 0.142297
H82   H     H_    0.091674 0.272652 0.670104 0.140867
H83   H     H_    0.057596 0.263175 0.609373 0.145871
H84   H     H_    0.115907 0.314016 0.562834 0.142403
C217  C     C_R   0.647396 0.815549 0.402798 0.146748
C218  C     C_R   0.641749 0.796742 0.368299 -0.064138
C219  C     C_R   0.670347 0.830127 0.342038 -0.124305
C220  C     C_R   0.704712 0.882401 0.350011 -0.117776
C221  C     C_R   0.710449 0.901461 0.384254 -0.142275
C222  C     C_R   0.681709 0.868371 0.410586 -0.135374
H85   H     H_    0.614851 0.756583 0.361763 0.143113
H86   H     H_    0.665720 0.815575 0.315492 0.142322
H87   H     H_    0.726713 0.908252 0.329644 0.140867
H88   H     H_    0.736864 0.942093 0.390381 0.145846
H89   H     H_    0.686229 0.883809 0.437005 0.142341
C223  C     C_R   0.815559 0.352455 0.402863 0.146660
C224  C     C_R   0.796733 0.358013 0.368362 -0.064124
C225  C     C_R   0.830126 0.329381 0.342115 -0.124524
C226  C     C_R   0.882432 0.295071 0.350102 -0.117782
C227  C     C_R   0.901511 0.289422 0.384347 -0.142077
C228  C     C_R   0.868409 0.318194 0.410666 -0.135571
H90   H     H_    0.756552 0.384871 0.361814 0.143157
H91   H     H_    0.815558 0.333938 0.315568 0.142340
H92   H     H_    0.908290 0.273044 0.329746 0.140875
H93   H     H_    0.942167 0.263050 0.390485 0.145868
H94   H     H_    0.883864 0.313742 0.437084 0.142340
C229  C     C_R   0.352320 0.184422 0.402913 0.146571
C230  C     C_R   0.357564 0.203392 0.368419 -0.063962
C231  C     C_R   0.328855 0.170002 0.342198 -0.124311
C232  C     C_R   0.294785 0.117550 0.350201 -0.117615
C233  C     C_R   0.289446 0.098326 0.384436 -0.142373
C234  C     C_R   0.318291 0.131426 0.410728 -0.135787
H95   H     H_    0.384240 0.243686 0.361854 0.143237
H96   H     H_    0.333167 0.184687 0.315658 0.142260
H97   H     H_    0.272699 0.091692 0.329864 0.140850
H98   H     H_    0.263259 0.057556 0.390586 0.145864
H99   H     H_    0.314077 0.115857 0.437139 0.142379
C235  C     C_R   0.184435 0.647491 0.402846 0.146662
C236  C     C_R   0.203245 0.641900 0.368343 -0.064154
C237  C     C_R   0.169851 0.670527 0.342095 -0.124530
C238  C     C_R   0.117564 0.704864 0.350083 -0.117783
C239  C     C_R   0.098502 0.710546 0.384329 -0.142077
C240  C     C_R   0.131602 0.681779 0.410649 -0.135542
H100  H     H_    0.243413 0.615022 0.361796 0.143139
H101  H     H_    0.184407 0.665944 0.315547 0.142343
H102  H     H_    0.091706 0.726887 0.329726 0.140884
H103  H     H_    0.057859 0.736939 0.390467 0.145860
H104  H     H_    0.116161 0.686256 0.437068 0.142343
C241  C     C_R   0.147295 0.684436 0.097251 0.146916
C242  C     C_R   0.141641 0.703273 0.131746 -0.063988
C243  C     C_R   0.170210 0.669893 0.158019 -0.123966
C244  C     C_R   0.204552 0.617593 0.150065 -0.117764
C245  C     C_R   0.210295 0.598503 0.115826 -0.142591
C246  C     C_R   0.181581 0.631586 0.089482 -0.135337
H105  H     H_    0.114763 0.743453 0.138268 0.143086
H106  H     H_    0.165580 0.684470 0.184561 0.142277
H107  H     H_    0.226531 0.591746 0.170440 0.140825
H108  H     H_    0.236690 0.557849 0.109714 0.145817
H109  H     H_    0.186105 0.616123 0.063068 0.142260
C247  C     C_R   0.315560 0.147631 0.097109 0.146652
C248  C     C_R   0.296597 0.142330 0.131601 -0.063946
C249  C     C_R   0.329979 0.171016 0.157833 -0.124271
C250  C     C_R   0.382416 0.205119 0.149843 -0.117643
C251  C     C_R   0.401633 0.210512 0.115610 -0.142400
C252  C     C_R   0.368541 0.181691 0.089307 -0.135738
H110  H     H_    0.256314 0.115630 0.138155 0.143195
H111  H     H_    0.315300 0.166667 0.184372 0.142261
H112  H     H_    0.408268 0.227186 0.170189 0.140846
H113  H     H_    0.442392 0.236724 0.109470 0.145863
H114  H     H_    0.384105 0.185947 0.062897 0.142359
C253  C     C_R   0.852527 0.315586 0.097176 0.146791
C254  C     C_R   0.857955 0.296665 0.131669 -0.063943
C255  C     C_R   0.829319 0.330049 0.157918 -0.123995
C256  C     C_R   0.795134 0.382441 0.149945 -0.117654
C257  C     C_R   0.789613 0.401617 0.115711 -0.142638
C258  C     C_R   0.818392 0.368527 0.089390 -0.135550
H115  H     H_    0.884716 0.256415 0.138209 0.143163
H116  H     H_    0.833775 0.315404 0.184458 0.142246
H117  H     H_    0.773103 0.408293 0.170303 0.140821
H118  H     H_    0.763339 0.442342 0.109583 0.145813
H119  H     H_    0.814038 0.384058 0.062980 0.142279
C259  C     C_R   0.684434 0.852577 0.097193 0.146730
C260  C     C_R   0.703275 0.858139 0.131692 -0.064056
C261  C     C_R   0.669889 0.829516 0.157944 -0.124305
C262  C     C_R   0.617579 0.795211 0.149964 -0.117745
C263  C     C_R   0.598486 0.789558 0.115721 -0.142317
C264  C     C_R   0.631577 0.818322 0.089399 -0.135541
H120  H     H_    0.743462 0.884991 0.138234 0.143151
H121  H     H_    0.684469 0.834076 0.184489 0.142312
H122  H     H_    0.591727 0.773191 0.170323 0.140864
H123  H     H_    0.557825 0.763189 0.109589 0.145835
H124  H     H_    0.616112 0.813865 0.062982 0.142301
C265  C     C_R   0.147560 0.315556 0.902862 0.146645
C266  C     C_R   0.142177 0.296628 0.868368 -0.064002
C267  C     C_R   0.170840 0.330010 0.842129 -0.124248
C268  C     C_R   0.205006 0.382410 0.850117 -0.117661
C269  C     C_R   0.210483 0.401590 0.884354 -0.142404
C270  C     C_R   0.181680 0.368499 0.910663 -0.135652
H125  H     H_    0.115429 0.256374 0.861816 0.143213
H126  H     H_    0.166420 0.315361 0.815588 0.142279
H127  H     H_    0.227056 0.408261 0.829767 0.140862
H128  H     H_    0.236743 0.442319 0.890492 0.145853
H129  H     H_    0.186000 0.384034 0.937075 0.142353
C271  C     C_R   0.315566 0.852564 0.902810 0.146810
C272  C     C_R   0.296732 0.858165 0.868309 -0.064060
C273  C     C_R   0.330119 0.829565 0.842049 -0.124291
C274  C     C_R   0.382427 0.795244 0.850021 -0.117754
C275  C     C_R   0.401513 0.789553 0.884264 -0.142309
C276  C     C_R   0.368420 0.818295 0.910595 -0.135498
H130  H     H_    0.256547 0.885030 0.861774 0.143109
H131  H     H_    0.315546 0.834155 0.815504 0.142309
H132  H     H_    0.408282 0.773242 0.829655 0.140871
H133  H     H_    0.442173 0.763173 0.890391 0.145824
H134  H     H_    0.383880 0.813813 0.937013 0.142282
C277  C     C_R   0.852635 0.684426 0.902778 0.146804
C278  C     C_R   0.858281 0.703225 0.868277 -0.064085
C279  C     C_R   0.829678 0.669837 0.842017 -0.124289
C280  C     C_R   0.795309 0.617567 0.849992 -0.117765
C281  C     C_R   0.789574 0.598515 0.884237 -0.142311
C282  C     C_R   0.818321 0.631607 0.910568 -0.135442
H135  H     H_    0.885180 0.743382 0.861739 0.143100
H136  H     H_    0.834302 0.684384 0.815471 0.142316
H137  H     H_    0.773303 0.591714 0.829627 0.140890
H138  H     H_    0.763157 0.557885 0.890366 0.145832
H139  H     H_    0.813801 0.616175 0.936987 0.142288
C283  C     C_R   0.684428 0.147341 0.902776 0.146788
C284  C     C_R   0.703217 0.141654 0.868275 -0.064112
C285  C     C_R   0.669830 0.170242 0.842011 -0.124273
C286  C     C_R   0.617574 0.204639 0.849981 -0.117798
C287  C     C_R   0.598533 0.210415 0.884226 -0.142285
C288  C     C_R   0.631624 0.181683 0.910562 -0.135379
H140  H     H_    0.743363 0.114733 0.861742 0.143103
H141  H     H_    0.684369 0.165585 0.815464 0.142330
H142  H     H_    0.591722 0.226634 0.829612 0.140870
H143  H     H_    0.557914 0.236854 0.890351 0.145841
H144  H     H_    0.616200 0.186234 0.936980 0.142303
N17   N     N_R   0.326067 0.314760 0.418674 0.114352
O49   O     O_R   0.274446 0.287850 0.411139 -0.341529
O50   O     O_R   0.330920 0.373642 0.413676 -0.350665
N18   N     N_R   0.685209 0.326135 0.418619 0.114622
O51   O     O_R   0.712197 0.274669 0.410855 -0.341536
O52   O     O_R   0.626269 0.330848 0.413799 -0.350618
N19   N     N_R   0.673746 0.685202 0.418543 0.114636
O53   O     O_R   0.725185 0.712194 0.410737 -0.341505
O54   O     O_R   0.669039 0.626250 0.413740 -0.350618
N20   N     N_R   0.314788 0.673812 0.418592 0.114638
O55   O     O_R   0.287800 0.725272 0.410819 -0.341535
O56   O     O_R   0.373727 0.669097 0.413773 -0.350646
N21   N     N_R   0.326248 0.685245 0.581448 0.114369
O57   O     O_R   0.274605 0.712108 0.588985 -0.341536
O58   O     O_R   0.331209 0.626389 0.586518 -0.350506
N22   N     N_R   0.685245 0.673992 0.581282 0.114148
O59   O     O_R   0.712058 0.725757 0.588617 -0.341545
O60   O     O_R   0.626428 0.668965 0.586470 -0.350589
N23   N     N_R   0.673807 0.314792 0.581418 0.114659
O61   O     O_R   0.725238 0.287786 0.589230 -0.341537
O62   O     O_R   0.669125 0.373743 0.586204 -0.350562
N24   N     N_R   0.314772 0.326149 0.581372 0.114287
O63   O     O_R   0.287933 0.274458 0.588831 -0.341519
O64   O     O_R   0.373611 0.331141 0.586489 -0.350591
N25   N     N_R   0.826287 0.814783 0.918515 0.114648
O65   O     O_R   0.774854 0.787786 0.910698 -0.341572
O66   O     O_R   0.830984 0.873730 0.913721 -0.350625
N26   N     N_R   0.185218 0.826207 0.918565 0.114629
O67   O     O_R   0.212219 0.774764 0.910765 -0.341571
O68   O     O_R   0.126272 0.830901 0.913766 -0.350645
N27   N     N_R   0.173837 0.185216 0.918610 0.114430
O69   O     O_R   0.225412 0.212138 0.910997 -0.341538
O70   O     O_R   0.169003 0.126321 0.913652 -0.350636
N28   N     N_R   0.814781 0.173701 0.918513 0.114679
O71   O     O_R   0.787776 0.225121 0.910677 -0.341533
O72   O     O_R   0.873733 0.169011 0.913730 -0.350587
N29   N     N_R   0.826216 0.185248 0.081429 0.114441
O73   O     O_R   0.774663 0.212186 0.089074 -0.341588
O74   O     O_R   0.831036 0.126348 0.086369 -0.350617
N30   N     N_R   0.185228 0.173939 0.081326 0.114424
O75   O     O_R   0.212181 0.225498 0.088943 -0.341570
O76   O     O_R   0.126316 0.169169 0.086239 -0.350677
N31   N     N_R   0.173683 0.814778 0.081503 0.114638
O77   O     O_R   0.225106 0.787774 0.089333 -0.341576
O78   O     O_R   0.168990 0.873729 0.086293 -0.350587
N32   N     N_R   0.814786 0.826260 0.081458 0.114562
O79   O     O_R   0.787821 0.774773 0.089199 -0.341587
O80   O     O_R   0.873712 0.831021 0.086320 -0.350621

loop_
_geom_bond_atom_site_label_1
_geom_bond_atom_site_label_2
_geom_bond_distance
_ccdc_geom_bond_type
C31   C47   1.396890 A    
C207  C208  1.397538 A    
C75   H35   1.081392 S    
O25   C13   1.300224 A    
C262  C263  1.397504 A    
N8    N11   1.331817 A    
C275  C276  1.398332 A    
C159  C177  1.417873 A    
C197  C198  1.398371 A    
C162  C182  1.417905 A    
C17   C57   1.403326 A    
C45   C55   1.405515 A    
C87   C103  1.400117 A    
C269  C270  1.398337 A    
C46   C56   1.405549 A    
C261  H121  1.082274 S    
C111  N23   1.440965 S    
C146  C162  1.405946 A    
C19   C57   1.403317 A    
N30   O75   1.301467 A    
O18   Cu2   1.944139 S    
C210  H79   1.083200 S    
C174  C189  1.458954 S    
N1    N14   1.331813 A    
C38   H22   1.082915 S    
C79   C159  1.414883 A    
O45   C189  1.287076 A    
C94   C110  1.409541 A    
C145  C173  1.417194 A    
N24   O63   1.301482 A    
C245  C246  1.398367 A    
C77   C157  1.414986 A    
C86   C166  1.414906 A    
C7    C183  1.461346 S    
C194  H65   1.083112 S    
C98   C114  1.409651 A    
C123  H51   1.080372 S    
C81   C161  1.414880 A    
Cu1   Cu3   2.688793 S    
Cu2   Cu4   2.688793 S    
C91   C217  1.480552 S    
O3    C3    1.294060 A    
C212  H80   1.083144 S    
C173  C192  1.458999 S    
C74   C90   1.400141 A    
C138  C154  1.405946 A    
C127  H55   1.080354 S    
C34   C50   1.405552 A    
C224  H90   1.083122 S    
C125  C141  1.416072 A    
N15   C66   1.358132 A    
O25   Cu5   1.944149 S    
C150  C166  1.405947 A    
O5    Cu1   1.973846 S    
C247  C252  1.405175 A    
N32   O80   1.301676 A    
C48   H32   1.082887 S    
C213  C214  1.397553 A    
C244  H107  1.082250 S    
N6    C69   1.358153 A    
C20   C58   1.403298 A    
C165  C183  1.417892 A    
N10   C67   1.358148 A    
C115  N27   1.440708 S    
C151  C173  1.417193 A    
Cu12  O48   1.972800 S    
C27   C61   1.403331 A    
C113  N25   1.440955 S    
N2    C71   1.358123 A    
N17   O50   1.301666 A    
C3    C179  1.461330 S    
O41   C189  1.287121 A    
C193  C194  1.405145 A    
C107  N19   1.440827 S    
C129  C145  1.416004 A    
C54   C67   1.478158 S    
C74   C154  1.414919 A    
C55   C66   1.478169 S    
C279  H136  1.082269 S    
C29   H13   1.081520 S    
O27   C13   1.300231 A    
C230  H95   1.083156 S    
C22   H6    1.081554 S    
C205  C206  1.405185 A    
C136  C152  1.416017 A    
Cu9   O35   1.972811 S    
N18   O51   1.301351 A    
C26   C42   1.396845 A    
C283  C284  1.405151 A    
O44   C192  1.287106 A    
C201  C202  1.397564 A    
C83   H43   1.081387 S    
Cu10  O37   1.972809 S    
C84   H44   1.081394 S    
Cu11  O44   1.972802 S    
C21   C59   1.403337 A    
C85   C101  1.400152 A    
C22   C60   1.403316 A    
C247  C248  1.405216 A    
C97   C277  1.480571 S    
C130  H58   1.080349 S    
C26   C62   1.403341 A    
C120  N32   1.440840 S    
N25   O66   1.301653 A    
C147  C163  1.405955 A    
C221  C222  1.398371 A    
C280  C281  1.397518 A    
C106  C122  1.401569 A    
O8    Cu2   1.973834 S    
N31   O77   1.301315 A    
C121  C137  1.416052 A    
C251  C252  1.398336 A    
C76   H36   1.081389 S    
O31   C15   1.300271 A    
C241  C246  1.405114 A    
O32   C16   1.300224 A    
C199  C204  1.405230 A    
C120  C136  1.401545 A    
C274  H132  1.082235 S    
C139  C155  1.405936 A    
C42   C54   1.405545 A    
C196  C197  1.397497 A    
C154  C178  1.417881 A    
N7    C70   1.358153 A    
N20   O55   1.301340 A    
C25   C41   1.396862 A    
C134  H62   1.080374 S    
C85   H45   1.081392 S    
C265  C270  1.405171 A    
C10   C58   1.474321 S    
C30   H14   1.081551 S    
N30   O76   1.301663 A    
C125  H53   1.080380 S    
C217  C222  1.405109 A    
C131  C147  1.416023 A    
O9    C5    1.294074 A    
C219  H86   1.082275 S    
N28   O71   1.301322 A    
C30   C64   1.403330 A    
O11   C7    1.294084 A    
C278  C279  1.398289 A    
O12   Cu8   1.973844 S    
C80   C160  1.414991 A    
C271  C276  1.405148 A    
C77   H37   1.081380 S    
C255  C256  1.397551 A    
O16   Cu6   1.973834 S    
C100  C283  1.480550 S    
C105  N17   1.440626 S    
C214  H82   1.082264 S    
C104  C120  1.409650 A    
C104  C259  1.480607 S    
C216  H84   1.083224 S    
C259  C264  1.405130 A    
C164  C184  1.417898 A    
O37   C185  1.287090 A    
C218  C219  1.398290 A    
C211  C216  1.405181 A    
C220  C221  1.397475 A    
C94   C199  1.480751 S    
Cu11  Cu12  2.663728 S    
C286  H142  1.082252 S    
C115  C131  1.401513 A    
C241  C242  1.405164 A    
C95   C111  1.409684 A    
C166  C182  1.417957 A    
C148  C176  1.417184 A    
C152  C168  1.405950 A    
C89   C105  1.409593 A    
C248  H110  1.083140 S    
C9    C57   1.474468 S    
C231  C232  1.397571 A    
C201  H71   1.082332 S    
O21   Cu1   1.944145 S    
C206  H75   1.083133 S    
O23   C11   1.300224 A    
C88   H48   1.081387 S    
C107  C123  1.401567 A    
C273  H131  1.082294 S    
C237  C238  1.397547 A    
N26   O68   1.301623 A    
C270  H129  1.083223 S    
C134  C150  1.416018 A    
C30   C46   1.396857 A    
C93   C109  1.409573 A    
C198  H69   1.083153 S    
C82   H42   1.081393 S    
C285  C286  1.397538 A    
O13   C7    1.294060 A    
N13   C66   1.358121 A    
C35   C49   1.405546 A    
C203  C204  1.398315 A    
Cu11  O42   1.972819 S    
O2    Cu2   1.973846 S    
C202  H72   1.082253 S    
C257  H118  1.082287 S    
C221  H88   1.082248 S    
C17   H1    1.081548 S    
C223  C224  1.405170 A    
O7    C1    1.294067 A    
C81   C97   1.400117 A    
C245  H108  1.082259 S    
C149  C175  1.417214 A    
O28   C14   1.300231 A    
C209  H78   1.082270 S    
O26   C14   1.300231 A    
O29   C15   1.300282 A    
O30   C16   1.300228 A    
C197  H68   1.082255 S    
C31   H15   1.081526 S    
C141  C171  1.417250 A    
O29   Cu5   1.944145 S    
C28   C62   1.403334 A    
N12   C67   1.358162 A    
C242  H105  1.083118 S    
C286  C287  1.397504 A    
C118  C134  1.401540 A    
O36   C188  1.287081 A    
C144  C160  1.405970 A    
O19   Cu3   1.944149 S    
N29   O73   1.301433 A    
O17   Cu1   1.944149 S    
C148  C164  1.405944 A    
C263  C264  1.398356 A    
C16   C64   1.474472 S    
C93   C205  1.480632 S    
C127  C143  1.415968 A    
C146  C174  1.417182 A    
C20   C36   1.396864 A    
C87   C167  1.414872 A    
C194  C195  1.398288 A    
C29   C63   1.403354 A    
C124  H52   1.080349 S    
C110  N22   1.440400 S    
C96   C112  1.409548 A    
C195  C196  1.397540 A    
C254  C255  1.398271 A    
C140  C156  1.405945 A    
O15   Cu7   1.973845 S    
C24   C40   1.396850 A    
C227  H93   1.082267 S    
C102  C118  1.409635 A    
C90   C223  1.480558 S    
C29   C45   1.396896 A    
O34   C186  1.287097 A    
O40   C186  1.287118 A    
O46   C192  1.287119 A    
C46   H30   1.082899 S    
C36   C50   1.405550 A    
C99   C115  1.409605 A    
N21   O58   1.301721 A    
C235  C236  1.405161 A    
C239  H103  1.082258 S    
C244  C245  1.397505 A    
N22   O60   1.301700 A    
C266  C267  1.398265 A    
C51   C70   1.478169 S    
O32   Cu6   1.944155 S    
C242  C243  1.398296 A    
C49   C72   1.478189 S    
Cu10  O40   1.972800 S    
N19   O53   1.301300 A    
C2    C178  1.461383 S    
C25   H9    1.081561 S    
O18   C10   1.300228 A    
C232  C233  1.397516 A    
C8    C184  1.461335 S    
C139  C171  1.417174 A    
C140  C172  1.417145 A    
C236  H100  1.083116 S    
C40   C52   1.405566 A    
C18   H2    1.081537 S    
C231  H96   1.082313 S    
O23   Cu3   1.944145 S    
C230  C231  1.398258 A    
C5    C181  1.461328 S    
C237  H101  1.082271 S    
C137  C153  1.405955 A    
C137  C169  1.417228 A    
C116  C132  1.401573 A    
O12   C8    1.294062 A    
O1    C1    1.294091 A    
C283  C288  1.405100 A    
O6    Cu4   1.973836 S    
C22   C38   1.396852 A    
C233  H98   1.082305 S    
C112  N24   1.440503 S    
C31   C63   1.403346 A    
N28   O72   1.301657 A    
O38   C188  1.287115 A    
Cu9   Cu10  2.663728 S    
C222  H89   1.083168 S    
C128  H56   1.080387 S    
C129  H57   1.080349 S    
C108  C124  1.401562 A    
N24   O64   1.301700 A    
C280  H137  1.082246 S    
C150  C174  1.417208 A    
C273  C274  1.397606 A    
N9    C68   1.358150 A    
C48   C56   1.405547 A    
C251  H113  1.082283 S    
C103  C241  1.480592 S    
C168  C184  1.417942 A    
C6    C182  1.461367 S    
C142  C170  1.417234 A    
O30   Cu8   1.944136 S    
C268  C269  1.397512 A    
N1    C72   1.358150 A    
C143  C169  1.417142 A    
C284  H140  1.083110 S    
C176  C191  1.458986 S    
C277  C278  1.405187 A    
C204  H74   1.083262 S    
C53   C68   1.478197 S    
O35   C187  1.287103 A    
C50   C71   1.478096 S    
O39   C187  1.287094 A    
C41   C53   1.405538 A    
C12   C60   1.474430 S    
C170  C185  1.458925 S    
C228  H94   1.083181 S    
C138  C170  1.417127 A    
C135  H63   1.080354 S    
C238  C239  1.397509 A    
C86   H46   1.081391 S    
C281  H138  1.082269 S    
C108  N20   1.440940 S    
C274  C275  1.397563 A    
C40   H24   1.082907 S    
C47   H31   1.082857 S    
O33   C185  1.287095 A    
C249  C250  1.397552 A    
C141  C157  1.405972 A    
C219  C220  1.397537 A    
N31   O78   1.301668 A    
C288  H144  1.083153 S    
O10   C6    1.294071 A    
C23   H7    1.081573 S    
C86   C102  1.400167 A    
C112  C128  1.401425 A    
C145  C161  1.405946 A    
C78   H38   1.081369 S    
Cu12  O45   1.972809 S    
C169  C188  1.458949 S    
C39   H23   1.082885 S    
N17   O49   1.301500 A    
C17   C33   1.396862 A    
C96   C211  1.480690 S    
C133  C149  1.416017 A    
C266  H125  1.083144 S    
C19   C35   1.396859 A    
C78   C158  1.415012 A    
C106  N18   1.440905 S    
C218  H85   1.083112 S    
C211  C212  1.405229 A    
O22   Cu4   1.944136 S    
C117  N29   1.440719 S    
C255  H116  1.082308 S    
C82   C162  1.414897 A    
O31   Cu7   1.944145 S    
C233  C234  1.398325 A    
C97   C113  1.409672 A    
N18   O52   1.301654 A    
C277  C282  1.405116 A    
Cu10  O38   1.972821 S    
Cu11  O43   1.972811 S    
C215  H83   1.082288 S    
C23   C39   1.396847 A    
C38   C52   1.405573 A    
C267  H126  1.082296 S    
C260  C261  1.398286 A    
C32   C48   1.396856 A    
C44   C54   1.405544 A    
N25   O65   1.301327 A    
O21   C11   1.300231 A    
C20   H4    1.081536 S    
O22   C12   1.300216 A    
C117  C133  1.401527 A    
C271  C272  1.405290 A    
C215  C216  1.398342 A    
O13   Cu5   1.973846 S    
C287  H143  1.082251 S    
C229  C234  1.405193 A    
C285  H141  1.082267 S    
C257  C258  1.398352 A    
C24   H8    1.081560 S    
C195  H66   1.082266 S    
N14   C65   1.358149 A    
C202  C203  1.397516 A    
O3    Cu3   1.973836 S    
N20   O56   1.301629 A    
C142  C158  1.405970 A    
C28   C44   1.396844 A    
C223  C228  1.405124 A    
Cu9   O33   1.972809 S    
C34   H18   1.082881 S    
C163  C183  1.417912 A    
C282  H139  1.083180 S    
C23   C59   1.403328 A    
C272  C273  1.398251 A    
O28   Cu8   1.944159 S    
N6    N9    1.331821 A    
C155  C179  1.417887 A    
C133  H61   1.080370 S    
C156  C180  1.417873 A    
C119  N31   1.440945 S    
C252  H114  1.083225 S    
C78   C94   1.400197 A    
C147  C175  1.417204 A    
C151  C167  1.405940 A    
C43   C53   1.405542 A    
C253  C258  1.405159 A    
C82   C98   1.400148 A    
C27   H11   1.081554 S    
C1    C177  1.461370 S    
O4    Cu4   1.973844 S    
C144  C172  1.417236 A    
C263  H123  1.082267 S    
C18   C34   1.396873 A    
N4    C71   1.358142 A    
C239  C240  1.398373 A    
O9    Cu5   1.973834 S    
C234  H99   1.083253 S    
C32   C64   1.403321 A    
O17   C9    1.300226 A    
C136  H64   1.080360 S    
N3    C72   1.358147 A    
C225  H91   1.082281 S    
O11   Cu7   1.973836 S    
C250  H112  1.082273 S    
N23   O62   1.301648 A    
C131  H59   1.080370 S    
C287  C288  1.398378 A    
N16   C65   1.358154 A    
C172  C187  1.458949 S    
C132  H60   1.080348 S    
Cu12  O47   1.972812 S    
C73   H33   1.081382 S    
C227  C228  1.398359 A    
N19   O54   1.301780 A    
C175  C190  1.458967 S    
C39   C51   1.405551 A    
C101  C253  1.480659 S    
C83   C163  1.414946 A    
C225  C226  1.397553 A    
O5    C3    1.294079 A    
C111  C127  1.401575 A    
C264  H124  1.083186 S    
C276  H134  1.083248 S    
C41   H25   1.082878 S    
O7    Cu3   1.973845 S    
C235  C240  1.405112 A    
C132  C148  1.415998 A    
C161  C181  1.417923 A    
C275  H133  1.082323 S    
N11   C68   1.358150 A    
C83   C99   1.400157 A    
O14   C6    1.294084 A    
C109  N21   1.440560 S    
C193  C198  1.405112 A    
C75   C155  1.414921 A    
C52   C69   1.478193 S    
C36   H20   1.082880 S    
C88   C104  1.400119 A    
C167  C181  1.417912 A    
C33   C49   1.405544 A    
Cu11  O41   1.972809 S    
C77   C93   1.400132 A    
C232  H97   1.082258 S    
C88   C168  1.414904 A    
C21   C37   1.396846 A    
N5    C70   1.358148 A    
C15   C63   1.474542 S    
C236  C237  1.398289 A    
C240  H104  1.083161 S    
C85   C165  1.414942 A    
C238  H102  1.082248 S    
C229  C230  1.405276 A    
C44   H28   1.082878 S    
O14   Cu8   1.973836 S    
C256  C257  1.397500 A    
N27   O70   1.301664 A    
C157  C179  1.417912 A    
C116  N28   1.440959 S    
C212  C213  1.398266 A    
C90   C106  1.409660 A    
C143  C159  1.405940 A    
C37   C51   1.405550 A    
C126  H54   1.080404 S    
C171  C186  1.458973 S    
C261  C262  1.397550 A    
C114  N26   1.440943 S    
C226  C227  1.397512 A    
C19   H3    1.081566 S    
C118  N30   1.440719 S    
C102  C247  1.480719 S    
O8    C4    1.294089 A    
C149  C165  1.405955 A    
C99   C265  1.480662 S    
C123  C139  1.415997 A    
N8    C69   1.358152 A    
Cu9   O34   1.972819 S    
C114  C130  1.401610 A    
C135  C151  1.415999 A    
C213  H81   1.082309 S    
C84   C100  1.400113 A    
C268  H127  1.082257 S    
O48   C190  1.287108 A    
C284  C285  1.398293 A    
C200  H70   1.083163 S    
C92   C235  1.480556 S    
O20   C10   1.300228 A    
N29   O74   1.301669 A    
C21   H5    1.081565 S    
Cu12  O46   1.972821 S    
C75   C91   1.400115 A    
C76   C92   1.400134 A    
C122  H50   1.080356 S    
C281  C282  1.398360 A    
C87   H47   1.081395 S    
C110  C126  1.401391 A    
C279  C280  1.397559 A    
C4    C180  1.461363 S    
C249  H111  1.082284 S    
C42   H26   1.082885 S    
C14   C62   1.474461 S    
C121  H49   1.080382 S    
C95   C193  1.480574 S    
C205  C210  1.405154 A    
O16   C8    1.294075 A    
C119  C135  1.401575 A    
C100  C116  1.409676 A    
C79   H39   1.081394 S    
C28   H12   1.081561 S    
C203  H73   1.082311 S    
C246  H109  1.083158 S    
Cu5   Cu7   2.688793 S    
C25   C61   1.403323 A    
C226  H92   1.082251 S    
O6    C2    1.294092 A    
Cu6   Cu8   2.688793 S    
O27   Cu7   1.944149 S    
C24   C60   1.403316 A    
C73   C153  1.414948 A    
N26   O67   1.301377 A    
C126  C142  1.416104 A    
C47   C55   1.405517 A    
C260  H120  1.083126 S    
C243  C244  1.397542 A    
C160  C180  1.417961 A    
C92   C108  1.409644 A    
C272  H130  1.083156 S    
C130  C146  1.415973 A    
C91   C107  1.409734 A    
C98   C271  1.480570 S    
C152  C176  1.417205 A    
C89   C229  1.480717 S    
C153  C177  1.417976 A    
C103  C119  1.409688 A    
C196  H67   1.082254 S    
C84   C164  1.414882 A    
O19   C9    1.300218 A    
C101  C117  1.409619 A    
C267  C268  1.397565 A    
C262  H122  1.082255 S    
C13   C61   1.474492 S    
C265  C266  1.405230 A    
O24   C12   1.300216 A    
C45   H29   1.082872 S    
C208  H77   1.082267 S    
C258  H119  1.083210 S    
C199  C200  1.405284 A    
C11   C59   1.474445 S    
O43   C191  1.287114 A    
O24   Cu2   1.944155 S    
C217  C218  1.405122 A    
C259  C260  1.405180 A    
C256  H117  1.082268 S    
C32   H16   1.081559 S    
C76   C156  1.414914 A    
C254  H115  1.083138 S    
C278  H135  1.083128 S    
O47   C191  1.287105 A    
C158  C178  1.417951 A    
C37   H21   1.082896 S    
C26   H10   1.081565 S    
N27   O69   1.301438 A    
C214  C215  1.397503 A    
N21   O57   1.301439 A    
C207  H76   1.082311 S    
C56   C65   1.478181 S    
C128  C144  1.416077 A    
Cu9   O36   1.972802 S    
C43   H27   1.082893 S    
N5    N10   1.331829 A    
O2    C2    1.294072 A    
C269  H128  1.082295 S    
O26   Cu6   1.944139 S    
C243  H106  1.082263 S    
O4    C4    1.294065 A    
N23   O61   1.301316 A    
C79   C95   1.400136 A    
C73   C89   1.400161 A    
C209  C210  1.398357 A    
C18   C58   1.403303 A    
N4    N15   1.331821 A    
N7    N12   1.331809 A    
C200  C201  1.398256 A    
C109  C125  1.401442 A    
C253  C254  1.405224 A    
C35   H19   1.082882 S    
O20   Cu4   1.944159 S    
N3    N16   1.331829 A    
C224  C225  1.398277 A    
O1    Cu1   1.973834 S    
C80   C96   1.400147 A    
C113  C129  1.401579 A    
C206  C207  1.398273 A    
C124  C140  1.415990 A    
C220  H87   1.082274 S    
N2    N13   1.331864 A    
C208  C209  1.397496 A    
O10   Cu6   1.973846 S    
C250  C251  1.397483 A    
C80   H40   1.081370 S    
O15   C5    1.294057 A    
C105  C121  1.401503 A    
C81   H41   1.081392 S    
N22   O59   1.301529 A    
C248  C249  1.398269 A    
N32   O79   1.301362 A    
C33   H17   1.082900 S    
O42   C190  1.287101 A    
Cu10  O39   1.972812 S    
C27   C43   1.396863 A    
C74   H34   1.081386 S    
C122  C138  1.415980 A    
