data_mof_unit_22190.cif
_audit_creation_date              2012-12-11T16:22:00-0500
_audit_creation_method            fapswitch 2.2
_symmetry_space_group_name_H-M    P1
_symmetry_Int_Tables_number       1
_space_group_crystal_system       triclinic
_cell_length_a                    13.477221
_cell_length_b                    14.025729
_cell_length_c                    30.060317
_cell_angle_alpha                 97.996504
_cell_angle_beta                  90.303255
_cell_angle_gamma                 118.610929
_cell_volume                      4922.95666639

loop_
_atom_site_label
_atom_site_type_symbol
_atom_type_description
_atom_site_fract_x
_atom_site_fract_y
_atom_site_fract_z
_atom_type_partial_charge
C1    C     C_R   0.720177 0.098516 0.569496 0.540222
C2    C     C_R   0.355669 0.686590 0.678683 0.039519
C3    C     C_R   0.263133 0.686280 0.657354 -0.123802
C4    C     C_R   0.268019 0.709616 0.613699 -0.129232
C5    C     C_R   0.262783 0.672970 0.834605 -0.105643
C6    C     C_R   0.239074 0.642554 0.877408 0.267004
C7    C     C_R   0.388916 0.592169 0.874277 -0.178429
C8    C     C_R   0.408812 0.619157 0.831177 -0.137306
C9    C     C_R   0.343727 0.656683 0.810959 -0.011300
C10   C     C_1   0.352708 0.669331 0.764600 -0.048486
C11   C     C_1   0.355566 0.676878 0.725335 -0.043932
C12   C     C_R   0.384014 0.788810 0.551036 0.540260
C13   C     C_R   0.301701 0.599998 0.897347 0.030514
C14   C     C_3   0.222999 0.110289 0.722929 -0.087822
C15   C     C_3   0.265340 0.057288 0.754986 -0.112927
C16   C     C_1   0.297092 0.197046 0.876633 -0.012784
C17   C     C_1   0.367239 0.136019 0.614204 -0.014357
C18   C     C_3   0.274188 0.218323 0.757380 -0.072484
C19   C     C_3   0.316799 0.165165 0.788631 0.046516
C20   C     C_3   0.387811 0.261459 0.735133 -0.108556
C21   C     C_3   0.336314 0.153668 0.701481 0.048511
C22   C     C_3   0.430236 0.208580 0.767072 -0.108189
C23   C     C_R   0.397775 0.118783 0.569646 0.545139
C24   C     C_3   0.379050 0.100522 0.732663 -0.100651
C25   C     C_1   0.306347 0.177701 0.837123 -0.053703
C26   C     C_1   0.349876 0.145823 0.653264 -0.055280
C27   C     C_3   0.909915 0.234026 0.734510 0.333378
C28   C     C_3   0.841625 0.267488 0.768365 -0.152599
C29   C     C_1   0.886600 0.200507 0.880131 -0.022344
C30   C     C_1   0.763002 0.127915 0.615773 -0.010849
C31   C     C_3   0.893987 0.140484 0.759474 0.333838
C32   C     C_3   0.825990 0.172926 0.793257 0.017870
C33   C     C_3   0.784192 0.059148 0.729528 -0.143151
C34   C     C_R   0.721049 0.095722 0.442981 0.536646
C35   C     C_3   0.801054 0.154469 0.704740 0.028545
C36   C     C_3   0.715139 0.091745 0.763962 -0.161376
C37   C     C_3   0.730789 0.186102 0.738141 -0.160970
C38   C     C_1   0.851797 0.186291 0.841614 -0.045488
C39   C     C_1   0.785255 0.143546 0.655805 -0.027702
C40   C     C_3   0.237386 0.619074 0.258388 -0.117195
C41   C     C_3   0.281439 0.712575 0.229415 -0.136026
C42   C     C_1   0.309286 0.607346 0.111345 -0.004009
C43   C     C_1   0.365438 0.735317 0.378218 -0.023330
C44   C     C_3   0.296465 0.564851 0.229286 0.319109
C45   C     C_R   0.382007 0.784124 0.424426 0.545328
C46   C     C_3   0.339228 0.656929 0.200598 0.064010
C47   C     C_3   0.407074 0.629172 0.260369 -0.087750
C48   C     C_3   0.348712 0.684751 0.289093 0.006275
C49   C     C_3   0.449716 0.722638 0.231379 -0.137621
C50   C     C_3   0.392153 0.778729 0.260956 -0.103532
C51   C     C_1   0.327573 0.635278 0.151455 -0.023676
C52   C     C_1   0.356073 0.706892 0.338166 -0.070177
C53   C     C_R   0.357220 0.130123 0.400214 -0.019541
C54   C     C_R   0.413919 0.232623 0.385761 -0.148596
C55   C     C_R   0.398211 0.240798 0.340991 -0.181381
C56   C     C_R   0.395994 0.114108 0.442915 0.544377
C57   C     C_R   0.325309 0.146984 0.310507 0.051053
C58   C     C_R   0.259185 0.045584 0.324973 0.279299
C59   C     C_R   0.277420 0.037824 0.370187 -0.129163
C60   C     C_R   0.239220 0.092706 0.147471 -0.110881
C61   C     C_R   0.232010 0.111869 0.103667 -0.125520
C62   C     C_R   0.411379 0.281485 0.119832 -0.110970
C63   C     C_R   0.418256 0.262106 0.163646 -0.103316
C64   C     C_R   0.330299 0.169758 0.177762 0.037356
C65   C     C_1   0.328110 0.159756 0.224274 -0.023119
C66   C     C_1   0.325763 0.153651 0.263592 0.015029
C67   C     C_R   0.366634 0.735344 0.591205 0.020230
C68   C     C_R   0.315643 0.208901 0.090089 0.023966
C69   C     C_R   0.781669 0.133012 0.402635 0.009907
C70   C     C_R   0.787691 0.053828 0.370099 -0.141434
C71   C     C_R   0.813217 0.074689 0.326569 -0.124884
C72   C     C_R   0.834053 0.175099 0.315050 0.019188
C73   C     C_R   0.839066 0.258511 0.347759 -0.119715
C74   C     C_R   0.814556 0.239364 0.391959 -0.016802
C75   C     C_R   0.894349 0.304739 0.168084 -0.118154
C76   C     C_R   0.917179 0.312813 0.123181 -0.119549
C77   C     C_R   0.854000 0.116846 0.107549 -0.125990
C78   C     C_R   0.456333 0.727992 0.611750 -0.128628
C79   C     C_R   0.830719 0.108954 0.152361 -0.114623
C80   C     C_R   0.854563 0.203468 0.182841 0.031530
C81   C     C_1   0.847594 0.197443 0.229759 -0.045333
C82   C     C_1   0.842816 0.189344 0.268919 -0.043211
C83   C     C_R   0.901615 0.219643 0.092995 0.022124
C84   C     C_R   0.283918 0.232481 0.922034 0.547324
C85   C     C_R   0.266189 0.547353 0.937971 0.560720
C86   C     C_R   0.943567 0.221459 0.923392 0.544097
C87   C     C_R   0.292944 0.243483 0.048996 0.546929
C88   C     C_R   0.275388 0.558749 0.065158 0.549592
C89   C     C_R   0.450840 0.703936 0.655442 -0.114444
C90   C     C_R   0.954387 0.233384 0.050024 0.543310
Cr1   Cr    Cr6+3 0.583430 0.162610 0.509470 1.035166
Cr2   Cr    Cr6+3 0.584210 0.916680 0.495400 1.012913
Cr3   Cr    Cr6+3 0.332380 0.920740 0.495100 1.014761
Cr4   Cr    Cr6+3 0.086810 0.177030 0.983130 1.019821
Cr5   Cr    Cr6+3 0.337180 0.419300 0.994610 1.020409
Cr6   Cr    Cr6+3 0.084840 0.422330 0.995830 1.026707
H1    H     H_    0.138525 0.070623 0.703854 0.122859
H2    H     H_    0.422591 0.052131 0.721807 0.110900
H3    H     H_    0.515293 0.248491 0.785714 0.105182
H4    H     H_    0.437804 0.345205 0.726396 0.106675
H5    H     H_    0.230777 0.266876 0.768165 0.161097
H6    H     H_    0.861545 0.350990 0.785164 0.088274
H7    H     H_    0.662664 0.204233 0.728509 0.118484
H8    H     H_    0.634711 0.033997 0.776854 0.123288
H9    H     H_    0.757675 0.974001 0.712670 0.094387
H10   H     H_    0.214859 0.705428 0.819303 0.108552
H11   H     H_    0.231506 0.747814 0.215951 0.125871
H12   H     H_    0.151527 0.579319 0.270720 0.084112
H13   H     H_    0.431561 0.867687 0.274974 0.136439
H14   H     H_    0.536079 0.765640 0.219720 0.106506
H15   H     H_    0.457177 0.593824 0.273589 0.096642
H16   H     H_    0.157470 0.054307 0.081454 0.127769
H17   H     H_    0.171036 0.020871 0.158347 0.118011
H18   H     H_    0.189355 0.673519 0.675060 0.106974
H19   H     H_    0.236284 0.958322 0.381045 0.129571
H20   H     H_    0.475890 0.304823 0.408249 0.135605
H21   H     H_    0.489093 0.321921 0.187128 0.106634
H22   H     H_    0.477042 0.356874 0.110350 0.132060
H23   H     H_    0.447567 0.319137 0.329574 0.107385
H24   H     H_    0.954574 0.393238 0.113013 0.134764
H25   H     H_    0.913055 0.378211 0.191676 0.103249
H26   H     H_    0.859405 0.337589 0.338558 0.101984
H27   H     H_    0.764368 0.972400 0.377176 0.133618
H28   H     H_    0.197609 0.714606 0.598822 0.127717
H29   H     H_    0.799546 0.030215 0.163713 0.107532
H30   H     H_    0.841098 0.043833 0.085012 0.126658
H31   H     H_    0.810845 0.010315 0.301292 0.107490
H32   H     H_    0.533492 0.747461 0.595258 0.127820
H33   H     H_    0.471999 0.606765 0.812985 0.118925
H34   H     H_    0.437678 0.558986 0.888375 0.141298
H35   H     H_    0.522720 0.703946 0.671775 0.104440
H36   H     H_    0.215292 0.973564 0.763743 0.095604
O1    O     O_R   0.493980 0.188910 0.559650 -0.508566
O2    O     O_R   0.480180 0.824400 0.444640 -0.494936
O3    O     O_R   0.308310 0.808540 0.439800 -0.514278
O4    O     O_R   0.340740 0.020600 0.455570 -0.506849
O5    O     O_3   0.500010 0.000010 0.499990 -0.242792
O6    O     O_R   0.969650 0.150960 0.933380 -0.512936
O7    O     O_R   0.187740 0.180870 0.937580 -0.493128
O8    O     O_R   0.358510 0.327410 0.940870 -0.514030
O9    O     O_R   0.324180 0.507870 0.953930 -0.515813
O10   O     O_R   0.170560 0.527890 0.952050 -0.476343
O11   O     O_R   0.987620 0.318470 0.945550 -0.505594
O12   O     O_R   0.678640 0.153520 0.554450 -0.495158
O13   O     O_R   0.976400 0.159270 0.031530 -0.518267
O14   O     O_R   0.194000 0.188570 0.028560 -0.501451
O15   O     O_R   0.365260 0.335720 0.039020 -0.515571
O16   O     O_R   0.330440 0.515580 0.044910 -0.492238
O17   O     O_R   0.177310 0.536200 0.050190 -0.510555
O18   O     O_R   0.993870 0.326170 0.036530 -0.503741
O19   O     O_3   0.169610 0.339550 0.991190 -0.243925
O20   O     O_R   0.698130 0.004030 0.549500 -0.512060
O21   O     O_R   0.481060 0.827210 0.535360 -0.504374
O22   O     O_R   0.309260 0.811560 0.537660 -0.517537
O23   O     O_R   0.341620 0.023400 0.546290 -0.495149
O24   O     O_R   0.493030 0.185890 0.461780 -0.507406
O25   O     O_R   0.677760 0.150720 0.463730 -0.483258
O26   O     O_R   0.697180 0.001010 0.451640 -0.521614
O27   O     O_3   0.158529 0.659056 0.900537 -0.553240
C91   C     C_3   0.047893 0.585985 0.879725 0.024059
H37   H     H_    0.000762 0.527197 0.902969 0.174460
H38   H     H_    0.044905 0.535636 0.846972 0.094718
C92   C     C_3   0.987194 0.651559 0.872347 -0.268347
H39   H     H_    0.994315 0.705745 0.904309 0.184480
H40   H     H_    0.028475 0.704373 0.846436 0.151099
C93   C     C_3   0.861784 0.575861 0.857103 -0.491930
H41   H     H_    0.851484 0.519717 0.825431 0.137932
H42   H     H_    0.821225 0.626100 0.851002 0.146997
H43   H     H_    0.818029 0.526063 0.883574 0.151425
O28   O     O_3   0.012523 0.299274 0.715803 -0.556877
C94   C     C_3   0.058725 0.411465 0.734589 0.017823
H44   H     H_    0.150343 0.453165 0.729038 0.162457
H45   H     H_    0.055317 0.423560 0.771867 0.121481
C95   C     C_3   0.002585 0.465921 0.710878 -0.271565
H46   H     H_    0.034332 0.478120 0.676963 0.161890
H47   H     H_    0.909178 0.412226 0.706027 0.169687
C96   C     C_3   0.027499 0.576354 0.738018 -0.500840
H48   H     H_    0.988998 0.564074 0.770639 0.142225
H49   H     H_    0.990949 0.616176 0.718955 0.142365
H50   H     H_    0.120124 0.631565 0.744665 0.147234
O29   O     O_3   0.987290 0.128211 0.773331 -0.565994
C97   C     C_3   0.957665 0.016257 0.771156 -0.001920
H51   H     H_    0.037850 0.012902 0.774368 0.155557
H52   H     H_    0.914567 0.966586 0.737884 0.112895
C98   C     C_3   0.888495 0.965898 0.810183 -0.266401
H53   H     H_    0.934230 0.018393 0.842667 0.198011
H54   H     H_    0.804210 0.961390 0.807001 0.158381
C99   C     C_3   0.870543 0.849995 0.810573 -0.488252
H55   H     H_    0.824225 0.795569 0.778507 0.141554
H56   H     H_    0.819696 0.815528 0.838921 0.149848
H57   H     H_    0.953353 0.851835 0.815104 0.144614
O30   O     O_3   0.253637 0.453964 0.208668 -0.567288
C100  C     C_3   0.174188 0.380072 0.234589 0.017098
H58   H     H_    0.130442 0.298120 0.212809 0.171779
H59   H     H_    0.106540 0.401271 0.243745 0.118586
C101  C     C_3   0.231915 0.369676 0.276439 -0.282482
H60   H     H_    0.301722 0.352633 0.266298 0.174616
H61   H     H_    0.268449 0.447752 0.300705 0.153050
C102  C     C_3   0.147683 0.277625 0.300201 -0.470456
H62   H     H_    0.079421 0.295554 0.311784 0.159000
H63   H     H_    0.191888 0.271684 0.330093 0.156609
H64   H     H_    0.109796 0.197454 0.277171 0.158850
O31   O     O_3   0.191414 0.954123 0.292669 -0.575356
C103  C     C_3   0.088441 0.878937 0.308463 0.000211
H65   H     H_    0.018611 0.859751 0.283049 0.145437
H66   H     H_    0.066943 0.912140 0.340655 0.112085
C104  C     C_3   0.090285 0.771856 0.311976 -0.260375
H67   H     H_    0.094446 0.732892 0.277761 0.163446
H68   H     H_    0.166678 0.789407 0.333175 0.178055
C105  C     C_3   0.984680 0.691250 0.332074 -0.485256
H69   H     H_    0.980340 0.727204 0.366871 0.152167
H70   H     H_    0.988100 0.614119 0.333390 0.146361
H71   H     H_    0.907125 0.671045 0.310990 0.139850
C106  C     C_R   0.821711 0.330884 0.425566 0.049654
C107  C     C_R   0.890271 0.364680 0.466164 -0.073066
C108  C     C_R   0.896607 0.450717 0.497925 -0.106911
C109  C     C_R   0.834924 0.503723 0.489361 -0.104753
C110  C     C_R   0.766907 0.470908 0.448992 -0.112352
C111  C     C_R   0.760395 0.385008 0.417114 -0.082691
H72   H     H_    0.938584 0.324339 0.473165 0.095576
H73   H     H_    0.949358 0.476311 0.529178 0.102929
H74   H     H_    0.839852 0.570237 0.514001 0.103810
H75   H     H_    0.719051 0.511910 0.442425 0.098256
H76   H     H_    0.706656 0.359871 0.386127 0.100374

loop_
_geom_bond_atom_site_label_1
_geom_bond_atom_site_label_2
_ccdc_geom_bond_type
Cr4   O14   S    
C21   C26   S    
C16   C25   T    
C87   O14   A    
C23   O23   A    
C73   C74   A    
C14   C18   S    
C92   H39   S    
C61   C68   A    
C12   O21   A    
C94   H44   S    
Cr3   O4    S    
C78   H32   S    
C6    O27   S    
C53   C59   A    
C110  H75   S    
C47   C49   S    
C55   H23   S    
O29   C97   S    
C15   C19   S    
C94   H45   S    
C46   C49   S    
C45   O2    A    
C17   C23   S    
C87   O15   A    
C99   H57   S    
C24   H2    S    
C17   C26   T    
C32   C36   S    
C14   C21   S    
C99   H56   S    
C36   C37   S    
C92   H40   S    
C90   O13   A    
C106  C111  A    
Cr3   O5    S    
C5    C6    A    
C63   H21   S    
C43   C52   T    
C98   H54   S    
O28   C94   S    
Cr2   O5    S    
C97   H52   S    
C16   C84   S    
C33   C36   S    
C4    H28   S    
C1    O20   A    
Cr2   O26   S    
C18   C19   S    
C88   O17   A    
C49   C50   S    
C95   H46   S    
C7    H34   S    
C111  H76   S    
Cr1   O5    S    
C70   H27   S    
C105  H69   S    
C15   H36   S    
O27   C91   S    
C84   O7    A    
C8    C9    A    
C96   H49   S    
C54   H20   S    
C29   C38   T    
Cr2   O20   S    
C102  H64   S    
C41   C46   S    
C31   C33   S    
Cr2   O21   S    
C32   C38   S    
C75   C80   A    
C57   C66   S    
C44   C47   S    
C90   O18   A    
C42   C51   T    
C40   H12   S    
C96   H50   S    
Cr4   O13   S    
C48   C50   S    
C79   H29   S    
C72   C82   S    
C102  H62   S    
C74   C106  S    
C93   H42   S    
Cr4   O7    S    
C71   H31   S    
C60   H17   S    
C67   C78   A    
C101  C102  S    
C2    C11   S    
C76   C83   A    
C56   O4    A    
C44   C46   S    
C86   O11   A    
C81   C82   T    
C57   C58   A    
C5    H10   S    
C77   C79   A    
C78   C89   A    
C12   C67   S    
C45   O3    A    
C62   H22   S    
C23   O1    A    
C27   C31   S    
C104  H67   S    
C91   C92   S    
C28   C32   S    
C19   C22   S    
Cr5   O15   S    
C94   C95   S    
C101  H61   S    
C85   O9    A    
C37   H7    S    
C106  C107  A    
C80   C81   S    
C98   C99   S    
C27   C35   S    
C58   C59   A    
C53   C54   A    
Cr6   O19   S    
C46   C51   S    
C50   H13   S    
C63   C64   A    
C99   H55   S    
C18   H5    S    
C91   H38   S    
Cr5   O8    S    
C2    C89   A    
C35   C39   S    
C75   C76   A    
C5    C9    A    
C62   C63   A    
C104  C105  S    
C31   C32   S    
Cr1   O1    S    
C103  C104  S    
C7    C13   A    
C100  C101  S    
Cr6   O18   S    
C92   C93   S    
C100  H59   S    
C88   O16   A    
C33   H9    S    
C69   C74   A    
C76   H24   S    
C108  C109  A    
C43   C45   S    
C27   O28   S    
C29   C86   S    
C70   C71   A    
C95   C96   S    
C96   H48   S    
C34   O26   A    
C40   C41   S    
C109  C110  A    
C20   C22   S    
C58   O31   S    
Cr5   O9    S    
C105  H70   S    
C55   C57   A    
C93   H41   S    
Cr4   O6    S    
C22   C24   S    
C101  H60   S    
C42   C88   S    
C3    C4    A    
C41   C50   S    
C8    H33   S    
C14   H1    S    
C102  H63   S    
Cr1   O12   S    
C9    C10   S    
C53   C56   S    
C109  H74   S    
C40   C48   S    
C83   C90   S    
C54   C55   A    
C15   C24   S    
C22   H3    S    
C41   H11   S    
C36   H8    S    
C35   C37   S    
C20   C21   S    
C75   H25   S    
C34   C69   S    
C73   H26   S    
Cr2   O2    S    
Cr5   O16   S    
C12   O22   A    
C72   C73   A    
C47   C48   S    
C3    H18   S    
Cr3   O22   S    
C85   O10   A    
C4    C67   A    
Cr3   O3    S    
C105  H71   S    
C98   H53   S    
C89   H35   S    
C62   C68   A    
C60   C64   A    
O30   C100  S    
C2    C3    A    
Cr4   O19   S    
Cr1   O24   S    
C1    O12   A    
C107  H72   S    
C91   H37   S    
Cr6   O11   S    
C103  H66   S    
Cr3   O23   S    
C110  C111  A    
C28   C37   S    
C47   H15   S    
Cr6   O17   S    
C64   C65   S    
C1    C30   S    
C33   C35   S    
C108  H73   S    
C30   C39   T    
C18   C20   S    
C56   O24   A    
C65   C66   T    
C107  C108  A    
C69   C70   A    
C19   C25   S    
C95   H47   S    
Cr1   O25   S    
C7    C8    A    
C10   C11   T    
C86   O6    A    
Cr6   O10   S    
C79   C80   A    
C34   O25   A    
C28   H6    S    
C40   C44   S    
Cr5   O19   S    
C103  H65   S    
C84   O8    A    
C93   H43   S    
C59   H19   S    
C100  H58   S    
C44   O30   S    
C21   C24   S    
C13   C85   S    
C27   C28   S    
C104  H68   S    
C68   C87   S    
C77   C83   A    
C14   C15   S    
C60   C61   A    
O31   C103  S    
C71   C72   A    
C48   C52   S    
C61   H16   S    
C97   C98   S    
C31   O29   S    
C77   H30   S    
C97   H51   S    
C49   H14   S    
C6    C13   A    
C20   H4    S    
