data_mof_unit_20343.cif
_audit_creation_date              2012-12-10T17:35:33-0500
_audit_creation_method            fapswitch 2.2
_symmetry_space_group_name_H-M    P1
_symmetry_Int_Tables_number       1
_space_group_crystal_system       triclinic
_cell_length_a                    10.780159
_cell_length_b                    12.398658
_cell_length_c                    13.538046
_cell_angle_alpha                 117.95296
_cell_angle_beta                  74.524923
_cell_angle_gamma                 101.428884
_cell_volume                      1534.74717396

loop_
_atom_site_label
_atom_site_type_symbol
_atom_type_description
_atom_site_fract_x
_atom_site_fract_y
_atom_site_fract_z
_atom_type_partial_charge
C1    C     C_R   0.499435 0.855118 0.289715 0.885147
C2    C     C_3   0.121930 0.001880 0.504637 -0.186937
C3    C     C_3   0.043011 0.885254 0.509965 -0.468089
C4    C     C_3   0.111232 0.001282 0.392164 -0.464918
C5    C     C_R   0.420308 0.268783 0.033909 -0.107238
C6    C     C_R   0.449963 0.229849 0.836499 -0.118285
C7    C     C_R   0.497055 0.818333 0.092260 0.651945
C8    C     C_R   0.489324 0.740331 0.979674 -0.174963
C9    C     C_R   0.460814 0.615384 0.944966 -0.186587
C10   C     C_R   0.429530 0.564833 0.023322 0.099586
C11   C     C_R   0.424549 0.645772 0.140765 0.022943
C12   C     C_R   0.740236 0.000093 0.499391 0.963569
C13   C     C_R   0.413819 0.435583 0.987854 0.035518
C14   C     C_R   0.401971 0.391411 0.069309 0.094383
C15   C     C_R   0.368584 0.470290 0.184648 -0.179027
C16   C     C_R   0.373169 0.595571 0.219611 -0.132287
C17   C     C_R   0.413376 0.348011 0.874281 0.335221
C18   C     C_R   0.452863 0.190711 0.917718 -0.102847
C19   C     C_R   0.471567 0.772352 0.173888 -0.252680
C20   C     C_R   0.632000 0.297142 0.281355 0.518258
C21   C     C_R   0.333781 0.769334 0.656543 0.719293
C22   C     C_R   0.295463 0.675820 0.690284 -0.379563
C23   C     C_R   0.476642 0.145941 0.713476 0.896775
C24   C     C_R   0.352362 0.565694 0.627467 0.634250
C25   C     C_R   0.450152 0.548019 0.530052 -0.111157
C26   C     C_R   0.483202 0.643297 0.493620 0.000607
C27   C     C_R   0.510936 0.435339 0.463804 -0.097614
C28   C     C_R   0.570246 0.404714 0.349068 -0.211214
C29   C     C_R   0.588015 0.490920 0.308402 -0.160047
C30   C     C_R   0.566907 0.611961 0.383214 0.403820
C31   C     C_R   0.527057 0.357699 0.509214 0.589778
C32   C     C_R   0.636914 0.220903 0.328530 0.466654
C33   C     C_R   0.260253 0.000897 0.502041 0.849240
C34   C     C_3   0.914699 0.111968 0.613080 0.036853
C35   C     C_3   0.062156 0.116769 0.610661 0.874336
C36   C     C_3   0.904616 0.881315 0.498889 -0.356882
C37   C     C_3   0.970961 0.015656 0.395500 0.859349
C38   C     C_3   0.879157 0.002868 0.501850 -0.237152
Cu1   Cu    Cu3+1 0.529690 0.098270 0.475420 1.148250
Cu2   Cu    Cu3+1 0.470310 0.901730 0.524580 1.064590
H1    H     H_    0.142902 0.913555 0.318652 0.198970
H2    H     H_    0.892648 0.803616 0.416077 0.274943
H3    H     H_    0.087680 0.801520 0.439696 0.209086
H4    H     H_    0.474933 0.098470 0.891550 0.210087
H5    H     H_    0.341067 0.435443 0.248144 0.161648
H6    H     H_    0.415071 0.235113 0.095873 0.182605
H7    H     H_    0.466192 0.559975 0.855813 0.258370
H8    H     H_    0.511052 0.776390 0.917351 0.193808
H9    H     H_    0.896220 0.199189 0.617221 0.206221
H10   H     H_    0.336564 0.650580 0.308867 0.168076
H11   H     H_    0.641557 0.469143 0.221968 0.252306
H12   H     H_    0.218684 0.687644 0.763984 0.232115
H13   H     H_    0.836385 0.861569 0.567346 0.255460
H14   H     H_    0.041841 0.883283 0.591513 0.270920
H15   H     H_    0.178372 0.074956 0.376770 0.236939
N1    N     N_R   0.574690 0.246280 0.438200 -0.321828
N2    N     N_R   0.426100 0.754320 0.561190 -0.262111
O1    O     O_R   0.537340 0.972510 0.318130 -0.501161
O2    O     O_R   0.487200 0.806530 0.359650 -0.583713
O3    O     O_R   0.707380 0.082980 0.479220 -0.528921
O4    O     O_R   0.657240 0.917000 0.520740 -0.539721
O5    O     O_R   0.512800 0.193470 0.640350 -0.517076
O6    O     O_R   0.462660 0.027490 0.681870 -0.533950
O7    O     O_R   0.342760 0.083000 0.479260 -0.551764
O8    O     O_R   0.292620 0.917020 0.520780 -0.572047
Cl1   Cl    Cl    0.807335 0.105797 0.738337 -0.510896
Cl2   Cl    Cl    0.310669 0.364502 0.801299 -0.375804
F1    F     F_    0.530745 0.938941 0.120060 -0.609965
Cl3   Cl    Cl    0.744218 0.105373 0.249510 -0.287397
F2    F     F_    0.695672 0.270565 0.172296 -0.574798
Cl4   Cl    Cl    0.563767 0.429699 0.645019 -0.545969
F3    F     F_    0.273410 0.874084 0.717222 -0.603095
F4    F     F_    0.301085 0.472075 0.654890 -0.536926
Cl5   Cl    Cl    0.688511 0.702654 0.334929 -0.569419
F5    F     F_    0.124053 0.221812 0.601156 -0.570306
Cl6   Cl    Cl    0.091075 0.126979 0.740185 -0.380197
F6    F     F_    0.933636 0.925148 0.296162 -0.584498
Cl7   Cl    Cl    0.968509 0.161276 0.396885 -0.472869

loop_
_geom_bond_atom_site_label_1
_geom_bond_atom_site_label_2
_ccdc_geom_bond_type
C2    C35   S    
C36   H2    S    
C34   Cl1   S    
C33   O8    A    
C7    C8    A    
Cu1   O7    S    
C3    H3    S    
C29   C30   A    
Cu2   O6    S    
C28   C29   A    
C16   H10   S    
C1    O2    A    
C29   H11   S    
C30   Cl5   S    
C3    H14   S    
C24   F4    S    
C4    H1    S    
Cu1   O3    S    
C15   C16   A    
C34   C35   S    
C6    C17   A    
C36   H13   S    
C7    F1    S    
C23   O5    A    
C8    C9    A    
C31   N1    A    
C9    C10   A    
C23   O6    A    
Cu2   O2    S    
C21   C22   A    
C20   F2    S    
C6    C18   A    
C35   Cl6   S    
C17   Cl2   S    
C1    C19   S    
C21   F3    S    
C27   C31   A    
C24   C25   A    
Cu1   Cu2   S    
C5    C18   A    
C20   C28   A    
C25   C26   A    
Cu1   O1    S    
C37   F6    S    
Cu2   O4    S    
C2    C4    S    
C8    H8    S    
C21   N2    A    
C37   C38   S    
C18   H4    S    
C11   C16   A    
Cu1   N1    S    
C11   C19   A    
C5    C14   A    
C5    H6    S    
C2    C33   S    
C26   C30   A    
C7    C19   A    
Cu2   O8    S    
C4    H15   S    
C22   C24   A    
C15   H5    S    
C22   H12   S    
C20   C32   A    
Cu1   O5    S    
C34   H9    S    
Cu2   N2    S    
C34   C38   S    
C35   F5    S    
C10   C13   A    
C9    H7    S    
C32   Cl3   S    
C25   C27   A    
C37   Cl7   S    
C13   C17   A    
C36   C38   S    
C2    C3    S    
C1    O1    A    
C12   O4    A    
C3    C36   S    
C33   O7    A    
C6    C23   S    
C31   Cl4   S    
C12   C38   S    
C26   N2    A    
C10   C11   A    
C12   O3    A    
C4    C37   S    
C27   C28   A    
C14   C15   A    
C13   C14   A    
C32   N1    A    
