data_mof_unit_29416.cif
_audit_creation_date              2012-12-10T17:59:18-0500
_audit_creation_method            fapswitch 2.2
_symmetry_space_group_name_H-M    P1
_symmetry_Int_Tables_number       1
_space_group_crystal_system       triclinic
_cell_length_a                    10.826199
_cell_length_b                    9.592773
_cell_length_c                    10.758825
_cell_angle_alpha                 89.719957
_cell_angle_beta                  91.756936
_cell_angle_gamma                 89.992449
_cell_volume                      1116.80049145

loop_
_atom_site_label
_atom_site_type_symbol
_atom_type_description
_atom_site_fract_x
_atom_site_fract_y
_atom_site_fract_z
_atom_type_partial_charge
C1    C     C_R   0.262349 0.500015 0.502841 0.768201
C2    C     C_R   0.441654 0.925914 0.405755 0.309275
C3    C     C_R   0.557627 0.925448 0.593922 -0.116811
C4    C     C_R   0.557725 0.073567 0.593859 -0.116444
C5    C     C_R   0.501867 0.500557 0.259750 0.786203
C6    C     C_R   0.737662 0.499995 0.501072 0.788909
C7    C     C_R   0.500963 0.499500 0.739783 0.762925
C8    C     C_3   0.391741 0.583599 0.066784 -0.412205
C9    C     C_3   0.492488 0.350925 0.070545 -0.448139
C10   C     C_3   0.394643 0.587743 0.923904 -0.376406
C11   C     C_3   0.491329 0.348624 0.928598 -0.402792
C12   C     C_3   0.628001 0.558657 0.927913 -0.383378
C13   C     C_3   0.627946 0.575409 0.073771 0.531063
C14   C     C_3   0.505731 0.502714 0.120987 0.067029
C15   C     C_3   0.503398 0.498872 0.877381 0.099030
C16   C     C_3   0.660808 0.838107 0.035633 -0.784987
C17   C     C_3   0.856487 0.570469 0.118009 -0.716304
C18   C     C_3   0.254742 0.172877 0.304982 -0.640740
C19   C     C_3   0.256315 0.833473 0.298995 -0.657908
C20   C     C_R   0.064002 0.373881 0.514746 -0.200951
C21   C     C_R   0.063638 0.626548 0.504782 -0.202196
C22   C     C_R   0.936192 0.373651 0.512210 -0.189746
C23   C     C_R   0.935878 0.626615 0.502171 -0.191440
C24   C     C_R   0.871585 0.500033 0.504391 -0.004624
C25   C     C_R   0.128372 0.500125 0.507513 -0.026814
C26   C     C_R   0.441214 0.074729 0.405882 0.312578
Cu1   Cu    Cu3+1 0.500020 0.640660 0.500000 0.946863
Cu2   Cu    Cu3+1 0.500020 0.359340 0.500000 0.949705
H1    H     H_    0.604719 0.869941 0.669213 0.140812
H2    H     H_    0.111221 0.725415 0.504909 0.147261
H3    H     H_    0.888337 0.274677 0.516666 0.147976
H4    H     H_    0.887822 0.725669 0.498360 0.148047
H5    H     H_    0.389681 0.691675 0.101478 0.206562
H6    H     H_    0.566172 0.280865 0.108673 0.168059
H7    H     H_    0.304711 0.533121 0.096264 0.153059
H8    H     H_    0.402836 0.307555 0.099933 0.198617
H9    H     H_    0.656177 0.736977 0.205929 0.279116
H10   H     H_    0.663282 0.935773 0.090812 0.217722
H11   H     H_    0.589954 0.853243 0.960016 0.232605
H12   H     H_    0.604881 0.128292 0.669063 0.139584
H13   H     H_    0.753784 0.821646 0.997465 0.236174
H14   H     H_    0.740805 0.399367 0.113075 0.235043
H15   H     H_    0.929114 0.502490 0.161178 0.226081
H16   H     H_    0.860136 0.671419 0.167740 0.245784
H17   H     H_    0.877602 0.586640 0.018657 0.220588
H18   H     H_    0.415825 0.113938 0.217932 0.208530
H19   H     H_    0.207069 0.121388 0.224871 0.187316
H20   H     H_    0.237152 0.286264 0.294798 0.231320
H21   H     H_    0.214416 0.133975 0.392156 0.209198
H22   H     H_    0.424204 0.882347 0.218152 0.225065
H23   H     H_    0.305412 0.547831 0.884111 0.155294
H24   H     H_    0.212951 0.878501 0.381893 0.209897
H25   H     H_    0.235699 0.720433 0.293903 0.234101
H26   H     H_    0.214383 0.882357 0.214078 0.190211
H27   H     H_    0.403715 0.300469 0.892760 0.181533
H28   H     H_    0.404423 0.697747 0.892299 0.178602
H29   H     H_    0.568906 0.282353 0.897513 0.167971
H30   H     H_    0.650251 0.654986 0.876727 0.160134
H31   H     H_    0.702530 0.485297 0.901962 0.129120
H32   H     H_    0.111929 0.275381 0.523024 0.144904
N1    N     N_R   0.500030 0.852070 0.500030 -0.178866
N2    N     N_R   0.500030 0.147930 0.500030 -0.177153
N3    N     N_2   0.627105 0.722285 0.114769 -0.410527
N4    N     N_2   0.736631 0.504844 0.129782 -0.459576
N5    N     N_2   0.386474 0.147294 0.302905 -0.387905
N6    N     N_2   0.388881 0.853711 0.302336 -0.384701
O1    O     O_R   0.319660 0.618740 0.499990 -0.565234
O2    O     O_R   0.319660 0.381260 0.499990 -0.567610
O3    O     O_R   0.499990 0.618790 0.317690 -0.559049
O4    O     O_R   0.499990 0.381210 0.317690 -0.551676
O5    O     O_R   0.680370 0.618830 0.500010 -0.591561
O6    O     O_R   0.680370 0.381170 0.500010 -0.586170
O7    O     O_R   0.500030 0.618780 0.682310 -0.593963
O8    O     O_R   0.500030 0.381220 0.682310 -0.592190

loop_
_geom_bond_atom_site_label_1
_geom_bond_atom_site_label_2
_ccdc_geom_bond_type
C9    H8    S    
C6    O6    A    
C9    C14   S    
C2    N1    A    
C26   N5    S    
C5    O4    A    
Cu2   O2    S    
C16   N3    S    
C4    N2    A    
C20   H32   S    
C10   H28   S    
C21   H2    S    
Cu1   O3    S    
C12   C15   S    
C23   C24   A    
Cu2   O8    S    
C23   H4    S    
C19   H25   S    
C17   H15   S    
C26   N2    A    
C17   H16   S    
C6    C24   S    
C12   H30   S    
C7    O7    A    
C11   H29   S    
C13   C14   S    
C18   H19   S    
C18   N5    S    
C1    C25   S    
H22   N6    S    
C9    C11   S    
C5    C14   S    
Cu2   O6    S    
C13   N4    S    
C11   C15   S    
H18   N5    S    
C10   H23   S    
C16   H13   S    
C19   H26   S    
C7    C15   S    
C1    O1    A    
C17   H17   S    
C7    O8    A    
C13   N3    S    
C3    N1    A    
C21   C23   A    
Cu2   N2    S    
C9    H6    S    
C22   C24   A    
Cu1   O1    S    
C20   C25   A    
C20   C22   A    
C16   H11   S    
C3    C4    A    
H14   N4    S    
C1    O2    A    
C11   H27   S    
C12   C13   S    
C18   H21   S    
C19   N6    S    
C2    C26   A    
C22   H3    S    
C2    N6    S    
Cu1   Cu2   S    
C3    H1    S    
C21   C25   A    
C8    C14   S    
C17   N4    S    
Cu1   N1    S    
H9    N3    S    
C10   C15   S    
Cu1   O7    S    
C12   H31   S    
C5    O3    A    
C19   H24   S    
C8    C10   S    
Cu2   O4    S    
C4    H12   S    
Cu1   O5    S    
C16   H10   S    
C8    H5    S    
C6    O5    A    
C8    H7    S    
C18   H20   S    
