data_mof_unit_12251.cif
_audit_creation_date              2012-12-10T19:00:49-0500
_audit_creation_method            fapswitch 2.2
_symmetry_space_group_name_H-M    P1
_symmetry_Int_Tables_number       1
_space_group_crystal_system       triclinic
_cell_length_a                    14.969751
_cell_length_b                    10.817514
_cell_length_c                    9.550774
_cell_angle_alpha                 89.067019
_cell_angle_beta                  90.165485
_cell_angle_gamma                 88.887833
_cell_volume                      1546.10497091

loop_
_atom_site_label
_atom_site_type_symbol
_atom_type_description
_atom_site_fract_x
_atom_site_fract_y
_atom_site_fract_z
_atom_type_partial_charge
C1    C     C_R   0.498963 0.262664 0.501127 0.850563
C2    C     C_R   0.904503 0.610915 0.464607 -0.009081
C3    C     C_R   0.955353 0.280706 0.563547 -0.184117
C4    C     C_R   0.048837 0.277182 0.560515 -0.015360
C5    C     C_R   0.095233 0.387401 0.530111 0.078689
C6    C     C_R   0.046683 0.498220 0.496854 0.057071
C7    C     C_R   0.092059 0.607937 0.463357 0.035212
C8    C     C_R   0.044380 0.717145 0.431153 -0.269956
C9    C     C_R   0.951031 0.720631 0.432295 0.433905
C10   C     C_R   0.188830 0.391114 0.534432 -0.248171
C11   C     C_R   0.232647 0.499741 0.499401 -0.042746
C12   C     C_R   0.328980 0.500462 0.499855 0.800542
C13   C     C_R   0.185017 0.607398 0.463552 -0.198457
C14   C     C_R   0.509277 0.060923 0.623396 0.113189
C15   C     C_R   0.489175 0.130586 0.503539 -0.141680
C16   C     C_R   0.453327 0.072057 0.387246 -0.258626
C17   C     C_R   0.449354 0.943230 0.383450 0.365767
C18   C     C_R   0.484995 0.872094 0.498242 -0.214862
C19   C     C_R   0.507865 0.934052 0.620233 0.074134
C20   C     C_3   0.588993 0.920744 0.711286 -0.391268
C21   C     C_3   0.590467 0.061060 0.714494 -0.408576
C22   C     C_R   0.557097 0.424616 0.075071 0.210719
C23   C     C_R   0.495490 0.737936 0.498729 0.838664
C24   C     C_R   0.434598 0.561312 0.072631 0.038761
C25   C     C_R   0.435327 0.563066 0.923888 -0.044974
C26   C     C_R   0.557802 0.426558 0.927845 0.210590
C27   C     C_3   0.657158 0.425735 0.921486 -0.569540
C28   C     C_3   0.657151 0.419103 0.080905 0.195587
C29   C     C_R   0.670949 0.499514 0.500241 0.825895
C30   C     C_R   0.810954 0.608201 0.464953 -0.172825
C31   C     C_R   0.767169 0.499746 0.500707 -0.075912
C32   C     C_R   0.814577 0.391670 0.535937 -0.146568
C33   C     C_R   0.907569 0.390355 0.533044 0.110033
C34   C     C_R   0.952961 0.499847 0.497821 0.001651
Cu1   Cu    Cu3+1 0.500000 0.499980 0.640670 0.958887
Cu2   Cu    Cu3+1 0.500000 0.500020 0.359330 1.036301
H1    H     H_    0.770749 0.689490 0.438902 0.197318
H2    H     H_    0.573646 0.877703 0.814735 0.218660
H3    H     H_    0.647102 0.878931 0.655772 0.217114
H4    H     H_    0.575831 0.098923 0.819623 0.231287
H5    H     H_    0.649377 0.101060 0.660839 0.208540
H6    H     H_    0.381763 0.609534 0.126285 0.215290
H7    H     H_    0.384323 0.615447 0.867017 0.153645
H8    H     H_    0.684069 0.341983 0.869024 0.213541
H9    H     H_    0.683583 0.514392 0.880047 0.203236
H10   H     H_    0.778783 0.308439 0.563311 0.145448
H11   H     H_    0.687542 0.500787 0.129908 0.133999
H12   H     H_    0.919614 0.196664 0.587455 0.186466
H13   H     H_    0.228732 0.310496 0.564737 0.139708
H14   H     H_    0.220447 0.691245 0.438923 0.167543
H15   H     H_    0.080460 0.800244 0.405608 0.202707
H16   H     H_    0.430649 0.126877 0.297660 0.208805
N1    N     N_R   0.500570 0.500930 0.147930 -0.227235
N2    N     N_R   0.500570 0.500890 0.852020 -0.192278
O1    O     O_R   0.500000 0.319640 0.618810 -0.585206
O2    O     O_R   0.500010 0.319680 0.381230 -0.554593
O3    O     O_R   0.370250 0.499950 0.618800 -0.593183
O4    O     O_R   0.370260 0.499990 0.381220 -0.571968
O5    O     O_R   0.499990 0.680320 0.618770 -0.589638
O6    O     O_R   0.500000 0.680360 0.381190 -0.504204
O7    O     O_R   0.629740 0.500010 0.618780 -0.592368
O8    O     O_R   0.629750 0.500050 0.381200 -0.561363
S1    S     S_3+6 0.400800 0.879283 0.232873 -0.025973
O9    O     O_2   0.338899 0.778473 0.276720 -0.341674
O10   O     O_2   0.348141 0.975797 0.150960 -0.305244
O11   O     O_3   0.482128 0.821815 0.130302 -0.521961
H17   H     H_    0.519596 0.893527 0.106172 0.357041
S2    S     S_3+6 0.699800 0.272925 0.146959 0.024337
O12   O     O_2   0.682768 0.260877 0.301298 -0.259924
O13   O     O_2   0.655420 0.168172 0.074137 -0.320137
O14   O     O_3   0.810639 0.264076 0.119696 -0.479469
H18   H     H_    0.817409 0.258954 0.016812 0.342493
C35   C     C_R   0.095439 0.156526 0.586742 0.114793
C36   C     C_R   0.151689 0.105036 0.484430 -0.085328
C37   C     C_R   0.196016 0.991954 0.510085 -0.149905
C38   C     C_R   0.183414 0.928339 0.636751 -0.128591
C39   C     C_R   0.126162 0.977531 0.737807 -0.068350
C40   C     C_R   0.082164 0.091088 0.713035 -0.118688
H19   H     H_    0.161516 0.152840 0.385301 0.152141
H20   H     H_    0.239761 0.953355 0.431487 0.187359
H21   H     H_    0.217670 0.840697 0.656328 0.136676
H22   H     H_    0.116090 0.927848 0.835592 0.156529
H23   H     H_    0.038442 0.128543 0.792640 0.140408
S3    S     S_3+6 0.895465 0.864196 0.395894 -0.001213
O15   O     O_2   0.839147 0.899200 0.519713 -0.324118
O16   O     O_2   0.961535 0.964400 0.367391 -0.271706
O17   O     O_3   0.829253 0.849651 0.254772 -0.529328
H24   H     H_    0.794933 0.928750 0.247614 0.405121

loop_
_geom_bond_atom_site_label_1
_geom_bond_atom_site_label_2
_ccdc_geom_bond_type
C8    C9    A    
O17   H24   S    
S1    O10   D    
C28   H11   S    
C24   H6    S    
C35   C36   A    
C19   C20   S    
S3    O17   S    
C25   H7    S    
C7    C8    A    
C39   C40   A    
C23   O5    A    
C26   C27   S    
C14   C21   S    
C28   S2    S    
C1    O2    A    
S3    O16   D    
Cu2   O4    S    
C30   C31   A    
C3    C33   A    
C15   C16   A    
C3    H12   S    
Cu1   O5    S    
C18   C19   A    
Cu2   N1    S    
C40   H23   S    
Cu1   Cu2   S    
C16   C17   A    
C35   C40   A    
C24   C25   A    
C1    C15   S    
C37   H20   S    
C12   O4    A    
C27   H9    S    
O11   H17   S    
S1    O11   S    
C22   C28   S    
Cu1   N2    S    
Cu2   O8    S    
C26   N2    A    
C33   C34   A    
C22   N1    A    
C23   O6    A    
C29   O7    A    
C36   C37   A    
Cu1   O1    S    
C18   C23   S    
S3    O15   D    
C38   C39   A    
C20   H3    S    
S2    O12   D    
C24   N1    A    
C6    C34   A    
C30   H1    S    
C2    C9    A    
C37   C38   A    
Cu2   O2    S    
C20   H2    S    
C31   C32   A    
C17   C18   A    
Cu1   O7    S    
C25   N2    A    
C8    H15   S    
C4    C35   S    
C21   H5    S    
C12   O3    A    
C36   H19   S    
C3    C4    A    
C29   O8    A    
C32   H10   S    
C14   C19   A    
C16   H16   S    
C4    C5    A    
Cu2   O6    S    
C38   H21   S    
C11   C12   S    
C6    C7    A    
Cu1   O3    S    
C2    C30   A    
C32   C33   A    
C1    O1    A    
C5    C10   A    
C29   C31   S    
C17   S1    S    
C11   C13   A    
C2    C34   A    
C5    C6    A    
C21   H4    S    
C39   H22   S    
S2    O14   S    
C13   H14   S    
C10   C11   A    
C9    S3    S    
S1    O9    D    
C7    C13   A    
O14   H18   S    
C20   C21   S    
S2    O13   D    
C22   C26   A    
C27   C28   S    
C14   C15   A    
C27   H8    S    
C10   H13   S    
