data_mof_unit_14353.cif
_audit_creation_date              2012-12-10T17:19:24-0500
_audit_creation_method            fapswitch 2.2
_symmetry_space_group_name_H-M    P1
_symmetry_Int_Tables_number       1
_space_group_crystal_system       triclinic
_cell_length_a                    15.093885
_cell_length_b                    10.776246
_cell_length_c                    9.60419
_cell_angle_alpha                 89.925258
_cell_angle_beta                  90.335802
_cell_angle_gamma                 92.613775
_cell_volume                      1560.52066341

loop_
_atom_site_label
_atom_site_type_symbol
_atom_type_description
_atom_site_fract_x
_atom_site_fract_y
_atom_site_fract_z
_atom_type_partial_charge
C1    C     C_R   0.497953 0.262726 0.500099 0.901539
C2    C     C_R   0.907262 0.515715 0.376198 0.117910
C3    C     C_R   0.956016 0.474676 0.754948 0.695068
C4    C     C_R   0.048257 0.475081 0.753128 -0.314526
C5    C     C_R   0.093978 0.488299 0.627366 0.024395
C6    C     C_R   0.046965 0.501879 0.501430 0.106071
C7    C     C_R   0.092932 0.514989 0.374259 0.119729
C8    C     C_R   0.045814 0.528870 0.249484 -0.193346
C9    C     C_R   0.953496 0.529475 0.250519 -0.082468
C10   C     C_R   0.186151 0.487835 0.625642 -0.220142
C11   C     C_R   0.232051 0.500377 0.499551 -0.064000
C12   C     C_R   0.328806 0.499737 0.499688 0.760236
C13   C     C_R   0.185303 0.513910 0.374154 -0.234077
C14   C     C_R   0.347987 0.119538 0.617502 -0.119340
C15   C     C_R   0.276827 0.049823 0.673948 -0.124233
C16   C     C_R   0.276823 0.920699 0.673504 -0.121988
C17   C     C_R   0.348025 0.860507 0.616759 -0.107894
C18   C     C_R   0.421372 0.929279 0.560244 0.023685
C19   C     C_R   0.421302 0.060475 0.560533 0.018896
C20   C     C_R   0.493615 0.128685 0.500293 -0.335894
C21   C     C_R   0.563508 0.068578 0.438881 0.565868
C22   C     C_R   0.563887 0.940437 0.439512 0.541958
C23   C     C_R   0.498527 0.737159 0.499976 0.878093
C24   C     C_R   0.493940 0.870742 0.500203 -0.325133
C25   C     C_R   0.619256 0.663375 0.144391 -0.339573
C26   C     C_R   0.678720 0.741614 0.072585 0.579581
C27   C     C_R   0.678512 0.741772 0.929015 0.554829
C28   C     C_R   0.619106 0.663388 0.856646 -0.274525
C29   C     C_R   0.558556 0.580327 0.925535 0.152750
C30   C     C_R   0.558567 0.580305 0.075020 0.125979
C31   C     C_R   0.444198 0.423657 0.073472 -0.019073
C32   C     C_R   0.444229 0.423668 0.925600 -0.025192
C33   C     C_R   0.671365 0.500169 0.500634 0.894731
C34   C     C_R   0.815021 0.515205 0.377205 -0.217926
C35   C     C_R   0.768550 0.500751 0.502595 -0.198064
C36   C     C_R   0.815176 0.487089 0.628963 0.652991
C37   C     C_R   0.907966 0.487951 0.629892 -0.135606
C38   C     C_R   0.953980 0.501989 0.502594 -0.097960
Cu1   Cu    Cu3+1 0.499990 0.499990 0.640660 0.983877
Cu2   Cu    Cu3+1 0.500010 0.500010 0.359340 0.988206
H1    H     H_    0.779472 0.526162 0.279837 0.198451
H2    H     H_    0.344336 0.760124 0.616262 0.138020
H3    H     H_    0.623776 0.672081 0.254058 0.271068
H4    H     H_    0.398506 0.361024 0.870067 0.121436
H5    H     H_    0.080320 0.539173 0.151204 0.150798
H6    H     H_    0.918187 0.540448 0.153048 0.212854
N1    N     N_R   0.500860 0.501210 0.147910 -0.170159
N2    N     N_R   0.500890 0.501290 0.852040 -0.170835
O1    O     O_R   0.499990 0.319640 0.618810 -0.574324
O2    O     O_R   0.500000 0.319660 0.381240 -0.548911
O3    O     O_R   0.370250 0.499960 0.618800 -0.611235
O4    O     O_R   0.370260 0.499980 0.381230 -0.595472
O5    O     O_R   0.500000 0.680340 0.618760 -0.612918
O6    O     O_R   0.500010 0.680360 0.381190 -0.581291
O7    O     O_R   0.629740 0.500020 0.618770 -0.536695
O8    O     O_R   0.629750 0.500040 0.381200 -0.593103
H7    H     H_    0.344274 0.219533 0.617472 0.121876
H8    H     H_    0.221102 0.096205 0.717102 0.144974
H9    H     H_    0.221087 0.866859 0.716288 0.146665
F1    F     F_    0.634314 0.884000 0.384783 -0.590169
H10   H     H_    0.398438 0.361043 0.128276 0.126114
F2    F     F_    0.736788 0.818195 0.143421 -0.538746
F3    F     F_    0.736053 0.818843 0.858600 -0.577408
H11   H     H_    0.623757 0.671950 0.746930 0.241257
F4    F     F_    0.770424 0.471502 0.750629 -0.587119
F5    F     F_    0.914488 0.461107 0.879409 -0.611050
H12   H     H_    0.083979 0.464699 0.850402 0.162899
H13   H     H_    0.222013 0.477046 0.722765 0.154027
H14   H     H_    0.220637 0.524052 0.276531 0.155365
F6    F     F_    0.632958 0.134802 0.381683 -0.581798

loop_
_geom_bond_atom_site_label_1
_geom_bond_atom_site_label_2
_ccdc_geom_bond_type
C33   O7    A    
Cu2   N1    S    
Cu1   O3    S    
C23   C24   S    
C6    C38   A    
C25   C30   A    
C29   C30   A    
C10   H13   S    
C8    C9    A    
C4    H12   S    
C11   C13   A    
C1    O2    A    
C31   H10   S    
C19   C20   A    
C14   C15   A    
C21   F6    S    
C11   C12   S    
C12   O4    A    
C25   H3    S    
C33   O8    A    
C17   C18   A    
C32   H4    S    
C9    H6    S    
Cu1   O5    S    
C21   C22   A    
C32   N2    A    
C2    C34   A    
C26   C27   A    
C37   C38   A    
C34   H1    S    
C13   H14   S    
Cu2   O2    S    
C26   F2    S    
C28   H11   S    
C22   C24   A    
C5    C10   A    
C28   C29   A    
C33   C35   S    
C23   O5    A    
C6    C7    A    
Cu2   O6    S    
C22   F1    S    
C5    C6    A    
C15   H8    S    
C18   C24   A    
C3    F5    S    
C7    C8    A    
C10   C11   A    
C29   N2    A    
C15   C16   A    
Cu1   Cu2   S    
C30   N1    A    
C7    C13   A    
C12   O3    A    
C18   C19   A    
C20   C21   A    
C3    C37   A    
C23   O6    A    
C36   C37   A    
C34   C35   A    
C17   H2    S    
C27   C28   A    
C14   H7    S    
C2    C38   A    
C36   F4    S    
C4    C5    A    
C1    C20   S    
C31   N1    A    
C35   C36   A    
C27   F3    S    
Cu1   O1    S    
C25   C26   A    
Cu2   O4    S    
C2    C9    A    
C1    O1    A    
C14   C19   A    
C31   C32   A    
Cu1   O7    S    
C3    C4    A    
C8    H5    S    
C16   C17   A    
Cu1   N2    S    
Cu2   O8    S    
C16   H9    S    
