data_mof_unit_50594.cif
_audit_creation_date              2012-12-11T14:01:20-0500
_audit_creation_method            fapswitch 2.2
_symmetry_space_group_name_H-M    P1
_symmetry_Int_Tables_number       1
_space_group_crystal_system       triclinic
_cell_length_a                    18.85913
_cell_length_b                    11.280388
_cell_length_c                    18.72106
_cell_angle_alpha                 90.024379
_cell_angle_beta                  90.887504
_cell_angle_gamma                 90.196507
_cell_volume                      3982.18488615

loop_
_atom_site_label
_atom_site_type_symbol
_atom_type_description
_atom_site_fract_x
_atom_site_fract_y
_atom_site_fract_z
_atom_type_partial_charge
C1    C     C_R   0.290874 0.998621 0.861350 0.546643
C2    C     C_R   0.727410 0.041525 0.146578 0.549498
C3    C     C_R   0.790874 0.498621 0.861350 0.546627
C4    C     C_R   0.227410 0.541525 0.146578 0.549497
C5    C     C_R   0.464146 0.026850 0.068423 0.211205
C6    C     C_R   0.512593 0.046769 0.927568 0.226751
C7    C     C_R   0.964147 0.526852 0.068422 0.211206
C8    C     C_R   0.012594 0.546770 0.927568 0.226750
C9    C     C_R   0.968284 0.636447 0.035138 0.204859
C10   C     C_R   0.984594 0.644146 0.961955 0.217124
C11   C     C_R   0.468283 0.136446 0.035139 0.204858
C12   C     C_R   0.484594 0.144144 0.961956 0.217116
C13   C     C_2   0.246613 0.579315 0.918612 -0.134974
C14   C     C_2   0.764444 0.565658 0.088785 -0.096206
C15   C     C_2   0.746613 0.079315 0.918612 -0.134955
C16   C     C_2   0.264444 0.065658 0.088785 -0.096209
C17   C     C_2   0.249641 0.585952 0.077559 -0.099246
C18   C     C_2   0.776779 0.524885 0.936151 -0.046737
C19   C     C_2   0.749641 0.085952 0.077558 -0.099244
C20   C     C_2   0.276780 0.024883 0.936152 -0.046730
C21   C     C_2   0.289732 0.518305 0.035682 -0.077943
C22   C     C_2   0.747616 0.445588 0.981079 -0.112910
C23   C     C_2   0.789732 0.018305 0.035682 -0.077936
C24   C     C_2   0.247615 0.945588 0.981078 -0.112912
C25   C     C_2   0.300958 0.549855 0.961352 -0.128209
C26   C     C_2   0.728163 0.480310 0.054890 -0.112545
C27   C     C_2   0.800958 0.049855 0.961352 -0.128206
C28   C     C_2   0.228161 0.980311 0.054889 -0.112548
C29   C     C_2   0.495207 0.833129 0.576527 -0.054148
C30   C     C_2   0.495913 0.832572 0.419232 -0.103451
C31   C     C_2   0.995207 0.333129 0.576527 -0.054145
C32   C     C_2   0.995913 0.332572 0.419232 -0.103452
C33   C     C_2   0.498109 0.735974 0.460170 -0.108214
C34   C     C_2   0.488821 0.736791 0.535625 -0.059987
C35   C     C_2   0.998109 0.235974 0.460170 -0.108217
C36   C     C_2   0.988821 0.236791 0.535625 -0.059989
C37   C     C_2   0.284345 0.713738 0.564586 -0.014296
C38   C     C_2   0.731592 0.661716 0.433541 0.079259
C39   C     C_2   0.784345 0.213738 0.564586 -0.014295
C40   C     C_2   0.231592 0.161716 0.433541 0.079259
C41   C     C_2   0.255784 0.588494 0.421679 0.188853
C42   C     C_2   0.743905 0.585545 0.583424 0.215538
C43   C     C_2   0.755784 0.088494 0.421679 0.188849
C44   C     C_2   0.243905 0.085545 0.583424 0.215531
C45   C     C_R   0.473401 0.821736 0.851755 0.525457
C46   C     C_R   0.530792 0.819793 0.144776 0.563732
C47   C     C_R   0.973401 0.321736 0.851755 0.525472
C48   C     C_R   0.030792 0.319793 0.144776 0.563726
C49   C     C_2   0.232061 0.694853 0.444564 -0.168704
C50   C     C_2   0.782243 0.546700 0.528086 -0.127699
C51   C     C_2   0.732061 0.194853 0.444564 -0.168705
C52   C     C_2   0.282243 0.046700 0.528086 -0.127703
C53   C     C_2   0.228368 0.729639 0.520541 0.221396
C54   C     C_2   0.761919 0.560536 0.453307 0.260928
C55   C     C_2   0.728368 0.229639 0.520541 0.221397
C56   C     C_2   0.261919 0.060536 0.453307 0.260929
C57   C     C_R   0.260356 0.636334 0.850739 0.539997
C58   C     C_R   0.741259 0.632729 0.151052 0.582860
C59   C     C_R   0.760356 0.136334 0.850739 0.539999
C60   C     C_R   0.241259 0.132729 0.151052 0.582859
C61   C     C_R   0.269779 0.047895 0.651085 0.564446
C62   C     C_R   0.728892 0.044088 0.352792 0.538014
C63   C     C_R   0.769779 0.547896 0.651085 0.564429
C64   C     C_R   0.228892 0.544088 0.352792 0.538015
C65   C     C_R   0.469086 0.823711 0.647988 0.532213
C66   C     C_R   0.529205 0.823554 0.350828 0.553496
C67   C     C_R   0.969086 0.323711 0.647988 0.532221
C68   C     C_R   0.029205 0.323554 0.350828 0.553496
C69   C     C_R   0.277899 0.701236 0.641911 0.591544
C70   C     C_R   0.724213 0.692438 0.360478 0.591476
C71   C     C_R   0.777899 0.201236 0.641911 0.591544
C72   C     C_R   0.224213 0.192438 0.360478 0.591476
C73   C     C_R   0.503674 0.820348 0.069461 -0.041562
C74   C     C_R   0.513630 0.830913 0.920028 -0.073674
C75   C     C_R   0.003675 0.320348 0.069460 -0.041557
C76   C     C_R   0.013630 0.330913 0.920027 -0.073752
C77   C     C_R   0.491177 0.927056 0.033408 -0.128583
C78   C     C_R   0.507510 0.935025 0.960178 -0.131565
C79   C     C_R   0.991178 0.427057 0.033407 -0.128573
C80   C     C_R   0.007511 0.435026 0.960178 -0.131568
C81   C     C_R   0.529143 0.725834 0.955392 0.204756
C82   C     C_R   0.514449 0.717319 0.028348 0.217673
C83   C     C_R   0.029145 0.225835 0.955392 0.204695
C84   C     C_R   0.014451 0.217320 0.028348 0.217688
Cr1   Cr    Cr6+3 0.230530 0.836340 0.748870 1.172465
Cr2   Cr    Cr6+3 0.769470 0.836340 0.251130 1.142243
Cr3   Cr    Cr6+3 0.730530 0.336340 0.748870 1.172450
Cr4   Cr    Cr6+3 0.269470 0.336340 0.251130 1.142245
Cr5   Cr    Cr6+3 0.387420 0.989430 0.750820 1.118582
Cr6   Cr    Cr6+3 0.612580 0.989430 0.249180 1.118494
Cr7   Cr    Cr6+3 0.887420 0.489430 0.750820 1.118580
Cr8   Cr    Cr6+3 0.112580 0.489430 0.249180 1.118493
Cr9   Cr    Cr6+3 0.385640 0.677860 0.749230 1.136016
Cr10  Cr    Cr6+3 0.614360 0.677860 0.250770 1.084179
Cr11  Cr    Cr6+3 0.885640 0.177860 0.749230 1.136022
Cr12  Cr    Cr6+3 0.114360 0.177860 0.250770 1.084178
H1    H     H_    0.200274 0.748291 0.407958 0.145236
H2    H     H_    0.831876 0.499876 0.538125 0.073262
H3    H     H_    0.700274 0.248291 0.407958 0.145236
H4    H     H_    0.331877 0.999876 0.538125 0.073262
H5    H     H_    0.336212 0.700357 0.542839 0.114101
H6    H     H_    0.722306 0.732192 0.470994 0.158263
H7    H     H_    0.836212 0.200356 0.542839 0.114099
H8    H     H_    0.222306 0.232192 0.470994 0.158261
H9    H     H_    0.313646 0.437349 0.055430 0.234096
H10   H     H_    0.731120 0.359063 0.961359 0.145533
H11   H     H_    0.813646 0.937349 0.055430 0.234096
H12   H     H_    0.231115 0.859065 0.961358 0.145537
H13   H     H_    0.354740 0.552892 0.942135 0.239569
H14   H     H_    0.681624 0.441433 0.078800 0.215748
H15   H     H_    0.854739 0.052891 0.942134 0.239568
H16   H     H_    0.181621 0.941437 0.078799 0.215752
H17   H     H_    0.225586 0.666667 0.056867 0.086532
H18   H     H_    0.790481 0.613490 0.954193 0.127234
H19   H     H_    0.725587 0.166667 0.056867 0.086529
H20   H     H_    0.290486 0.113486 0.954194 0.127229
H21   H     H_    0.192611 0.577428 0.938194 0.128629
H22   H     H_    0.814459 0.595037 0.066895 0.138602
H23   H     H_    0.692611 0.077429 0.938194 0.128640
H24   H     H_    0.314460 0.095034 0.066896 0.138602
H25   H     H_    0.511692 0.649593 0.438951 0.202616
H26   H     H_    0.478257 0.650220 0.558353 0.244781
H27   H     H_    0.011693 0.149593 0.438951 0.202617
H28   H     H_    0.978257 0.150220 0.558353 0.244780
H29   H     H_    0.481152 0.918999 0.439570 0.111935
H30   H     H_    0.509119 0.919494 0.555320 0.127526
H31   H     H_    0.981152 0.418999 0.439570 0.111936
H32   H     H_    0.009119 0.419494 0.555320 0.127526
O1    O     O_R   0.215090 0.709860 0.828130 -0.486795
O2    O     O_R   0.784910 0.709860 0.171870 -0.469146
O3    O     O_R   0.715090 0.209860 0.828130 -0.486792
O4    O     O_R   0.284910 0.209860 0.171870 -0.469145
O5    O     O_R   0.445660 0.919250 0.676780 -0.498877
O6    O     O_R   0.554340 0.919250 0.323220 -0.477444
O7    O     O_R   0.945660 0.419250 0.676780 -0.498876
O8    O     O_R   0.054340 0.419250 0.323220 -0.477443
O9    O     O_R   0.456260 0.718170 0.670000 -0.483558
O10   O     O_R   0.543740 0.718170 0.330000 -0.528421
O11   O     O_R   0.956260 0.218170 0.670000 -0.483554
O12   O     O_R   0.043740 0.218170 0.330000 -0.528421
O13   O     O_R   0.320940 0.626760 0.674370 -0.457090
O14   O     O_R   0.679060 0.626760 0.325630 -0.469715
O15   O     O_R   0.820940 0.126760 0.674370 -0.457092
O16   O     O_R   0.179060 0.126760 0.325630 -0.469714
O17   O     O_3   0.334530 0.834540 0.749640 -0.381038
O18   O     O_3   0.665470 0.834540 0.250360 -0.334040
O19   O     O_3   0.834530 0.334540 0.749640 -0.381033
O20   O     O_3   0.165470 0.334540 0.250360 -0.334041
O21   O     O_R   0.236990 0.958390 0.823710 -0.427367
O22   O     O_R   0.763010 0.958390 0.176290 -0.482638
O23   O     O_R   0.736990 0.458390 0.823710 -0.427395
O24   O     O_R   0.263010 0.458390 0.176290 -0.482638
O25   O     O_R   0.332380 0.074750 0.830850 -0.470271
O26   O     O_R   0.667620 0.074750 0.169150 -0.495634
O27   O     O_R   0.832380 0.574750 0.830850 -0.470280
O28   O     O_R   0.167620 0.574750 0.169150 -0.495633
O29   O     O_R   0.445800 0.917770 0.825070 -0.475282
O30   O     O_R   0.554200 0.917770 0.174930 -0.448418
O31   O     O_R   0.945800 0.417770 0.825070 -0.475274
O32   O     O_R   0.054200 0.417770 0.174930 -0.448420
O33   O     O_R   0.456410 0.716580 0.829970 -0.450358
O34   O     O_R   0.543590 0.716580 0.170030 -0.461018
O35   O     O_R   0.956410 0.216580 0.829970 -0.450348
O36   O     O_R   0.043590 0.216580 0.170030 -0.461018
O37   O     O_R   0.321080 0.625290 0.822650 -0.487946
O38   O     O_R   0.678920 0.625290 0.177350 -0.473320
O39   O     O_R   0.821080 0.125290 0.822650 -0.487949
O40   O     O_R   0.178920 0.125290 0.177350 -0.473321
O41   O     O_R   0.214930 0.711450 0.668160 -0.416783
O42   O     O_R   0.785070 0.711450 0.331840 -0.436144
O43   O     O_R   0.714930 0.211450 0.668160 -0.416782
O44   O     O_R   0.285070 0.211450 0.331840 -0.436143
O45   O     O_R   0.236850 0.959870 0.675420 -0.469413
O46   O     O_R   0.763150 0.959870 0.324580 -0.477009
O47   O     O_R   0.736850 0.459870 0.675420 -0.469415
O48   O     O_R   0.263150 0.459870 0.324580 -0.477008
O49   O     O_R   0.332230 0.076350 0.670880 -0.503296
O50   O     O_R   0.667770 0.076350 0.329120 -0.517614
O51   O     O_R   0.832230 0.576350 0.670880 -0.503297
O52   O     O_R   0.167770 0.576350 0.329120 -0.517614
S1    S     S_3+6 0.587929 0.625751 0.913658 0.093599
O53   O     O_2   0.609110 0.530173 0.964819 -0.173086
O54   O     O_2   0.556245 0.568772 0.848000 -0.179198
O55   O     O_3   0.660714 0.701849 0.890039 -0.546420
H33   H     H_    0.645394 0.751355 0.848965 0.341015
S2    S     S_3+6 0.487628 0.580180 0.062610 0.111470
O56   O     O_2   0.425246 0.597638 0.110563 -0.321698
O57   O     O_2   0.466556 0.501361 0.001897 -0.131394
O58   O     O_3   0.555327 0.520526 0.109542 -0.426723
H34   H     H_    0.534279 0.488903 0.153841 0.384885
S3    S     S_3+6 0.087933 0.125754 0.913659 0.093613
O59   O     O_2   0.109106 0.030169 0.964817 -0.173081
O60   O     O_2   0.056255 0.068787 0.847994 -0.179143
O61   O     O_3   0.160724 0.201847 0.890051 -0.546359
H35   H     H_    0.145383 0.251494 0.849046 0.340924
S4    S     S_3+6 0.987628 0.080182 0.062609 0.111470
O62   O     O_2   0.925246 0.097641 0.110561 -0.321700
O63   O     O_2   0.966556 0.001363 0.001895 -0.131396
O64   O     O_3   0.055326 0.020526 0.109542 -0.426726
H36   H     H_    0.034276 0.988904 0.153841 0.384885
O65   O     O_3   0.165242 0.772368 0.546917 -0.610879
H37   H     H_    0.129673 0.775087 0.507391 0.349582
O66   O     O_3   0.782596 0.479051 0.402468 -0.664381
H38   H     H_    0.807845 0.413531 0.427180 0.308448
O67   O     O_3   0.665242 0.272368 0.546917 -0.610878
H39   H     H_    0.629673 0.275087 0.507391 0.349582
O68   O     O_3   0.282596 0.979051 0.402468 -0.664381
H40   H     H_    0.307846 0.913531 0.427180 0.308448
S5    S     S_3+6 0.307496 0.486956 0.475001 0.001138
O69   O     O_2   0.273168 0.465459 0.545736 -0.240990
O70   O     O_2   0.316111 0.369753 0.438873 -0.294473
O71   O     O_3   0.389698 0.539454 0.488021 -0.557448
H41   H     H_    0.414611 0.520754 0.443249 0.355360
S6    S     S_3+6 0.653255 0.628276 0.579294 0.000806
O72   O     O_2   0.616347 0.566990 0.517860 -0.291520
O73   O     O_2   0.616370 0.595168 0.647130 -0.226228
O74   O     O_3   0.648201 0.776132 0.569244 -0.541682
H42   H     H_    0.669268 0.809344 0.613754 0.368854
S7    S     S_3+6 0.807495 0.986956 0.475001 0.001138
O75   O     O_2   0.773168 0.965459 0.545736 -0.240989
O76   O     O_2   0.816111 0.869753 0.438873 -0.294470
O77   O     O_3   0.889698 0.039454 0.488021 -0.557445
H43   H     H_    0.914609 0.020760 0.443247 0.355357
S8    S     S_3+6 0.153255 0.128275 0.579294 0.000818
O78   O     O_2   0.116347 0.066989 0.517860 -0.291524
O79   O     O_2   0.116369 0.095168 0.647129 -0.226197
O80   O     O_3   0.148200 0.276131 0.569244 -0.541681
H44   H     H_    0.169270 0.309344 0.613753 0.368860
O81   O     O_3   0.431924 0.020446 0.134182 -0.625116
H45   H     H_    0.411550 0.939998 0.140006 0.317547
O82   O     O_3   0.547026 0.064236 0.863588 -0.608804
H46   H     H_    0.578407 0.995785 0.854377 0.316087
O83   O     O_3   0.931925 0.520448 0.134182 -0.625115
H47   H     H_    0.911551 0.440000 0.140006 0.317547
O84   O     O_3   0.047026 0.564236 0.863587 -0.608804
H48   H     H_    0.078407 0.495785 0.854376 0.316061
S9    S     S_3+6 0.988171 0.755504 0.091098 0.107815
O85   O     O_2   0.925589 0.836563 0.094301 -0.194092
O86   O     O_2   0.007402 0.716354 0.165694 -0.244680
O87   O     O_3   0.059249 0.820286 0.054808 -0.434418
H49   H     H_    0.097563 0.760676 0.058782 0.312825
S10   S     S_3+6 0.962836 0.768261 0.909158 0.139900
O88   O     O_2   0.024347 0.852430 0.909870 -0.102584
O89   O     O_2   0.948462 0.732122 0.832953 -0.219206
O90   O     O_3   0.889916 0.832733 0.941308 -0.511039
H50   H     H_    0.849544 0.793888 0.916159 0.342684
S11   S     S_3+6 0.488170 0.255503 0.091100 0.107816
O91   O     O_2   0.425589 0.336562 0.094302 -0.194092
O92   O     O_2   0.507399 0.216352 0.165696 -0.244679
O93   O     O_3   0.559249 0.320283 0.054810 -0.434420
H51   H     H_    0.597562 0.260673 0.058785 0.312827
S12   S     S_3+6 0.462837 0.268260 0.909160 0.139903
O94   O     O_2   0.524349 0.352427 0.909874 -0.102576
O95   O     O_2   0.448464 0.232124 0.832954 -0.219203
O96   O     O_3   0.389917 0.332734 0.941309 -0.511037
H52   H     H_    0.349545 0.293886 0.916161 0.342682

loop_
_geom_bond_atom_site_label_1
_geom_bond_atom_site_label_2
_ccdc_geom_bond_type
Cr12  O12   S    
C16   C28   D    
O66   H38   S    
C38   C70   S    
Cr10  O18   S    
Cr4   O44   S    
C7    O83   S    
C37   C69   S    
Cr8   O20   S    
O65   H37   S    
C67   O7    A    
C35   C36   S    
C10   S10   S    
C50   C54   S    
C81   S1    S    
S8    O78   D    
C60   O4    A    
Cr7   O7    S    
Cr7   O19   S    
C81   C82   A    
C17   H17   S    
C47   O31   A    
C77   C78   A    
C28   H16   S    
Cr5   O17   S    
C48   O32   A    
C59   O3    A    
C60   O40   A    
C7    C79   A    
Cr3   O19   S    
C2    O22   A    
C82   S2    S    
Cr3   O43   S    
C72   O44   A    
C32   H31   S    
C57   O1    A    
C36   H28   S    
Cr1   O17   S    
C47   C76   S    
C5    C11   A    
Cr2   O22   S    
Cr9   O9    S    
C6    C12   A    
Cr6   O6    S    
S6    O73   D    
C75   C84   A    
S1    O55   S    
C57   O37   A    
C69   O13   A    
C54   O66   S    
C46   O30   A    
S5    O71   S    
C63   O51   A    
O55   H33   S    
C3    C18   S    
C7    C9    A    
C16   C60   S    
Cr3   O3    S    
C65   O5    A    
C45   O33   A    
C21   C25   S    
Cr8   O52   S    
Cr1   O1    S    
C61   O45   A    
C66   O6    A    
Cr5   O25   S    
C39   C55   D    
O80   H44   S    
C40   C56   D    
C66   O10   A    
Cr1   O45   S    
O84   H48   S    
Cr12  O40   S    
Cr9   O17   S    
C44   S8    S    
Cr5   O49   S    
C64   O48   A    
C67   O11   A    
C9    C10   A    
Cr10  O34   S    
Cr7   O31   S    
C25   H13   S    
C32   C68   S    
C37   C53   D    
C44   C52   D    
S1    O54   D    
O61   H35   S    
C30   H29   S    
Cr9   O37   S    
O64   H36   S    
C34   H26   S    
O93   H51   S    
Cr3   O23   S    
O90   H50   S    
C33   H25   S    
Cr4   O24   S    
C48   C75   S    
C13   C25   D    
C84   S4    S    
Cr8   O8    S    
C31   H32   S    
S4    O64   S    
C55   O67   S    
Cr2   O18   S    
C76   C83   A    
C41   C49   D    
S5    O69   D    
Cr1   O21   S    
S11   O92   D    
C51   H3    S    
C14   C58   S    
C50   H2    S    
S10   O90   S    
Cr5   O5    S    
O68   H40   S    
Cr10  O14   S    
C32   C35   D    
C76   C80   A    
C68   O8    A    
C45   O29   A    
S4    O63   D    
C46   O34   A    
S10   O89   D    
C20   H20   S    
S6    O72   D    
Cr2   O2    S    
C51   C55   S    
C14   H22   S    
O74   H42   S    
S1    O53   D    
S8    O79   D    
C29   C34   D    
C52   H4    S    
Cr1   O41   S    
Cr12  O36   S    
Cr12  O20   S    
Cr7   O51   S    
C45   C74   S    
Cr2   O46   S    
Cr6   O30   S    
C19   C23   D    
C17   C21   D    
S3    O60   D    
Cr7   O27   S    
O81   H45   S    
C42   S6    S    
Cr11  O35   S    
C40   H8    S    
S12   O95   D    
C15   C27   D    
C83   C84   A    
C38   C54   D    
C19   H19   S    
C61   O49   A    
S11   O91   D    
C23   H11   S    
C3    O27   A    
C33   C34   S    
Cr4   O20   S    
Cr11  O19   S    
Cr8   O28   S    
C69   O41   A    
C14   C26   D    
C4    O24   A    
Cr5   O29   S    
C6    O82   S    
C30   C66   S    
C42   C50   D    
S12   O96   S    
C29   C65   S    
C4    C17   S    
O67   H39   S    
C8    C10   A    
C4    O28   A    
Cr9   O33   S    
C23   C27   S    
S9    O86   D    
C9    S9    S    
Cr10  O10   S    
C5    O81   S    
Cr11  O11   S    
C68   O12   A    
Cr6   O26   S    
Cr4   O4    S    
C74   C81   A    
C5    C77   A    
O96   H52   S    
S8    O80   S    
C73   C82   A    
S7    O75   D    
Cr9   O13   S    
C18   H18   S    
C71   O15   A    
O83   H47   S    
S11   O93   S    
C83   S3    S    
S3    O59   D    
C72   O16   A    
C26   H14   S    
C1    C20   S    
C39   C71   S    
C40   C72   S    
C30   C33   D    
S10   O88   D    
C2    C19   S    
C18   C22   D    
C15   C59   S    
C43   S7    S    
Cr11  O15   S    
C24   C28   S    
S4    O62   D    
S6    O74   S    
Cr11  O39   S    
C27   H15   S    
C62   O50   A    
C70   O14   A    
C13   H21   S    
C11   C12   A    
C63   O47   A    
C48   O36   A    
C44   C61   S    
Cr3   O47   S    
C74   C78   A    
C3    O23   A    
C12   S12   S    
Cr8   O32   S    
C11   S11   S    
S2    O58   S    
C16   H24   S    
C70   O42   A    
S3    O61   S    
C65   O9    A    
C41   S5    S    
Cr6   O18   S    
C22   H10   S    
S7    O77   S    
C37   H5    S    
C43   C51   D    
C2    O26   A    
C56   O68   S    
C75   C79   A    
Cr2   O42   S    
C58   O2    A    
C47   O35   A    
C64   O52   A    
C42   C63   S    
C59   O39   A    
C35   H27   S    
O87   H49   S    
S5    O70   D    
C15   H23   S    
C71   O43   A    
S7    O76   D    
O58   H34   S    
C58   O38   A    
C53   O65   S    
Cr10  O38   S    
C1    O25   A    
C49   C53   S    
C6    C78   A    
C31   C67   S    
C49   H1    S    
C79   C80   A    
C8    O84   S    
Cr4   O48   S    
C13   C57   S    
O71   H41   S    
C38   H6    S    
C22   C26   S    
S9    O87   S    
O82   H46   S    
C8    C80   A    
C39   H7    S    
C73   C77   A    
C31   C36   D    
S12   O94   D    
C1    O21   A    
C29   H30   S    
C41   C64   S    
S2    O56   D    
S9    O85   D    
S2    O57   D    
O77   H43   S    
C20   C24   D    
C46   C73   S    
C21   H9    S    
C24   H12   S    
C52   C56   S    
C43   C62   S    
Cr6   O50   S    
Cr12  O16   S    
C62   O46   A    
