data_mof_unit_35821.cif
_audit_creation_date              2012-12-11T14:52:46-0500
_audit_creation_method            fapswitch 2.2
_symmetry_space_group_name_H-M    P1
_symmetry_Int_Tables_number       1
_space_group_crystal_system       triclinic
_cell_length_a                    18.773381
_cell_length_b                    10.970132
_cell_length_c                    18.641099
_cell_angle_alpha                 89.858173
_cell_angle_beta                  91.159186
_cell_angle_gamma                 89.672818
_cell_volume                      3838.20735043

loop_
_atom_site_label
_atom_site_type_symbol
_atom_type_description
_atom_site_fract_x
_atom_site_fract_y
_atom_site_fract_z
_atom_type_partial_charge
C1    C     C_R   0.273766 0.037645 0.855655 0.544271
C2    C     C_R   0.709727 0.997422 0.138781 0.566515
C3    C     C_R   0.773766 0.537645 0.855655 0.544270
C4    C     C_R   0.209727 0.497422 0.138781 0.566516
C5    C     C_3   0.528682 0.727924 0.972832 -0.114255
C6    C     C_3   0.468693 0.728777 0.028308 -0.112975
C7    C     C_3   0.028674 0.227918 0.972834 -0.114252
C8    C     C_3   0.968686 0.228785 0.028310 -0.112978
C9    C     C_R   0.288183 0.487673 0.952860 -0.026953
C10   C     C_R   0.704527 0.504968 0.043397 -0.023775
C11   C     C_R   0.788184 0.987673 0.952861 -0.026952
C12   C     C_R   0.204528 0.004967 0.043397 -0.023776
C13   C     C_R   0.278062 0.462925 0.026047 -0.144506
C14   C     C_R   0.707456 0.497686 0.968248 -0.144219
C15   C     C_R   0.778062 0.962926 0.026048 -0.144507
C16   C     C_R   0.207456 0.997684 0.968249 -0.144217
C17   C     C_R   0.221659 0.518791 0.062660 0.007592
C18   C     C_R   0.760714 0.560674 0.931076 0.011583
C19   C     C_R   0.721660 0.018792 0.062660 0.007589
C20   C     C_R   0.260714 0.060673 0.931076 0.011585
C21   C     C_R   0.172776 0.592112 0.025143 -0.149083
C22   C     C_R   0.813128 0.624161 0.969374 -0.147385
C23   C     C_R   0.672775 0.092111 0.025142 -0.149084
C24   C     C_R   0.313128 0.124162 0.969374 -0.147384
C25   C     C_R   0.183113 0.619271 0.954443 -0.159151
C26   C     C_R   0.810864 0.631702 0.042269 -0.165655
C27   C     C_R   0.683112 0.119269 0.954442 -0.159148
C28   C     C_R   0.310864 0.131704 0.042269 -0.165657
C29   C     C_R   0.242599 0.573509 0.918476 0.015233
C30   C     C_R   0.754093 0.580984 0.079444 0.014047
C31   C     C_R   0.742599 0.073509 0.918476 0.015234
C32   C     C_R   0.254093 0.080984 0.079444 0.014046
C33   C     C_R   0.500358 0.725717 0.536416 -0.147752
C34   C     C_R   0.499242 0.725942 0.463516 -0.147754
C35   C     C_R   0.000358 0.225717 0.536416 -0.147753
C36   C     C_R   0.999242 0.225942 0.463516 -0.147754
C37   C     C_R   0.502460 0.835261 0.425346 0.008843
C38   C     C_R   0.497323 0.834892 0.574518 0.009131
C39   C     C_R   0.002460 0.335261 0.425346 0.008843
C40   C     C_R   0.997323 0.334892 0.574518 0.009131
C41   C     C_R   0.499863 0.949326 0.461730 -0.027694
C42   C     C_R   0.499978 0.949073 0.538035 -0.027652
C43   C     C_R   0.999863 0.449326 0.461730 -0.027694
C44   C     C_R   0.999978 0.449073 0.538035 -0.027652
C45   C     C_R   0.470830 0.821464 0.855252 0.541111
C46   C     C_R   0.528431 0.822000 0.145090 0.537098
C47   C     C_R   0.970830 0.321464 0.855252 0.541112
C48   C     C_R   0.028431 0.322001 0.145090 0.537098
C49   C     C_R   0.227484 0.738929 0.515606 -0.140026
C50   C     C_R   0.771688 0.739274 0.484058 -0.140279
C51   C     C_R   0.727483 0.238929 0.515606 -0.140026
C52   C     C_R   0.271688 0.239274 0.484058 -0.140280
C53   C     C_R   0.221204 0.711599 0.443289 -0.138255
C54   C     C_R   0.778026 0.711959 0.556459 -0.138419
C55   C     C_R   0.721204 0.211599 0.443289 -0.138255
C56   C     C_R   0.278026 0.211959 0.556459 -0.138419
C57   C     C_R   0.259102 0.612955 0.415499 0.028370
C58   C     C_R   0.740577 0.613488 0.584460 0.028358
C59   C     C_R   0.759102 0.112955 0.415499 0.028370
C60   C     C_R   0.240577 0.113488 0.584460 0.028358
C61   C     C_R   0.315557 0.561800 0.455672 -0.146661
C62   C     C_R   0.684350 0.562753 0.544424 -0.146089
C63   C     C_R   0.815557 0.061800 0.455672 -0.146661
C64   C     C_R   0.184350 0.062753 0.544424 -0.146089
C65   C     C_R   0.323806 0.591986 0.527683 -0.132550
C66   C     C_R   0.676079 0.592854 0.472324 -0.132304
C67   C     C_R   0.823806 0.091986 0.527683 -0.132550
C68   C     C_R   0.176079 0.092854 0.472324 -0.132304
C69   C     C_R   0.275580 0.673603 0.559164 0.033381
C70   C     C_R   0.724015 0.674071 0.440656 0.032779
C71   C     C_R   0.775580 0.173603 0.559164 0.033382
C72   C     C_R   0.224015 0.174071 0.440656 0.032779
C73   C     C_R   0.259373 0.632916 0.850500 0.544313
C74   C     C_R   0.740545 0.633205 0.149683 0.534976
C75   C     C_R   0.759373 0.132916 0.850500 0.544314
C76   C     C_R   0.240545 0.133205 0.149683 0.534975
C77   C     C_R   0.269048 0.050967 0.648057 0.538768
C78   C     C_R   0.730927 0.050961 0.351923 0.547167
C79   C     C_R   0.769048 0.550967 0.648057 0.538768
C80   C     C_R   0.230927 0.550961 0.351923 0.547167
C81   C     C_R   0.470911 0.824206 0.647300 0.531469
C82   C     C_R   0.529038 0.824411 0.352652 0.533718
C83   C     C_R   0.970911 0.324206 0.647300 0.531469
C84   C     C_R   0.029038 0.324411 0.352652 0.533718
C85   C     C_R   0.275571 0.692267 0.636578 0.575256
C86   C     C_R   0.724251 0.692229 0.363186 0.576595
C87   C     C_R   0.775571 0.192267 0.636578 0.575256
C88   C     C_R   0.224251 0.192229 0.363186 0.576595
C89   C     C_3   0.468795 0.929972 0.027912 -0.127462
C90   C     C_3   0.528538 0.928936 0.971777 -0.128906
C91   C     C_3   0.968802 0.429978 0.027911 -0.127459
C92   C     C_3   0.028545 0.428928 0.971776 -0.128911
C93   C     C_3   0.428756 0.829549 0.985539 -0.101132
C94   C     C_3   0.568579 0.828237 0.014772 -0.106485
C95   C     C_3   0.928756 0.329563 0.985539 -0.101134
C96   C     C_3   0.068579 0.328224 0.014772 -0.106484
C97   C     C_3   0.489309 0.828319 0.931007 0.056389
C98   C     C_3   0.508188 0.829038 0.069553 0.053824
C99   C     C_3   0.989308 0.328318 0.931007 0.056387
C100  C     C_3   0.008188 0.329038 0.069554 0.053825
Cr1   Cr    Cr6+3 0.229630 0.835900 0.747350 0.975445
Cr2   Cr    Cr6+3 0.770370 0.835900 0.252650 0.972789
Cr3   Cr    Cr6+3 0.729630 0.335900 0.747350 0.975445
Cr4   Cr    Cr6+3 0.270370 0.335900 0.252650 0.972789
Cr5   Cr    Cr6+3 0.387410 0.989850 0.750850 1.001140
Cr6   Cr    Cr6+3 0.612590 0.989850 0.249150 0.992445
Cr7   Cr    Cr6+3 0.887410 0.489850 0.750850 1.001140
Cr8   Cr    Cr6+3 0.112590 0.489850 0.249150 0.992445
Cr9   Cr    Cr6+3 0.385800 0.677120 0.749340 1.008863
Cr10  Cr    Cr6+3 0.614200 0.677120 0.250660 1.003898
Cr11  Cr    Cr6+3 0.885800 0.177120 0.749340 1.008863
Cr12  Cr    Cr6+3 0.114200 0.177120 0.250660 1.003898
H1    H     H_    0.370968 0.830079 0.971425 0.126623
H2    H     H_    0.626369 0.825713 0.028475 0.115948
H3    H     H_    0.870968 0.330105 0.971425 0.126625
H4    H     H_    0.126368 0.325690 0.028476 0.115950
H5    H     H_    0.553976 0.648079 0.947113 0.114799
H6    H     H_    0.443591 0.648543 0.053601 0.119264
H7    H     H_    0.053962 0.148067 0.947115 0.114802
H8    H     H_    0.943578 0.148557 0.053603 0.119264
H9    H     H_    0.499271 0.637503 0.562696 0.135197
H10   H     H_    0.500242 0.637874 0.437292 0.135346
H11   H     H_    0.999271 0.137503 0.562696 0.135197
H12   H     H_    0.000241 0.137874 0.437292 0.135346
O1    O     O_R   0.214270 0.709000 0.827470 -0.543518
O2    O     O_R   0.785730 0.709000 0.172530 -0.550555
O3    O     O_R   0.714270 0.209000 0.827470 -0.543518
O4    O     O_R   0.285730 0.209000 0.172530 -0.550556
O5    O     O_R   0.445950 0.919440 0.676520 -0.490463
O6    O     O_R   0.554050 0.919440 0.323480 -0.490629
O7    O     O_R   0.945950 0.419440 0.676520 -0.490463
O8    O     O_R   0.054050 0.419440 0.323480 -0.490629
O9    O     O_R   0.456730 0.717630 0.669840 -0.539249
O10   O     O_R   0.543270 0.717630 0.330160 -0.536597
O11   O     O_R   0.956730 0.217630 0.669840 -0.539249
O12   O     O_R   0.043270 0.217630 0.330160 -0.536597
O13   O     O_R   0.320620 0.625640 0.672920 -0.514023
O14   O     O_R   0.679380 0.625640 0.327080 -0.511797
O15   O     O_R   0.820620 0.125640 0.672920 -0.514023
O16   O     O_R   0.179380 0.125640 0.327080 -0.511797
O17   O     O_3   0.334280 0.834290 0.749180 -0.261129
O18   O     O_3   0.665720 0.834290 0.250820 -0.279261
O19   O     O_3   0.834280 0.334290 0.749180 -0.261128
O20   O     O_3   0.165720 0.334290 0.250820 -0.279261
O21   O     O_R   0.236160 0.958490 0.823130 -0.507971
O22   O     O_R   0.763840 0.958490 0.176870 -0.504751
O23   O     O_R   0.736160 0.458490 0.823130 -0.507971
O24   O     O_R   0.263840 0.458490 0.176870 -0.504751
O25   O     O_R   0.332080 0.075470 0.831280 -0.527724
O26   O     O_R   0.667920 0.075470 0.168720 -0.528976
O27   O     O_R   0.832080 0.575470 0.831280 -0.527725
O28   O     O_R   0.167920 0.575470 0.168720 -0.528976
O29   O     O_R   0.446300 0.918110 0.826620 -0.504482
O30   O     O_R   0.553700 0.918110 0.173380 -0.521480
O31   O     O_R   0.946300 0.418110 0.826620 -0.504482
O32   O     O_R   0.053700 0.418110 0.173380 -0.521480
O33   O     O_R   0.457110 0.716200 0.831760 -0.511382
O34   O     O_R   0.542890 0.716200 0.168240 -0.507495
O35   O     O_R   0.957110 0.216200 0.831760 -0.511383
O36   O     O_R   0.042890 0.216200 0.168240 -0.507495
O37   O     O_R   0.320980 0.624310 0.823030 -0.481590
O38   O     O_R   0.679020 0.624310 0.176970 -0.484700
O39   O     O_R   0.820980 0.124310 0.823030 -0.481590
O40   O     O_R   0.179020 0.124310 0.176970 -0.484700
O41   O     O_R   0.213890 0.710430 0.665540 -0.538363
O42   O     O_R   0.786110 0.710430 0.334460 -0.537784
O43   O     O_R   0.713890 0.210430 0.665540 -0.538364
O44   O     O_R   0.286110 0.210430 0.334460 -0.537784
O45   O     O_R   0.235810 0.959820 0.673020 -0.524305
O46   O     O_R   0.764190 0.959820 0.326980 -0.519741
O47   O     O_R   0.735810 0.459820 0.673020 -0.524305
O48   O     O_R   0.264190 0.459820 0.326980 -0.519740
O49   O     O_R   0.331700 0.076900 0.669350 -0.522209
O50   O     O_R   0.668300 0.076900 0.330650 -0.521502
O51   O     O_R   0.831700 0.576900 0.669350 -0.522209
O52   O     O_R   0.168300 0.576900 0.330650 -0.521503
H13   H     H_    0.192231 0.805985 0.538147 0.123069
H14   H     H_    0.806668 0.806045 0.461324 0.123676
H15   H     H_    0.692231 0.305985 0.538147 0.123069
H16   H     H_    0.306668 0.306045 0.461324 0.123676
H17   H     H_    0.182323 0.759951 0.410553 0.123263
H18   H     H_    0.816716 0.760017 0.589057 0.123076
H19   H     H_    0.682323 0.259950 0.410553 0.123264
H20   H     H_    0.316716 0.260017 0.589057 0.123076
H21   H     H_    0.349686 0.492534 0.433174 0.116195
H22   H     H_    0.650522 0.493688 0.567087 0.116212
H23   H     H_    0.849686 0.992534 0.433174 0.116195
H24   H     H_    0.150522 0.993688 0.567087 0.116212
H25   H     H_    0.364767 0.545780 0.559292 0.122923
H26   H     H_    0.635417 0.546722 0.440818 0.123559
H27   H     H_    0.864767 0.045780 0.559292 0.122923
H28   H     H_    0.135417 0.046722 0.440818 0.123559
H29   H     H_    0.444933 0.011891 0.052743 0.112897
H30   H     H_    0.551338 0.009902 0.945321 0.113700
H31   H     H_    0.944945 0.511904 0.052741 0.112895
H32   H     H_    0.051349 0.509887 0.945318 0.113703
C101  C     C_R   0.344832 0.423026 0.913069 0.039501
C102  C     C_R   0.414884 0.417276 0.940526 -0.102786
C103  C     C_R   0.468038 0.357371 0.902298 -0.129994
C104  C     C_R   0.452291 0.306824 0.835381 -0.102094
C105  C     C_R   0.383408 0.315733 0.806310 -0.069766
C106  C     C_R   0.329323 0.369860 0.845862 -0.061501
H33   H     H_    0.428174 0.460750 0.990791 0.091289
H34   H     H_    0.521709 0.350183 0.923810 0.094747
H35   H     H_    0.493571 0.260390 0.806390 0.096417
H36   H     H_    0.371438 0.277609 0.753983 0.134021
H37   H     H_    0.275621 0.372394 0.823531 0.095427
C107  C     C_R   0.651977 0.431448 0.083720 0.045959
C108  C     C_R   0.580478 0.424825 0.060637 -0.098403
C109  C     C_R   0.530941 0.360329 0.100786 -0.129524
C110  C     C_R   0.551631 0.306073 0.165586 -0.102777
C111  C     C_R   0.621911 0.315450 0.190408 -0.062265
C112  C     C_R   0.672561 0.372815 0.148310 -0.050851
H38   H     H_    0.562913 0.471745 0.012636 0.088809
H39   H     H_    0.476137 0.353324 0.082707 0.094904
H40   H     H_    0.513117 0.256543 0.196302 0.098906
H41   H     H_    0.637627 0.275242 0.241422 0.139972
H42   H     H_    0.727398 0.375331 0.167411 0.098937
C113  C     C_R   0.844832 0.923026 0.913069 0.039503
C114  C     C_R   0.914884 0.917276 0.940527 -0.102789
C115  C     C_R   0.968038 0.857370 0.902299 -0.129995
C116  C     C_R   0.952291 0.806823 0.835381 -0.102093
C117  C     C_R   0.883408 0.815733 0.806310 -0.069767
C118  C     C_R   0.829323 0.869860 0.845863 -0.061501
H43   H     H_    0.928175 0.960749 0.990792 0.091291
H44   H     H_    0.021709 0.850180 0.923811 0.094746
H45   H     H_    0.993571 0.760389 0.806390 0.096418
H46   H     H_    0.871438 0.777608 0.753984 0.134021
H47   H     H_    0.775621 0.872394 0.823531 0.095427
C119  C     C_R   0.151978 0.931446 0.083721 0.045959
C120  C     C_R   0.080480 0.924820 0.060637 -0.098403
C121  C     C_R   0.030943 0.860323 0.100786 -0.129526
C122  C     C_R   0.051633 0.806069 0.165587 -0.102775
C123  C     C_R   0.121913 0.815450 0.190410 -0.062263
C124  C     C_R   0.172562 0.872815 0.148311 -0.050850
H48   H     H_    0.062914 0.971738 0.012636 0.088807
H49   H     H_    0.976140 0.853316 0.082706 0.094905
H50   H     H_    0.013119 0.756540 0.196303 0.098906
H51   H     H_    0.137629 0.775244 0.241424 0.139971
H52   H     H_    0.227400 0.875333 0.167413 0.098936
H53   H     H_    0.313623 0.400300 0.054167 0.126334
H54   H     H_    0.670471 0.439332 0.939336 0.122749
H55   H     H_    0.813624 0.900302 0.054168 0.126334
H56   H     H_    0.170472 0.939329 0.939336 0.122748
H57   H     H_    0.126717 0.631478 0.050683 0.154075
H58   H     H_    0.857858 0.666039 0.943472 0.161039
H59   H     H_    0.626716 0.131476 0.050682 0.154075
H60   H     H_    0.357857 0.166040 0.943471 0.161039
H61   H     H_    0.145405 0.681977 0.929252 0.131257
H62   H     H_    0.852115 0.684774 0.068796 0.127365
H63   H     H_    0.645404 0.181973 0.929251 0.131256
H64   H     H_    0.352114 0.184776 0.068796 0.127366
C125  C     C_R   0.495960 0.066402 0.420047 0.043962
C126  C     C_R   0.543631 0.162249 0.434328 -0.064427
C127  C     C_R   0.536747 0.273282 0.397735 -0.122714
C128  C     C_R   0.486120 0.286614 0.342599 -0.133597
C129  C     C_R   0.441548 0.189615 0.324692 -0.095739
C130  C     C_R   0.444377 0.081739 0.364818 -0.061879
H65   H     H_    0.584512 0.152230 0.475557 0.122171
H66   H     H_    0.570983 0.348921 0.411613 0.089765
H67   H     H_    0.482078 0.371576 0.313103 0.105908
H68   H     H_    0.404643 0.198464 0.279694 0.146846
H69   H     H_    0.407558 0.009058 0.351771 0.110785
C131  C     C_R   0.503856 0.065724 0.579650 0.044266
C132  C     C_R   0.455921 0.162280 0.565552 -0.064170
C133  C     C_R   0.462572 0.272780 0.602261 -0.123566
C134  C     C_R   0.513388 0.284957 0.657204 -0.133565
C135  C     C_R   0.558316 0.187269 0.674859 -0.095371
C136  C     C_R   0.555602 0.079841 0.634694 -0.062713
H70   H     H_    0.414999 0.153178 0.524387 0.122072
H71   H     H_    0.428000 0.348870 0.588625 0.089413
H72   H     H_    0.517314 0.369581 0.686723 0.104069
H73   H     H_    0.595383 0.195184 0.719708 0.145621
H74   H     H_    0.592628 0.006552 0.647575 0.109049
C137  C     C_R   0.995961 0.566402 0.420047 0.043962
C138  C     C_R   0.043631 0.662249 0.434328 -0.064427
C139  C     C_R   0.036748 0.773282 0.397735 -0.122714
C140  C     C_R   0.986120 0.786614 0.342600 -0.133597
C141  C     C_R   0.941549 0.689615 0.324693 -0.095739
C142  C     C_R   0.944377 0.581739 0.364818 -0.061879
H75   H     H_    0.084512 0.652229 0.475557 0.122172
H76   H     H_    0.070984 0.848921 0.411614 0.089765
H77   H     H_    0.982078 0.871577 0.313104 0.105909
H78   H     H_    0.904644 0.698465 0.279694 0.146846
H79   H     H_    0.907558 0.509059 0.351771 0.110785
C143  C     C_R   0.003856 0.565724 0.579650 0.044266
C144  C     C_R   0.955921 0.662280 0.565552 -0.064169
C145  C     C_R   0.962572 0.772780 0.602261 -0.123566
C146  C     C_R   0.013388 0.784957 0.657204 -0.133565
C147  C     C_R   0.058316 0.687269 0.674859 -0.095371
C148  C     C_R   0.055602 0.579841 0.634694 -0.062713
H80   H     H_    0.914999 0.653178 0.524387 0.122072
H81   H     H_    0.928000 0.848870 0.588625 0.089413
H82   H     H_    0.017314 0.869580 0.686723 0.104069
H83   H     H_    0.095383 0.695184 0.719708 0.145621
H84   H     H_    0.092628 0.506552 0.647575 0.109049

loop_
_geom_bond_atom_site_label_1
_geom_bond_atom_site_label_2
_ccdc_geom_bond_type
C131  C136  A    
C55   C59   A    
C117  C118  A    
Cr11  O15   S    
C7    C99   S    
C143  C148  A    
C36   H12   S    
C5    C6    S    
C95   C99   S    
C4    O24   A    
C9    C13   A    
C142  H79   S    
C73   O37   A    
C11   C15   A    
C125  C130  A    
C23   H59   S    
C87   O43   A    
C12   C16   A    
C88   O44   A    
C105  H36   S    
C120  H48   S    
C91   C100  S    
C46   C98   S    
C103  C104  A    
C49   C69   A    
C40   C83   S    
C51   C71   A    
Cr6   O18   S    
C49   H13   S    
C25   C29   A    
Cr12  O40   S    
Cr9   O9    S    
C7    H7    S    
Cr10  O14   S    
C56   H20   S    
C17   C21   A    
C82   O10   A    
C19   C23   A    
C132  H70   S    
C83   O7    A    
C52   C72   A    
C91   H31   S    
C134  H72   S    
C10   C30   A    
C81   O5    A    
Cr4   O4    S    
C68   C72   A    
C89   H29   S    
C58   C79   S    
C65   H25   S    
C38   C81   S    
C103  H34   S    
C80   O48   A    
Cr7   O19   S    
Cr8   O20   S    
C74   O38   A    
Cr6   O6    S    
C1    C20   S    
Cr12  O36   S    
C50   H14   S    
C2    C19   S    
C146  H82   S    
C92   H32   S    
Cr3   O19   S    
Cr5   O5    S    
C57   C61   A    
C59   C63   A    
C33   C38   A    
C60   C64   A    
C85   O41   A    
C35   C40   A    
C50   C70   A    
C118  H47   S    
C66   C70   A    
C116  H45   S    
C49   C53   A    
C137  C142  A    
C51   C55   A    
C61   C65   A    
C111  C112  A    
C96   H4    S    
C20   C24   A    
Cr7   O31   S    
Cr2   O46   S    
Cr5   O29   S    
C139  H76   S    
C3    O23   A    
C107  C112  A    
Cr6   O26   S    
C124  H52   S    
Cr12  O16   S    
C1    O21   A    
Cr9   O33   S    
Cr10  O38   S    
Cr3   O23   S    
C7    C8    S    
C47   O35   A    
C48   O36   A    
Cr1   O21   S    
C136  H74   S    
C64   C68   A    
C39   C84   S    
C133  H71   S    
C125  C126  A    
C30   C74   S    
C109  H39   S    
C46   O34   A    
C41   C125  S    
C78   O46   A    
C47   C99   S    
C75   O39   A    
C129  C130  A    
C10   C107  S    
C88   O16   A    
C27   H63   S    
C113  C118  A    
C14   H54   S    
C131  C132  A    
Cr1   O1    S    
Cr3   O3    S    
C122  C123  A    
Cr11  O19   S    
C62   H22   S    
Cr7   O27   S    
C110  H40   S    
Cr2   O42   S    
Cr5   O49   S    
C139  C140  A    
Cr3   O47   S    
C57   C80   S    
C8    C95   S    
C25   H61   S    
Cr12  O12   S    
C51   H15   S    
C59   C78   S    
C114  C115  A    
C9    C101  S    
C146  C147  A    
C4    O28   A    
C15   H55   S    
C62   C66   A    
C45   O33   A    
C10   C14   A    
C91   C92   S    
C22   H58   S    
C84   O8    A    
C115  C116  A    
C61   H21   S    
C108  C109  A    
C101  C106  A    
C1    O25   A    
C64   H24   S    
C16   H56   S    
C5    C97   S    
C26   C30   A    
C63   H23   S    
C140  H77   S    
C121  H49   S    
Cr10  O10   S    
C11   C113  S    
C69   C85   S    
C21   C25   A    
C127  H66   S    
C18   C22   A    
C36   C39   A    
C24   C28   A    
Cr2   O2    S    
C32   C76   S    
C112  H42   S    
C81   O9    A    
C13   C17   A    
C89   C98   S    
C106  H37   S    
C35   H11   S    
C8    C100  S    
C73   O1    A    
C96   C100  S    
C75   O3    A    
C37   C41   A    
C101  C102  A    
Cr3   O43   S    
Cr8   O8    S    
C76   O40   A    
C91   C95   S    
C40   C44   A    
C138  C139  A    
C140  C141  A    
Cr9   O17   S    
Cr2   O18   S    
C92   C99   S    
C58   C62   A    
C2    O26   A    
C104  H35   S    
C93   C97   S    
C34   C37   A    
C41   C42   A    
Cr4   O24   S    
C35   C36   A    
C86   O42   A    
C5    C94   S    
C126  H65   S    
C15   C19   A    
C7    C96   S    
C50   C54   A    
C6    C98   S    
C43   C137  S    
C111  H41   S    
C94   C98   S    
C147  C148  A    
C79   O47   A    
Cr11  O35   S    
C26   H62   S    
Cr8   O28   S    
C107  C108  A    
Cr6   O30   S    
C141  C142  A    
Cr1   O45   S    
C90   C97   S    
Cr10  O34   S    
Cr4   O48   S    
C48   O32   A    
C128  H67   S    
C48   C100  S    
C90   C94   S    
C46   O30   A    
C129  H68   S    
C42   C131  S    
C113  C114  A    
C53   C57   A    
C27   C31   A    
C115  H44   S    
C89   C93   S    
C56   C60   A    
C122  H50   S    
C28   H64   S    
C126  C127  A    
C31   C75   S    
C110  C111  A    
Cr8   O32   S    
C28   C32   A    
C134  C135  A    
C6    C93   S    
Cr6   O50   S    
C119  C124  A    
C93   H1    S    
C145  H81   S    
Cr1   O41   S    
C71   C87   S    
C4    C17   S    
C76   O4    A    
C37   C82   S    
C45   O29   A    
C123  C124  A    
C85   O13   A    
C84   O12   A    
C77   O49   A    
C87   O15   A    
C12   C119  S    
C44   C143  S    
C108  H38   S    
C148  H84   S    
Cr11  O11   S    
Cr7   O51   S    
C65   C69   A    
Cr8   O52   S    
C121  C122  A    
C67   C71   A    
C119  C120  A    
C135  C136  A    
C22   C26   A    
C102  H33   S    
C55   H19   S    
C45   C97   S    
C89   C90   S    
C105  C106  A    
C14   C18   A    
C130  H69   S    
C92   C96   S    
C43   C44   A    
C94   H2    S    
C38   C42   A    
Cr5   O17   S    
C143  C144  A    
C67   H27   S    
C29   C73   S    
C138  H75   S    
C68   H28   S    
C66   H26   S    
C3    C18   S    
Cr9   O13   S    
Cr10  O18   S    
Cr1   O17   S    
C13   H53   S    
C144  C145  A    
C95   H3    S    
C104  C105  A    
C90   H30   S    
C135  H73   S    
C54   H18   S    
C102  C103  A    
C23   C27   A    
C82   O6    A    
C132  C133  A    
C83   O11   A    
C16   C20   A    
C11   C31   A    
C12   C32   A    
C33   H9    S    
C72   C88   S    
C39   C43   A    
C63   C67   A    
C60   C77   S    
C147  H83   S    
C79   O51   A    
Cr11  O39   S    
C80   O52   A    
Cr7   O7    S    
C117  H46   S    
C21   H57   S    
C141  H78   S    
C5    H5    S    
C52   H16   S    
C53   H17   S    
Cr4   O44   S    
C128  C129  A    
Cr4   O20   S    
C33   C34   A    
C77   O45   A    
C137  C138  A    
C24   H60   S    
C127  C128  A    
C70   C86   S    
C8    H8    S    
C54   C58   A    
C144  H80   S    
C9    C29   A    
C2    O22   A    
Cr5   O25   S    
C3    O27   A    
C145  C146  A    
Cr12  O20   S    
Cr9   O37   S    
Cr2   O22   S    
C74   O2    A    
C47   O31   A    
C114  H43   S    
C123  H51   S    
C116  C117  A    
C133  C134  A    
C86   O14   A    
C34   H10   S    
C109  C110  A    
C120  C121  A    
C78   O50   A    
C6    H6    S    
C52   C56   A    
