data_mof_unit_48358.cif
_audit_creation_date              2013-03-05T16:46:36-0500
_audit_creation_method            fapswitch 2.2
_symmetry_space_group_name_H-M    P1
_symmetry_Int_Tables_number       1
_space_group_crystal_system       triclinic
_cell_length_a                    12.813121
_cell_length_b                    8.927483
_cell_length_c                    8.119498
_cell_angle_alpha                 89.929608
_cell_angle_beta                  98.745655
_cell_angle_gamma                 89.961457
_cell_volume                      917.98067509

loop_
_atom_site_label
_atom_site_type_symbol
_atom_site_description
_atom_site_fract_x
_atom_site_fract_y
_atom_site_fract_z
_atom_type_partial_charge
O1    O     O_R   0.499990 0.285340 0.636850 -0.617640
O2    O     O_R   0.500010 0.714660 0.363150 -0.617640
O3    O     O_R   0.500010 0.285340 0.363150 -0.600380
O4    O     O_R   0.499990 0.714660 0.636850 -0.600380
N1    N     N_1   0.500020 0.500000 0.073640 0.015705
N2    N     N_1   0.499980 0.500000 0.926360 0.015705
C1    C     C_R   0.499994 0.218043 0.500057 0.929036
C2    C     C_R   0.500006 0.781957 0.499943 0.929033
O5    O     O_R   0.346350 0.500000 0.614250 -0.598935
O6    O     O_R   0.653650 0.500000 0.385750 -0.598938
O7    O     O_R   0.346360 0.500000 0.340500 -0.578047
O8    O     O_R   0.653640 0.500000 0.659500 -0.578046
C3    C     C_R   0.297589 0.497434 0.465001 0.928781
C4    C     C_R   0.702411 0.502566 0.534999 0.928774
Zn1   Zn    Zn3+2 0.499990 0.500000 0.682780 1.090984
Zn2   Zn    Zn3+2 0.500010 0.500000 0.317220 1.090983
C5    C     C_R   0.815329 0.507749 0.562849 -0.349737
C6    C     C_R   0.184671 0.492248 0.437152 -0.349735
C7    C     C_R   0.026580 0.347440 0.351595 0.479749
C8    C     C_R   0.973422 0.652551 0.648415 0.479751
C9    C     C_R   0.133881 0.372388 0.347076 0.119945
C10   C     C_R   0.866120 0.627606 0.652930 0.119945
C11   C     C_R   0.130206 0.594494 0.523086 0.471917
C12   C     C_R   0.869794 0.405501 0.476918 0.471922
C13   C     C_R   0.026029 0.562645 0.542970 -0.137803
C14   C     C_R   0.973972 0.437349 0.457037 -0.137800
C15   C     C_1   0.499998 0.065213 0.500084 -0.095771
C16   C     C_1   0.500002 0.934787 0.499916 -0.095774
O9    O     O_3   0.821280 0.276504 0.408149 -0.630937
H1    H     H_    0.762500 0.248472 0.468499 0.327467
O10   O     O_3   0.178719 0.723492 0.591852 -0.630936
H2    H     H_    0.237495 0.751529 0.531495 0.327467
N3    N     N_R   0.806850 0.731219 0.737311 0.203932
O11   O     O_R   0.775910 0.692917 0.876790 -0.343105
O12   O     O_R   0.794719 0.868933 0.685284 -0.362481
N4    N     N_R   0.193152 0.268776 0.262697 0.203931
O13   O     O_R   0.224091 0.307076 0.123216 -0.343102
O14   O     O_R   0.205292 0.131066 0.314733 -0.362494
O15   O     O_3   0.972203 0.235767 0.256094 -0.627063
H3    H     H_    0.012776 0.201849 0.168579 0.374391
O16   O     O_3   0.027801 0.764218 0.743922 -0.627061
H4    H     H_    0.987230 0.798126 0.831446 0.374389

loop_
_geom_bond_atom_site_label_1
_geom_bond_atom_site_label_2
_geom_bond_distance
_ccdc_geom_bond_type
O9    H1    0.991035 S    
O1    Zn1   1.952773 S    
C6    C9    1.400552 A    
O2    Zn2   1.952772 S    
O7    Zn2   2.006194 S    
O10   H2    0.991039 S    
O8    Zn1   2.006194 S    
O4    C2    1.262958 A    
C13   C14   1.429804 A    
O4    Zn1   1.951873 S    
N4    O14   1.301008 A    
C8    O16   1.385345 S    
O5    Zn1   1.962632 S    
C9    N4    1.435481 S    
O6    Zn2   1.962632 S    
O7    C3    1.266879 A    
C4    C5    1.430811 S    
C7    O15   1.385345 S    
C3    C6    1.430811 S    
N4    O13   1.300923 A    
N3    O12   1.301009 A    
O8    C4    1.266878 A    
N3    O11   1.300923 A    
O3    C1    1.262958 A    
C11   C13   1.398077 A    
O6    C4    1.276421 A    
N1    N2    1.195762 T    
C2    C16   1.364392 S    
C5    C12   1.398521 A    
C8    C13   1.417055 A    
C8    C10   1.398905 A    
C6    C11   1.398519 A    
C15   C16   1.164370 T    
C1    C15   1.364392 S    
O16   H4    0.989718 S    
O15   H3    0.989715 S    
C10   N3    1.435481 S    
C7    C14   1.417057 A    
O5    C3    1.276419 A    
C12   O9    1.386146 S    
N1    Zn2   1.977766 S    
C7    C9    1.398906 A    
N2    Zn1   1.977767 S    
O1    C1    1.263425 A    
O2    C2    1.263425 A    
O3    Zn2   1.951874 S    
C5    C10   1.400554 A    
C12   C14   1.398080 A    
C11   O10   1.386145 S    
