data_mof_unit_56633.cif
_audit_creation_date              2013-03-05T16:33:33-0500
_audit_creation_method            fapswitch 2.2
_symmetry_space_group_name_H-M    P1
_symmetry_Int_Tables_number       1
_space_group_crystal_system       triclinic
_cell_length_a                    10.764035
_cell_length_b                    10.986383
_cell_length_c                    9.644572
_cell_angle_alpha                 91.558566
_cell_angle_beta                  87.501602
_cell_angle_gamma                 88.00386
_cell_volume                      1138.29924464

loop_
_atom_site_label
_atom_site_type_symbol
_atom_site_description
_atom_site_fract_x
_atom_site_fract_y
_atom_site_fract_z
_atom_type_partial_charge
O1    O     O_R   0.500000 0.319640 0.618810 -0.556896
O2    O     O_R   0.500010 0.319680 0.381230 -0.504012
C1    C     C_R   0.504288 0.262629 0.498130 0.909892
O3    O     O_R   0.319650 0.499970 0.618810 -0.484237
O4    O     O_R   0.319660 0.500010 0.381230 -0.599153
C2    C     C_R   0.262568 0.498944 0.502109 0.891146
Cu1   Cu    Cu3+1 0.499990 0.499980 0.640670 1.124134
Cu2   Cu    Cu3+1 0.500010 0.500020 0.359330 1.098273
O5    O     O_R   0.499990 0.680320 0.618770 -0.519703
O6    O     O_R   0.500000 0.680360 0.381190 -0.563502
O7    O     O_R   0.680340 0.499990 0.618770 -0.599093
O8    O     O_R   0.680350 0.500030 0.381190 -0.544481
C3    C     C_R   0.502021 0.737495 0.502086 0.847039
C4    C     C_R   0.736952 0.498743 0.497219 0.851286
C5    C     C_R   0.059858 0.603202 0.489919 0.008121
C6    C     C_R   0.128689 0.494230 0.503259 -0.163605
C7    C     C_R   0.067969 0.382216 0.485560 0.317511
C8    C     C_R   0.937490 0.384833 0.481377 -0.188996
H1    H     H_    0.888579 0.300588 0.475070 0.237403
C9    C     C_R   0.870015 0.495978 0.489339 -0.148738
C10   C     C_R   0.932778 0.603622 0.482159 0.152775
C11   C     C_3   0.912029 0.720087 0.563073 -0.390306
C12   C     C_3   0.052127 0.719607 0.575148 -0.326265
H2    H     H_    0.875584 0.794625 0.498740 0.246425
H3    H     H_    0.860407 0.708312 0.663897 0.242808
H4    H     H_    0.096769 0.795848 0.520918 0.236594
H5    H     H_    0.077199 0.707879 0.684047 0.286306
C13   C     C_R   0.447317 0.070563 0.606873 -0.010347
C14   C     C_R   0.504173 0.129148 0.494702 -0.167715
C15   C     C_R   0.560014 0.056210 0.383240 0.364891
C16   C     C_R   0.555546 0.928847 0.387998 -0.208362
H6    H     H_    0.596641 0.873783 0.302219 0.220220
C17   C     C_R   0.506822 0.871067 0.505390 -0.134237
C18   C     C_R   0.453229 0.944242 0.615597 -0.007224
C19   C     C_3   0.480139 0.955341 0.768690 0.396506
C20   C     C_3   0.461547 0.094257 0.758626 0.064059
H7    H     H_    0.544511 0.147543 0.780498 0.181196
C21   C     C_R   0.596866 0.450459 0.066489 0.206047
N1    N     N_R   0.500790 0.500930 0.147930 -0.200693
C22   C     C_R   0.402458 0.548344 0.083274 -0.046188
H8    H     H_    0.324991 0.586706 0.146640 0.173882
C23   C     C_R   0.401906 0.552303 0.936684 0.497364
N2    N     N_R   0.500790 0.500890 0.852020 -0.229552
C24   C     C_R   0.592694 0.440958 0.920626 0.136715
C25   C     C_3   0.729832 0.458150 0.904712 0.015542
C26   C     C_3   0.731200 0.484325 0.060679 0.126201
H9    H     H_    0.755483 0.536258 0.840430 0.179624
H10   H     H_    0.792813 0.422322 0.118307 0.180232
N3    N     N_R   0.135031 0.266496 0.473874 0.155137
O9    O     O_R   0.240614 0.255684 0.403291 -0.344291
O10   O     O_R   0.080079 0.167774 0.509874 -0.243266
N4    N     N_R   0.608689 0.916503 0.797452 0.096243
O11   O     O_R   0.645477 0.803246 0.777681 -0.329754
O12   O     O_R   0.682526 0.990478 0.858049 -0.271980
S1    S     S_3+6 0.320827 0.163088 0.840805 0.123087
O13   O     O_2   0.209013 0.132698 0.760293 -0.118849
O14   O     O_2   0.303125 0.120049 0.986877 -0.210320
O15   O     O_3   0.330684 0.314047 0.847850 -0.497398
H11   H     H_    0.285274 0.339141 0.936069 0.378677
S2    S     S_3+6 0.263200 0.620425 0.877453 0.055979
O16   O     O_2   0.289306 0.691903 0.750687 -0.260592
O17   O     O_2   0.172268 0.524205 0.844723 -0.326161
O18   O     O_3   0.195654 0.715496 0.000900 -0.438829
H12   H     H_    0.131595 0.667612 0.049464 0.373657
S3    S     S_3+6 0.812499 0.318427 0.851849 0.081199
O19   O     O_2   0.796971 0.225163 0.961711 -0.127823
O20   O     O_2   0.763661 0.268893 0.718990 -0.288984
O21   O     O_3   0.964572 0.344733 0.827848 -0.411890
H13   H     H_    0.966911 0.421430 0.776438 0.348802
S4    S     S_3+6 0.756744 0.644181 0.092854 0.041824
O22   O     O_2   0.788985 0.669250 0.240166 -0.290299
O23   O     O_2   0.862729 0.682658 0.999116 -0.244891
O24   O     O_3   0.628101 0.726834 0.059613 -0.487812
H14   H     H_    0.653641 0.812414 0.064743 0.424298
S5    S     S_3+6 0.648788 0.117259 0.243971 0.076862
O25   O     O_2   0.726864 0.218030 0.296105 -0.287330
O26   O     O_2   0.733997 0.020422 0.174567 -0.208370
O27   O     O_3   0.552076 0.172857 0.127176 -0.477406
H15   H     H_    0.528950 0.100625 0.071821 0.388858
N5    N     N_R   0.388120 0.899568 0.861185 0.193253
O28   O     O_R   0.419477 0.866001 0.983506 -0.282978
O29   O     O_R   0.270401 0.907584 0.835509 -0.187540

loop_
_geom_bond_atom_site_label_1
_geom_bond_atom_site_label_2
_geom_bond_distance
_ccdc_geom_bond_type
S1    O13   1.502788 D    
O24   H14   0.989285 S    
C19   C20   1.538565 S    
N2    C24   1.373087 A    
Cu1   Cu2   2.713407 S    
C25   C26   1.524579 S    
C24   C25   1.496503 S    
C3    C17   1.469706 S    
S2    O18   1.685537 S    
O4    C2    1.294501 A    
C13   C14   1.402419 A    
C18   C19   1.519482 S    
C15   C16   1.403688 A    
O7    C4    1.296956 A    
C5    C6    1.397742 A    
C19   N5    1.465371 S    
S2    O17   1.502009 D    
C8    H1    1.082218 S    
C12   H4    1.111772 S    
C1    C14   1.465985 S    
O5    C3    1.303366 A    
C6    C7    1.423061 A    
S3    O20   1.501705 D    
C11   H3    1.111670 S    
C16   C17   1.403718 A    
S4    O22   1.497735 D    
Cu2   N1    2.038811 S    
C12   H5    1.105519 S    
C22   C23   1.415916 A    
C13   C18   1.392054 A    
C10   C11   1.485475 S    
O3    Cu1   1.961720 S    
N4    O12   1.301315 A    
C17   C18   1.405912 A    
C25   H9    1.107931 S    
C26   H10   1.110864 S    
C21   C26   1.504651 S    
C4    C9    1.430225 S    
N5    O29   1.302101 A    
C23   S2    1.770703 S    
N1    C22   1.348079 A    
O27   H15   0.989465 S    
O21   H13   0.989751 S    
N3    O10   1.301561 A    
O15   H11   0.990169 S    
S2    O16   1.492665 D    
O1    C1    1.304904 A    
Cu1   O7    1.943580 S    
S5    O25   1.502053 D    
C21   C24   1.410608 A    
C14   C15   1.422079 A    
C16   H6    1.080871 S    
Cu2   O8    1.961721 S    
S3    O21   1.679334 S    
S4    O24   1.676825 S    
C7    C8    1.406125 A    
S5    O26   1.503629 D    
O3    C2    1.305586 A    
C22   H8    1.078665 S    
O8    C4    1.297446 A    
N3    O9    1.299189 A    
Cu1   N2    2.038528 S    
S1    O14   1.504565 D    
C25   S3    1.797446 S    
C11   H2    1.111732 S    
C23   N2    1.405696 A    
C7    N3    1.439200 S    
N4    O11   1.299077 A    
Cu1   O5    1.998216 S    
C20   H7    1.109434 S    
O1    Cu1   1.986756 S    
O2    Cu2   1.998214 S    
N5    O28   1.300541 A    
O6    C3    1.310488 A    
O4    Cu2   1.943580 S    
O2    C1    1.306553 A    
C20   S1    1.810342 S    
C15   S5    1.774507 S    
C21   N1    1.363614 A    
C5    C12   1.499179 S    
C8    C9    1.397394 A    
S5    O27   1.679594 S    
C26   S4    1.807678 S    
C2    C6    1.443382 S    
O18   H12   0.991008 S    
C5    C10   1.373045 A    
C9    C10   1.384140 A    
C13   C20   1.494966 S    
Cu2   O6    1.986756 S    
S3    O19   1.502014 D    
S1    O15   1.665297 S    
C19   N4    1.473922 S    
C11   C12   1.517397 S    
S4    O23   1.503987 D    
