data_mof_unit_11144.cif
_audit_creation_date              2012-10-26T19:46:57-0400
_audit_creation_method            fapswitch 2.2
_symmetry_space_group_name_H-M    P1
_symmetry_Int_Tables_number       1
_space_group_crystal_system       triclinic
_cell_length_a                    10.784454
_cell_length_b                    9.537177
_cell_length_c                    16.009449
_cell_angle_alpha                 89.989914
_cell_angle_beta                  90.205812
_cell_angle_gamma                 89.649401
_cell_volume                      1646.58232371

loop_
_atom_site_label
_atom_site_type_symbol
_atom_type_description
_atom_site_fract_x
_atom_site_fract_y
_atom_site_fract_z
_atom_type_partial_charge
C1    C     C_R   0.871512 0.496566 0.499631 0.018385
C2    C     C_R   0.439161 0.390868 0.956111 0.283631
C3    C     C_R   0.498631 0.500526 0.912254 -0.080075
C4    C     C_R   0.496128 0.501690 0.087800 -0.081572
C5    C     C_1   0.499471 0.500208 0.822432 -0.083375
C6    C     C_1   0.497041 0.500787 0.177606 -0.086170
C7    C     C_1   0.498120 0.500211 0.252532 -0.044747
C8    C     C_1   0.499954 0.500047 0.747496 -0.043678
C9    C     C_R   0.431003 0.074890 0.443144 0.022370
C10   C     C_R   0.568271 0.925348 0.557181 0.022468
C11   C     C_R   0.568710 0.073936 0.556987 0.020498
C12   C     C_R   0.128494 0.501566 0.498493 0.023711
C13   C     C_R   0.431247 0.926253 0.443030 0.022248
C14   C     C_R   0.066347 0.507979 0.576066 -0.000234
C15   C     C_R   0.933619 0.482874 0.422221 -0.002001
C16   C     C_R   0.935722 0.505796 0.576625 -0.002349
C17   C     C_R   0.064445 0.491196 0.421314 0.000335
C18   C     C_3   0.140657 0.515944 0.657547 -0.273934
C19   C     C_3   0.173859 0.369949 0.690342 -0.420921
C20   C     C_3   0.858956 0.455474 0.342253 -0.269198
C21   C     C_3   0.834436 0.589446 0.292564 -0.416414
C22   C     C_3   0.863795 0.508714 0.658799 -0.270453
C23   C     C_R   0.262627 0.500444 0.498512 0.543542
C24   C     C_3   0.834438 0.658625 0.686008 -0.421422
C25   C     C_3   0.137604 0.489954 0.339385 -0.270726
C26   C     C_3   0.179586 0.637019 0.314554 -0.428126
C27   C     C_R   0.737383 0.499389 0.500204 0.542039
C28   C     C_R   0.499528 0.500028 0.341400 0.538269
C29   C     C_R   0.500189 0.499999 0.658608 0.539386
C30   C     C_R   0.556667 0.610899 0.956615 0.285597
C31   C     C_R   0.437213 0.391945 0.043447 0.285562
C32   C     C_R   0.555638 0.611325 0.043962 0.282709
Cu1   Cu    Cu3+1 0.500000 0.640660 0.500000 0.920923
Cu2   Cu    Cu3+1 0.500000 0.359340 0.500000 0.920798
H1    H     H_    0.375493 0.131165 0.397628 0.114366
H2    H     H_    0.235095 0.313847 0.645855 0.187338
H3    H     H_    0.223554 0.379645 0.750890 0.152452
H4    H     H_    0.226964 0.576940 0.649290 0.164573
H5    H     H_    0.090483 0.574629 0.706652 0.150021
H6    H     H_    0.769461 0.566711 0.240439 0.151920
H7    H     H_    0.792009 0.670935 0.333160 0.174200
H8    H     H_    0.921042 0.630006 0.265104 0.162335
H9    H     H_    0.903347 0.374311 0.302755 0.138843
H10   H     H_    0.768045 0.407542 0.355844 0.169236
H11   H     H_    0.920543 0.719272 0.696355 0.152240
H12   H     H_    0.622326 0.869552 0.603413 0.104818
H13   H     H_    0.778423 0.712599 0.637614 0.168384
H14   H     H_    0.780784 0.656860 0.745044 0.150142
H15   H     H_    0.775802 0.449673 0.653536 0.151157
H16   H     H_    0.914329 0.453481 0.709482 0.149718
H17   H     H_    0.256016 0.672944 0.355042 0.178584
H18   H     H_    0.213948 0.635688 0.249240 0.149245
H19   H     H_    0.102268 0.713792 0.319247 0.152974
H20   H     H_    0.219622 0.419519 0.344699 0.148781
H21   H     H_    0.085008 0.447013 0.286162 0.149889
H22   H     H_    0.623954 0.129414 0.602648 0.115939
H23   H     H_    0.376201 0.871118 0.397266 0.105270
H24   H     H_    0.606122 0.715222 0.144640 0.320857
H25   H     H_    0.391209 0.285236 0.855553 0.320003
H26   H     H_    0.609917 0.713507 0.856371 0.318317
H27   H     H_    0.376249 0.294755 0.143580 0.321253
H28   H     H_    0.089159 0.306648 0.700135 0.153129
N1    N     N_R   0.500000 0.852070 0.500000 -0.224311
N2    N     N_R   0.500000 0.147930 0.500000 -0.226599
O1    O     O_R   0.319640 0.618740 0.499990 -0.508197
O2    O     O_3   0.380883 0.279772 0.916746 -0.618111
O3    O     O_3   0.616090 0.721462 0.917758 -0.618196
O4    O     O_3   0.376790 0.282114 0.082334 -0.616551
O5    O     O_R   0.680360 0.381260 0.500010 -0.508838
O6    O     O_R   0.680360 0.618740 0.500010 -0.500144
O7    O     O_R   0.319640 0.381260 0.499990 -0.507864
O8    O     O_R   0.499970 0.618750 0.380310 -0.503719
O9    O     O_R   0.500030 0.381250 0.619690 -0.502762
O10   O     O_R   0.500030 0.618750 0.619690 -0.499259
O11   O     O_R   0.499970 0.381250 0.380310 -0.500825
O12   O     O_3   0.614584 0.721957 0.083353 -0.617686

loop_
_geom_bond_atom_site_label_1
_geom_bond_atom_site_label_2
_ccdc_geom_bond_type
C12   C17   A    
C32   O12   S    
C5    C8    T    
C18   H5    S    
C10   H12   S    
C6    C7    T    
C1    C15   A    
C26   H18   S    
C3    C30   A    
C9    N2    A    
C27   O5    A    
C14   C18   S    
C10   N1    A    
C12   C23   S    
Cu1   N1    S    
Cu2   O11   S    
C22   H16   S    
C25   C26   S    
C17   C25   S    
C23   O1    A    
Cu2   N2    S    
C2    C3    A    
C18   H4    S    
Cu1   O1    S    
C11   H22   S    
C1    C16   A    
C28   O8    A    
C26   H17   S    
C25   H20   S    
C30   C32   A    
C27   O6    A    
H27   O4    S    
C4    C32   A    
C21   H6    S    
Cu1   O6    S    
C22   H15   S    
C21   H7    S    
C8    C29   S    
Cu2   O7    S    
C25   H21   S    
C20   H10   S    
C12   C14   A    
Cu1   Cu2   S    
C22   C24   S    
C19   H2    S    
H25   O2    S    
C15   C20   S    
C14   C16   A    
C4    C31   A    
C13   H23   S    
C10   C11   A    
C24   H11   S    
C19   H28   S    
H24   O12   S    
C21   H8    S    
C24   H14   S    
C26   H19   S    
C23   O7    A    
Cu1   O10   S    
C24   H13   S    
C20   H9    S    
C29   O9    A    
C20   C21   S    
C4    C6    S    
C11   N2    A    
C1    C27   S    
C9    C13   A    
C18   C19   S    
C9    H1    S    
C16   C22   S    
C29   O10   A    
C19   H3    S    
Cu1   O8    S    
C2    O2    S    
Cu2   O9    S    
C15   C17   A    
C28   O11   A    
Cu2   O5    S    
C31   O4    S    
C7    C28   S    
C30   O3    S    
H26   O3    S    
C2    C31   A    
C3    C5    S    
C13   N1    A    
