data_mof_unit_33660.cif
_audit_creation_date              2012-12-10T17:31:18-0500
_audit_creation_method            fapswitch 2.2
_symmetry_space_group_name_H-M    P1
_symmetry_Int_Tables_number       1
_space_group_crystal_system       triclinic
_cell_length_a                    18.882034
_cell_length_b                    18.90148
_cell_length_c                    12.383153
_cell_angle_alpha                 90.270025
_cell_angle_beta                  129.763796
_cell_angle_gamma                 89.691759
_cell_volume                      3397.18312549

loop_
_atom_site_label
_atom_site_type_symbol
_atom_type_description
_atom_site_fract_x
_atom_site_fract_y
_atom_site_fract_z
_atom_type_partial_charge
C1    C     C_R   0.612343 0.897563 0.652919 0.788620
C2    C     C_R   0.611770 0.102182 0.651858 0.802027
C3    C     C_R   0.112530 0.397697 0.653149 0.789235
C4    C     C_R   0.112101 0.601986 0.652283 0.802769
C5    C     C_R   0.261678 0.763783 0.058711 0.094280
C6    C     C_R   0.236454 0.219255 0.031019 0.086919
C7    C     C_R   0.761208 0.263972 0.058101 0.094865
C8    C     C_R   0.734948 0.718065 0.028775 0.084507
C9    C     C_R   0.748235 0.210834 0.124278 0.119822
C10   C     C_R   0.673171 0.744962 0.046816 0.130887
C11   C     C_R   0.246850 0.711327 0.123717 0.119862
C12   C     C_R   0.174600 0.246100 0.048879 0.130543
C13   C     C_R   0.724433 0.142873 0.069718 -0.217519
C14   C     C_R   0.597797 0.784825 0.940680 -0.171113
C15   C     C_R   0.221913 0.643502 0.068787 -0.218314
C16   C     C_R   0.099043 0.285665 0.942333 -0.168977
C17   C     C_R   0.709767 0.127585 0.947672 -0.177397
C18   C     C_R   0.590205 0.805889 0.826607 -0.157229
C19   C     C_R   0.208258 0.627633 0.947774 -0.177431
C20   C     C_R   0.091277 0.306254 0.827861 -0.156100
C21   C     C_R   0.300963 0.827891 0.130796 -0.268594
C22   C     C_R   0.301759 0.169502 0.128249 -0.267736
C23   C     C_R   0.800389 0.328096 0.130328 -0.269341
C24   C     C_R   0.801327 0.669174 0.127417 -0.273407
C25   C     C_R   0.302365 0.788797 0.319338 0.181789
C26   C     C_R   0.263204 0.191204 0.278516 0.192171
C27   C     C_R   0.803284 0.288209 0.319885 0.181136
C28   C     C_R   0.761952 0.690372 0.276801 0.191035
C29   C     C_R   0.666230 0.167516 0.724356 -0.156286
C30   C     C_R   0.671972 0.834387 0.733442 -0.174044
C31   C     C_R   0.167660 0.666756 0.725960 -0.156685
C32   C     C_R   0.173019 0.335095 0.734806 -0.172801
C33   C     C_R   0.687837 0.982182 0.293596 0.428893
C34   C     C_R   0.187950 0.482888 0.293659 0.429554
C35   C     C_R   0.341606 0.008103 0.628881 0.317451
C36   C     C_R   0.841628 0.508064 0.628986 0.327765
C37   C     C_R   0.310259 0.020892 0.703696 0.415416
C38   C     C_R   0.809817 0.521558 0.703032 0.425606
C39   C     C_R   0.385688 0.100418 0.345075 0.843676
C40   C     C_R   0.386041 0.899768 0.345119 0.828355
C41   C     C_R   0.885568 0.600367 0.344890 0.841926
C42   C     C_R   0.886052 0.399731 0.345130 0.826083
C43   C     C_R   0.372339 0.020972 0.849643 -0.320435
C44   C     C_R   0.872758 0.522408 0.849842 -0.340402
C45   C     C_R   0.465291 0.004010 0.923885 -0.039045
C46   C     C_R   0.965432 0.504624 0.923860 -0.030247
C47   C     C_R   0.496119 0.996076 0.844703 0.183968
C48   C     C_R   0.996129 0.496188 0.844676 0.181828
C49   C     C_R   0.529019 0.997679 0.074598 -0.113832
C50   C     C_R   0.029106 0.498097 0.074624 -0.112916
C51   C     C_R   0.622869 0.981476 0.144636 -0.055496
C52   C     C_R   0.122968 0.481955 0.144746 -0.057520
C53   C     C_R   0.651126 0.967056 0.065808 0.434991
C54   C     C_R   0.151172 0.467377 0.065958 0.433022
C55   C     C_R   0.590270 0.981995 0.921060 -0.280927
C56   C     C_R   0.090218 0.481771 0.921118 -0.280065
C57   C     C_R   0.502505 0.003117 0.159247 0.033158
C58   C     C_R   0.002502 0.503066 0.159228 0.033933
C59   C     C_R   0.657003 0.994613 0.368891 0.005340
C60   C     C_R   0.157052 0.495139 0.368909 0.006848
C61   C     C_R   0.764196 0.224722 0.249061 -0.203122
C62   C     C_R   0.687865 0.732045 0.171022 -0.164487
C63   C     C_R   0.262304 0.725603 0.247988 -0.202835
C64   C     C_R   0.189284 0.233139 0.173069 -0.164381
C65   C     C_R   0.326197 0.839222 0.263558 -0.091159
C66   C     C_R   0.316259 0.154872 0.251779 -0.107866
C67   C     C_R   0.826273 0.339096 0.263603 -0.091318
C68   C     C_R   0.815684 0.654509 0.250886 -0.106883
C69   C     C_R   0.668708 0.221544 0.647916 0.181130
C70   C     C_R   0.743903 0.814886 0.731123 0.168421
C71   C     C_R   0.173008 0.719944 0.651269 0.183271
C72   C     C_R   0.245602 0.316307 0.733558 0.168046
C73   C     C_R   0.215634 0.784022 0.716592 -0.150129
C74   C     C_R   0.303702 0.259968 0.813022 -0.107648
C75   C     C_R   0.708576 0.286565 0.711485 -0.144398
C76   C     C_R   0.800126 0.757215 0.807517 -0.105692
C77   C     C_R   0.246009 0.799405 0.850161 -0.233004
C78   C     C_R   0.299120 0.225673 0.906281 -0.202330
C79   C     C_R   0.740423 0.301329 0.846124 -0.234674
C80   C     C_R   0.795033 0.722558 0.899977 -0.212906
C81   C     C_R   0.736239 0.249870 0.924150 0.104915
C82   C     C_R   0.730748 0.743503 0.916680 0.090441
C83   C     C_R   0.238230 0.749068 0.925952 0.104707
C84   C     C_R   0.233031 0.245180 0.920009 0.094088
C85   C     C_R   0.704261 0.181273 0.865046 0.063532
C86   C     C_R   0.662961 0.794916 0.823141 0.051501
C87   C     C_R   0.204803 0.680764 0.866166 0.063490
C88   C     C_R   0.164422 0.295789 0.825083 0.051721
Cu1   Cu    Cu3+1 0.526340 1.000000 0.421010 0.978823
Cu2   Cu    Cu3+1 0.026340 0.500000 0.421010 0.978564
Cu3   Cu    Cu3+1 0.473640 0.000000 0.578990 0.986159
Cu4   Cu    Cu3+1 0.973640 0.500000 0.578990 0.985648
H1    H     H_    0.431547 0.008130 0.114194 0.124038
H2    H     H_    0.931470 0.507526 0.114111 0.123396
H3    H     H_    0.345385 0.034927 0.901695 0.154963
H4    H     H_    0.847882 0.538044 0.903924 0.144897
H5    H     H_    0.618860 0.983004 0.871277 0.194859
H6    H     H_    0.118978 0.482063 0.871651 0.195235
H7    H     H_    0.720445 0.100969 0.124595 0.135168
H8    H     H_    0.544860 0.800405 0.946278 0.151296
H9    H     H_    0.216331 0.602094 0.122727 0.134359
H10   H     H_    0.045900 0.301063 0.947575 0.151172
H11   H     H_    0.749782 0.184789 0.295062 0.156900
H12   H     H_    0.643913 0.756845 0.188246 0.164854
H13   H     H_    0.246937 0.686084 0.293392 0.158631
H14   H     H_    0.145491 0.258051 0.190498 0.165135
H15   H     H_    0.317151 0.868721 0.089355 0.151432
H16   H     H_    0.341772 0.140690 0.108802 0.164689
H17   H     H_    0.816244 0.369112 0.088722 0.150961
H18   H     H_    0.842847 0.641379 0.109838 0.164515
H19   H     H_    0.273356 0.851699 0.889331 0.132463
H20   H     H_    0.351642 0.186292 0.970170 0.148260
H21   H     H_    0.765623 0.354127 0.884310 0.130613
H22   H     H_    0.845509 0.681462 0.960386 0.145776
H23   H     H_    0.221300 0.823953 0.660310 0.169908
H24   H     H_    0.357869 0.245210 0.809812 0.184307
H25   H     H_    0.710703 0.327687 0.653033 0.180271
H26   H     H_    0.853296 0.741570 0.802579 0.184954
H27   H     H_    0.702657 0.073275 0.917502 0.128880
H28   H     H_    0.526542 0.831170 0.743653 0.209236
H29   H     H_    0.200800 0.573268 0.918011 0.129954
H30   H     H_    0.027264 0.330882 0.744175 0.208398
H31   H     H_    0.705000 0.997160 0.481859 0.162455
H32   H     H_    0.205054 0.497969 0.481852 0.162388
N1    N     N_R   0.566260 0.000000 0.302220 -0.203126
N2    N     N_R   0.066260 0.500000 0.302220 -0.203041
N3    N     N_R   0.434410 0.000000 0.697680 -0.235147
N4    N     N_R   0.934410 0.500000 0.697680 -0.239141
O1    O     O_R   0.608610 0.924520 0.551740 -0.543977
O2    O     O_R   0.608610 0.075480 0.551740 -0.554072
O3    O     O_R   0.108610 0.424520 0.551740 -0.543851
O4    O     O_R   0.108610 0.575480 0.551740 -0.553456
O5    O     O_R   0.564110 0.924510 0.685150 -0.617668
O6    O     O_R   0.564110 0.075490 0.685150 -0.581118
O7    O     O_R   0.064110 0.424510 0.685150 -0.617677
O8    O     O_R   0.064110 0.575490 0.685150 -0.581144
O9    O     O_R   0.435880 0.075470 0.314850 -0.586089
O10   O     O_R   0.435880 0.924530 0.314850 -0.590069
O11   O     O_R   0.935880 0.575470 0.314850 -0.585942
O12   O     O_R   0.935880 0.424530 0.314850 -0.589791
O13   O     O_R   0.391380 0.075460 0.448260 -0.541694
O14   O     O_R   0.391380 0.924540 0.448260 -0.540080
O15   O     O_R   0.891380 0.575460 0.448260 -0.543245
O16   O     O_R   0.891380 0.424540 0.448260 -0.541021
I1    I     I_    0.330870 0.796745 0.515150 -0.403015
I2    I     I_    0.292978 0.193325 0.475479 -0.257409
I3    I     I_    0.831491 0.295972 0.515497 -0.391621
I4    I     I_    0.791018 0.692421 0.473241 -0.262541
O17   O     O_3   0.730689 0.926534 0.128113 -0.515371
C89   C     C_3   0.786163 0.950150 0.096426 -0.242063
H33   H     H_    0.802806 0.007034 0.120999 0.145747
H34   H     H_    0.755634 0.937074 0.986934 0.136009
H35   H     H_    0.852705 0.921276 0.165167 0.210629
O18   O     O_3   0.230598 0.426819 0.127891 -0.516512
C90   C     C_3   0.287806 0.452805 0.101116 -0.236510
H36   H     H_    0.303954 0.509516 0.129033 0.147086
H37   H     H_    0.259026 0.441783 0.991718 0.132545
H38   H     H_    0.354393 0.424007 0.170122 0.212124
O19   O     O_3   0.779591 0.965246 0.364998 -0.510656
C91   C     C_3   0.835199 0.025003 0.438542 -0.251072
H39   H     H_    0.812690 0.070783 0.367369 0.130122
H40   H     H_    0.906807 0.012005 0.483893 0.195903
H41   H     H_    0.836825 0.039363 0.527191 0.160356
O20   O     O_3   0.279834 0.466452 0.365067 -0.510804
C92   C     C_3   0.334864 0.526553 0.437873 -0.255803
H42   H     H_    0.311894 0.572159 0.366137 0.131081
H43   H     H_    0.406590 0.513941 0.483351 0.195239
H44   H     H_    0.336375 0.541022 0.526381 0.160886
I5    I     I_    0.234513 0.997869 0.406611 -0.244262
I6    I     I_    0.734549 0.496399 0.406916 -0.221186
O21   O     O_3   0.219752 0.041134 0.633201 -0.545820
C93   C     C_3   0.172010 0.985074 0.636008 -0.261062
H45   H     H_    0.168258 0.938590 0.577333 0.175676
H46   H     H_    0.100316 0.002602 0.582373 0.196265
H47   H     H_    0.203127 0.969997 0.745069 0.137129
O22   O     O_3   0.717690 0.540323 0.627202 -0.543764
C94   C     C_3   0.678443 0.507732 0.680360 -0.257817
H48   H     H_    0.702579 0.452281 0.714445 0.138568
H49   H     H_    0.602646 0.505906 0.595345 0.196402
H50   H     H_    0.691997 0.539651 0.767392 0.155376
I7    I     I_    0.603727 0.215448 0.430323 -0.328959
I8    I     I_    0.787802 0.870638 0.635620 -0.321023
I9    I     I_    0.108440 0.714367 0.433725 -0.338057
I10   I     I_    0.287880 0.371479 0.635251 -0.320873

loop_
_geom_bond_atom_site_label_1
_geom_bond_atom_site_label_2
_ccdc_geom_bond_type
C83   C87   A    
O21   C93   S    
C39   O9    A    
C13   H7    S    
C92   H42   S    
C40   O14   A    
C90   H37   S    
C14   C18   A    
C75   H25   S    
C56   H6    S    
Cu2   O11   S    
Cu1   O1    S    
C32   C72   A    
Cu4   O8    S    
C15   C19   A    
Cu3   O6    S    
C2    O6    A    
Cu3   N3    S    
C2    C29   S    
C9    C61   A    
O20   C92   S    
C61   H11   S    
C25   I1    S    
C41   O15   A    
C19   C87   A    
C57   N1    A    
C12   C64   A    
C22   H16   S    
C77   C83   A    
C6    C22   A    
C49   C57   A    
C77   H19   S    
C25   C63   A    
C45   C47   A    
C23   C67   A    
C50   C52   A    
C60   H32   S    
Cu4   O15   S    
C26   C64   A    
C22   C66   A    
C9    C13   A    
C27   C61   A    
C2    O2    A    
C11   C15   A    
C70   I8    S    
C12   C16   A    
C44   C46   A    
C94   H49   S    
C89   H35   S    
C40   O10   A    
C43   H3    S    
Cu1   Cu3   S    
C29   C85   A    
C48   C56   A    
C93   H47   S    
C4    O8    A    
Cu3   O14   S    
Cu2   O4    S    
C52   C54   A    
C31   C71   A    
C1    O1    A    
C33   C59   A    
C57   H1    S    
C90   H38   S    
C53   O17   S    
C10   C62   A    
C1    O5    A    
Cu4   N4    S    
C6    C12   A    
C21   C65   A    
C30   C70   A    
C93   H46   S    
C41   C68   S    
C46   C48   A    
C53   C55   A    
C59   H31   S    
Cu2   Cu4   S    
C23   H17   S    
C54   C56   A    
C28   I4    S    
C6    C84   A    
C28   C62   A    
C42   O12   A    
C26   C66   A    
C91   H41   S    
C71   I9    S    
C31   C87   A    
C72   I10   S    
C72   C74   A    
C10   C14   A    
C71   C73   A    
C24   C68   A    
Cu1   N1    S    
C49   C51   A    
C17   C85   A    
C82   C86   A    
C26   I2    S    
C62   H12   S    
C76   H26   S    
Cu1   O2    S    
C51   C53   A    
C91   H40   S    
C37   C43   A    
C35   N3    A    
C38   C44   A    
C44   H4    S    
C89   H34   S    
C48   N4    A    
C38   O22   S    
O19   C91   S    
Cu3   O5    S    
C45   C49   A    
C16   C20   A    
C94   H50   S    
C74   H24   S    
C55   H5    S    
Cu2   N2    S    
C50   C58   A    
C24   H18   S    
C14   H8    S    
C18   C86   A    
C15   H9    S    
C64   H14   S    
C43   C45   A    
O18   C90   S    
C21   H15   S    
C34   O20   S    
C94   H48   S    
C39   O13   A    
Cu2   O3    S    
C16   H10   S    
O22   C94   S    
C7    C81   A    
C80   H22   S    
C58   N2    A    
C92   H44   S    
Cu1   O9    S    
C40   C65   S    
C79   H21   S    
C42   O16   A    
C42   C67   S    
C35   I5    S    
C39   C66   S    
C3    O3    A    
Cu4   O7    S    
C30   C86   A    
C18   H28   S    
C36   N4    A    
C93   H45   S    
C35   C37   A    
C47   C55   A    
C7    C9    A    
C19   H29   S    
C28   C68   A    
C34   C52   A    
C34   C60   A    
C8    C10   A    
C76   C80   A    
C37   O21   S    
Cu2   O12   S    
C79   C81   A    
C5    C83   A    
C5    C11   A    
C33   C51   A    
C46   C50   A    
C36   I6    S    
C20   H30   S    
C73   H23   S    
C13   C17   A    
C91   H39   S    
C60   N2    A    
C58   H2    S    
C27   I3    S    
C59   N1    A    
C70   C76   A    
C4    O4    A    
C84   C88   A    
C47   N3    A    
C7    C23   A    
C20   C88   A    
C36   C38   A    
C1    C30   S    
C8    C24   A    
C80   C82   A    
C69   C75   A    
C3    O7    A    
C3    C32   S    
Cu4   O16   S    
C41   O11   A    
C4    C31   S    
C27   C67   A    
C63   H13   S    
C17   H27   S    
C78   C84   A    
C8    C82   A    
C5    C21   A    
C92   H43   S    
Cu1   O10   S    
C74   C78   A    
C90   H36   S    
C25   C65   A    
C73   C77   A    
C89   H33   S    
C29   C69   A    
C78   H20   S    
C54   O18   S    
O17   C89   S    
C11   C63   A    
C75   C79   A    
C81   C85   A    
C33   O19   S    
C69   I7    S    
Cu3   O13   S    
C32   C88   A    
