data_mof_unit_62550.cif
_audit_creation_date              2012-12-11T15:00:54-0500
_audit_creation_method            fapswitch 2.2
_symmetry_space_group_name_H-M    P1
_symmetry_Int_Tables_number       1
_space_group_crystal_system       triclinic
_cell_length_a                    13.28527
_cell_length_b                    13.279765
_cell_length_c                    26.8047
_cell_angle_alpha                 96.539625
_cell_angle_beta                  97.235747
_cell_angle_gamma                 62.000764
_cell_volume                      4134.15657047

loop_
_atom_site_label
_atom_site_type_symbol
_atom_type_description
_atom_site_fract_x
_atom_site_fract_y
_atom_site_fract_z
_atom_type_partial_charge
Br1   Br    Br    0.633187 0.297352 0.158723 -0.410998
Br2   Br    Br    0.594938 0.705559 0.307450 -0.554813
Br3   Br    Br    0.274074 0.073284 0.328874 -0.459656
Br4   Br    Br    0.439045 0.583338 0.282513 -0.510738
Br5   Br    Br    0.464193 0.612193 0.167517 -0.448209
Br6   Br    Br    0.209536 0.588043 0.810296 -0.459026
Br7   Br    Br    0.998443 0.117226 0.319215 -0.432969
C1    C     C_R   0.378591 0.725069 0.436014 0.556731
C2    C     C_3   0.773010 0.239390 0.204310 0.259651
C3    C     C_3   0.849606 0.296515 0.196404 -0.001670
C4    C     C_R   0.394911 0.373570 0.417670 0.559918
C5    C     C_3   0.789657 0.425597 0.212416 -0.255646
C6    C     C_3   0.762378 0.444364 0.267636 -0.269817
C7    C     C_1   0.874078 0.287510 0.144116 0.004277
C8    C     C_1   0.781994 0.351939 0.344579 0.060750
C9    C     C_1   0.760237 0.372365 0.387669 0.092628
C10   C     C_3   0.449087 0.723168 0.272009 0.266756
C11   C     C_3   0.361946 0.937408 0.287482 0.035032
C12   C     C_1   0.332228 0.339307 0.267974 0.072304
C13   C     C_3   0.338665 0.958465 0.230466 -0.247824
C14   C     C_1   0.303489 0.894014 0.102267 0.036715
C15   C     C_3   0.349017 0.829972 0.296734 0.057956
C16   C     C_R   0.720995 0.401493 0.436527 0.561291
C17   C     C_3   0.445829 0.743029 0.214633 0.098726
C18   C     C_3   0.335292 0.853436 0.199408 -0.010690
C19   C     C_3   0.229763 0.845338 0.212909 -0.220772
C20   C     C_3   0.233765 0.840757 0.270278 -0.222106
C21   C     C_1   0.322694 0.870780 0.145520 -0.005609
C22   C     C_1   0.352246 0.813374 0.350206 0.090512
C23   C     C_1   0.344945 0.347519 0.320880 0.050021
C24   C     C_1   0.360058 0.781788 0.391314 0.085612
C25   C     C_3   0.441048 0.341784 0.731170 -0.015606
C26   C     C_3   0.320395 0.241076 0.705709 -0.256354
C27   C     C_3   0.312262 0.234003 0.762111 -0.255570
C28   C     C_R   0.382273 0.723924 0.575612 0.548384
C29   C     C_1   0.295930 0.309679 0.887923 0.037220
C30   C     C_3   0.332913 0.348242 0.698127 0.022717
C31   C     C_3   0.428935 0.337002 0.787517 -0.199850
C32   C     C_3   0.313290 0.339488 0.793711 0.053232
C33   C     C_3   0.212257 0.451598 0.772633 0.253574
C34   C     C_1   0.362642 0.356897 0.365795 0.069972
C35   C     C_3   0.224988 0.455376 0.715885 -0.153935
C36   C     C_1   0.304738 0.328737 0.846512 0.003769
C37   C     C_1   0.345670 0.351994 0.645111 -0.036117
C38   C     C_1   0.364119 0.359167 0.603400 0.024092
C39   C     C_1   0.888495 0.294036 0.864522 0.017595
C40   C     C_R   0.396309 0.375814 0.557694 0.555530
C41   C     C_1   0.860780 0.305741 0.820193 -0.007272
C42   C     C_1   0.838081 0.319637 0.767934 0.042618
C43   C     C_1   0.821398 0.333171 0.723419 0.044113
C44   C     C_1   0.799053 0.352440 0.671613 -0.005793
C45   C     C_3   0.739691 0.268049 0.260408 0.027349
C46   C     C_1   0.771828 0.373125 0.627941 0.017656
C47   C     C_1   0.292032 0.894317 0.862789 0.025481
C48   C     C_1   0.311861 0.866475 0.819244 -0.000391
C49   C     C_1   0.330235 0.842436 0.767461 0.037780
C50   C     C_1   0.343216 0.824077 0.722991 0.033628
C51   C     C_1   0.356672 0.799825 0.670798 -0.011908
C52   C     C_R   0.724218 0.403879 0.577679 0.550478
C53   C     C_1   0.367936 0.771648 0.626618 0.016247
C54   C     C_R   0.943471 0.276245 0.056069 0.549175
C55   C     C_R   0.288203 0.270523 0.073157 0.553913
C56   C     C_3   0.937791 0.260970 0.287294 0.267720
C57   C     C_R   0.270018 0.938469 0.053736 0.551475
C58   C     C_R   0.936752 0.278926 0.915644 0.548588
C59   C     C_R   0.281332 0.273887 0.933230 0.551173
C60   C     C_R   0.261985 0.941510 0.912873 0.553150
C61   C     C_1   0.306521 0.301479 0.124971 0.044409
C62   C     C_1   0.316492 0.318842 0.169841 0.017309
C63   C     C_1   0.324762 0.331670 0.222723 0.056779
C64   C     C_3   0.963080 0.241397 0.230835 -0.198212
C65   C     C_1   0.899284 0.285247 0.102614 0.040356
C66   C     C_3   0.806262 0.329272 0.291630 0.008176
Cr1   Cr    Cr6+3 0.585490 0.589720 0.509170 1.080987
Cr2   Cr    Cr6+3 0.329280 0.580760 0.494920 1.077977
Cr3   Cr    Cr6+3 0.585250 0.329540 0.495950 1.081244
Cr4   Cr    Cr6+3 0.077160 0.074530 0.981700 1.075216
Cr5   Cr    Cr6+3 0.079310 0.333830 0.996170 1.076556
Cr6   Cr    Cr6+3 0.334250 0.081620 0.994710 1.066837
H1    H     H_    0.647691 0.331807 0.259313 0.182943
H2    H     H_    0.149545 0.920539 0.199952 0.150064
H3    H     H_    0.500954 0.257115 0.802061 0.109239
H4    H     H_    0.517131 0.262249 0.719332 0.139794
H5    H     H_    0.242344 0.244540 0.683432 0.142353
H6    H     H_    0.395026 0.162551 0.691988 0.132113
H7    H     H_    0.385824 0.154039 0.775749 0.127767
H8    H     H_    0.233729 0.227190 0.766712 0.152974
H9    H     H_    0.229690 0.534095 0.709276 0.187030
H10   H     H_    0.148358 0.459317 0.692232 0.132827
H11   H     H_    0.436308 0.408594 0.810520 0.198965
H12   H     H_    0.845817 0.464654 0.207820 0.153434
H13   H     H_    0.013379 0.148994 0.220359 0.158158
H14   H     H_    0.018565 0.279775 0.224433 0.133558
H15   H     H_    0.668747 0.491258 0.268357 0.229297
H16   H     H_    0.798426 0.498556 0.288805 0.211096
H17   H     H_    0.709888 0.470922 0.187913 0.223228
H18   H     H_    0.520041 0.756878 0.209396 0.157121
H19   H     H_    0.450265 0.923510 0.299063 0.198286
H20   H     H_    0.406747 0.974427 0.218289 0.134211
H21   H     H_    0.255823 0.036256 0.223336 0.168417
H22   H     H_    0.218250 0.769173 0.278396 0.178777
H23   H     H_    0.162957 0.919144 0.285159 0.217307
H24   H     H_    0.227132 0.767840 0.193540 0.202535
I1    I     I_    0.859302 0.057585 0.182493 -0.250428
I2    I     I_    0.722768 0.139768 0.297231 -0.198477
I3    I     I_    0.026877 0.351161 0.328145 -0.277299
I4    I     I_    0.479933 0.478840 0.721082 -0.403739
I5    I     I_    0.046927 0.462970 0.780581 -0.342560
O1    O     O_R   0.700490 0.499650 0.456540 -0.487539
O2    O     O_R   0.362200 0.173970 0.055450 -0.485351
O3    O     O_R   0.326660 0.983110 0.039170 -0.494392
O4    O     O_R   0.479270 0.682700 0.457880 -0.482495
O5    O     O_R   0.165170 0.960730 0.925500 -0.485689
O6    O     O_R   0.978790 0.179600 0.932440 -0.496434
O7    O     O_R   0.960680 0.356080 0.937360 -0.484054
O8    O     O_R   0.182750 0.328100 0.950670 -0.477980
O9    O     O_R   0.356720 0.175530 0.946790 -0.505473
O10   O     O_R   0.321590 0.984560 0.938450 -0.496857
O11   O     O_3   0.163570 0.163330 0.990860 -0.281029
O12   O     O_R   0.339040 0.474950 0.540330 -0.490460
O13   O     O_R   0.304400 0.696100 0.445190 -0.494942
O14   O     O_R   0.337880 0.472540 0.439600 -0.489082
O15   O     O_R   0.493250 0.300300 0.435260 -0.486583
O16   O     O_R   0.681040 0.341130 0.451400 -0.488732
O17   O     O_R   0.701750 0.502250 0.565200 -0.498078
O18   O     O_R   0.480430 0.685110 0.558610 -0.495022
O19   O     O_R   0.305650 0.698700 0.553850 -0.497176
O20   O     O_R   0.494500 0.302900 0.543920 -0.499513
O21   O     O_R   0.682200 0.343540 0.552130 -0.491618
O22   O     O_3   0.500010 0.500010 0.500010 -0.275927
O23   O     O_R   0.170650 0.959160 0.034150 -0.493122
O24   O     O_R   0.983870 0.178140 0.033160 -0.490724
O25   O     O_R   0.966160 0.354510 0.046020 -0.502713
O26   O     O_R   0.187830 0.326650 0.051390 -0.497815

loop_
_geom_bond_atom_site_label_1
_geom_bond_atom_site_label_2
_ccdc_geom_bond_type
C48   C49   S    
C15   C22   S    
Cr2   O14   S    
C58   O6    A    
C5    H12   S    
Cr5   O7    S    
Cr1   O1    S    
C46   C52   S    
C54   O25   A    
C40   O20   A    
C18   C21   S    
C13   H20   S    
C19   C20   S    
C59   O8    A    
C6    H16   S    
C1    C24   S    
C1    O4    A    
Cr1   O4    S    
C31   C32   S    
C29   C59   S    
C1    O13   A    
Cr1   O17   S    
C13   C18   S    
C51   C53   T    
C8    C9    T    
Cr6   O10   S    
C49   C50   T    
Br3   C11   S    
C27   H7    S    
C30   C35   S    
C26   H6    S    
C14   C57   S    
C54   O24   A    
Cr3   O22   S    
C64   H13   S    
C61   C62   T    
C59   O9    A    
Cr6   O11   S    
C23   C34   T    
C25   C31   S    
C2    C3    S    
Cr2   O19   S    
Cr2   O22   S    
C33   I5    S    
C3    C64   S    
C33   C35   S    
C11   C15   S    
C31   H3    S    
Br2   C10   S    
C58   O7    A    
C2    C45   S    
Cr4   O5    S    
C60   O10   A    
C43   C44   S    
C38   C40   S    
C16   O1    A    
C39   C41   T    
C10   C17   S    
C27   C32   S    
Cr3   O16   S    
Br1   C2    S    
C17   C18   S    
C39   C58   S    
C45   C66   S    
C3    C7    S    
C32   C33   S    
C57   O3    A    
C32   C36   S    
C47   C60   S    
C56   C66   S    
C18   C19   S    
C20   H22   S    
C26   C30   S    
C17   H18   S    
C26   H5    S    
C28   C53   S    
C44   C46   T    
Cr4   O24   S    
C28   O18   A    
C19   H24   S    
Cr3   O21   S    
C13   H21   S    
C57   O23   A    
C26   C27   S    
C29   C36   T    
C25   C30   S    
C56   I3    S    
C28   O19   A    
Cr5   O26   S    
Br7   C56   S    
C3    C5    S    
Cr4   O23   S    
Br4   C10   S    
C54   C65   S    
C40   O12   A    
C8    C66   S    
C14   C21   T    
C56   C64   S    
C45   I2    S    
C9    C16   S    
C15   C20   S    
Cr1   O22   S    
Cr3   O20   S    
Br6   C33   S    
C19   H2    S    
C4    O14   A    
C35   H9    S    
Cr4   O6    S    
C37   C38   T    
C4    O15   A    
C25   H4    S    
C47   C48   T    
C52   O21   A    
Cr6   O2    S    
Cr2   O13   S    
Cr3   O15   S    
C7    C65   T    
Cr5   O8    S    
Cr2   O12   S    
C6    C66   S    
Cr4   O11   S    
C16   O16   A    
C64   H14   S    
C55   C61   S    
C52   O17   A    
C31   H11   S    
C20   H23   S    
C10   C15   S    
Cr6   O3    S    
C6    H15   S    
C35   H10   S    
C55   O26   A    
C30   C37   S    
Cr5   O11   S    
C60   O5    A    
C22   C24   T    
C25   I4    S    
C50   C51   S    
Cr1   O18   S    
Br5   C17   S    
C55   O2    A    
C2    I1    S    
C41   C42   S    
Cr6   O9    S    
C4    C34   S    
C11   C13   S    
C27   H8    S    
C62   C63   S    
Cr5   O25   S    
C5    C6    S    
C42   C43   T    
C5    H17   S    
C12   C63   T    
C11   H19   S    
C45   H1    S    
C12   C23   S    
