data_mof_unit_11519.cif
_audit_creation_date              2012-12-11T16:37:14-0500
_audit_creation_method            fapswitch 2.2
_symmetry_space_group_name_H-M    P1
_symmetry_Int_Tables_number       1
_space_group_crystal_system       triclinic
_cell_length_a                    19.586024
_cell_length_b                    6.974161
_cell_length_c                    17.663349
_cell_angle_alpha                 90.000041
_cell_angle_beta                  108.983863
_cell_angle_gamma                 89.999916
_cell_volume                      2281.51571375

loop_
_atom_site_label
_atom_site_type_symbol
_atom_type_description
_atom_site_fract_x
_atom_site_fract_y
_atom_site_fract_z
_atom_type_partial_charge
O1    O     O_R   0.561710 0.369960 0.440200 -0.536200
O2    O     O_R   0.061710 0.630040 0.940200 -0.536202
O3    O     O_R   0.412630 0.033330 0.406330 -0.541421
O4    O     O_R   0.912630 0.966670 0.906330 -0.541419
O5    O     O_R   0.438290 0.869790 0.559800 -0.538902
O6    O     O_R   0.938290 0.130210 0.059800 -0.538902
C1    C     C_R   0.385037 0.203534 0.383066 0.696031
C2    C     C_R   0.885038 0.796466 0.883066 0.696030
O7    O     O_R   0.559570 0.039810 0.430640 -0.543832
O8    O     O_R   0.059570 0.960190 0.930640 -0.543832
O9    O     O_R   0.586280 0.876320 0.584290 -0.539217
O10   O     O_R   0.086280 0.123680 0.084290 -0.539217
C3    C     C_R   0.579865 0.209676 0.414181 0.694054
C4    C     C_R   0.079865 0.790323 0.914181 0.694054
O11   O     O_R   0.413720 0.363440 0.415710 -0.538458
O12   O     O_R   0.913720 0.636560 0.915710 -0.538460
O13   O     O_3   0.508590 0.205630 0.550380 -0.367014
O14   O     O_3   0.008590 0.794370 0.050380 -0.367014
V1    V     V_3+5 0.498410 0.928130 0.490650 1.382248
V2    V     V_3+5 0.998410 0.071870 0.990650 1.382250
O15   O     O_R   0.587370 0.546990 0.593670 -0.538306
O16   O     O_R   0.087370 0.453010 0.093670 -0.538306
C5    C     C_R   0.615291 0.716852 0.616565 0.696666
C6    C     C_R   0.115291 0.283148 0.116566 0.696663
O17   O     O_R   0.440430 0.540520 0.569360 -0.541909
O18   O     O_R   0.940430 0.459480 0.069360 -0.541908
C7    C     C_R   0.419300 0.709543 0.584791 0.690208
C8    C     C_R   0.919300 0.290457 0.084791 0.690207
V3    V     V_3+5 0.501590 0.428960 0.509350 1.387604
V4    V     V_3+5 0.001590 0.571040 0.009350 1.387602
O19   O     O_3   0.491410 0.701330 0.449620 -0.374955
O20   O     O_3   0.991410 0.298670 0.949620 -0.374951
C9    C     C_R   0.294237 0.912028 0.690981 -0.144183
C10   C     C_R   0.794241 0.087969 0.190986 -0.144182
H1    H     H_    0.270258 0.049551 0.695624 0.101067
H2    H     H_    0.770268 0.950442 0.195637 0.101066
C11   C     C_R   0.340405 0.899066 0.645063 -0.160663
C12   C     C_R   0.840410 0.100931 0.145070 -0.160662
H3    H     H_    0.351191 0.027909 0.616652 0.122274
H4    H     H_    0.851203 0.972083 0.116666 0.122274
C13   C     C_R   0.371163 0.722271 0.634857 -0.054380
C14   C     C_R   0.871161 0.277730 0.134856 -0.054382
C15   C     C_R   0.355174 0.559241 0.672770 -0.165847
C16   C     C_R   0.855162 0.440766 0.172759 -0.165843
H5    H     H_    0.378208 0.421119 0.666869 0.121789
H6    H     H_    0.878190 0.578892 0.166851 0.121786
C17   C     C_R   0.309382 0.572496 0.719185 -0.143683
C18   C     C_R   0.809368 0.427513 0.219170 -0.143682
H7    H     H_    0.299170 0.444175 0.748294 0.099531
H8    H     H_    0.799147 0.555837 0.248271 0.099531
C19   C     C_R   0.277691 0.748778 0.728391 0.100895
C20   C     C_R   0.777685 0.251224 0.228385 0.100893
C21   C     C_R   0.178097 0.609472 0.771910 -0.138169
C22   C     C_R   0.678078 0.390504 0.271889 -0.138167
H9    H     H_    0.177625 0.486660 0.734199 0.107342
H10   H     H_    0.677595 0.513299 0.234166 0.107348
C23   C     C_R   0.129435 0.615236 0.815447 0.149986
C24   C     C_R   0.629417 0.384734 0.315426 0.149992
C25   C     C_R   0.128209 0.777973 0.863820 -0.063289
C26   C     C_R   0.628207 0.222022 0.363818 -0.063284
C27   C     C_R   0.175397 0.931052 0.864964 -0.205269
C28   C     C_R   0.675409 0.068964 0.364978 -0.205258
H11   H     H_    0.176080 0.056894 0.901144 0.127664
H12   H     H_    0.676104 0.943139 0.401172 0.127655
C29   C     C_R   0.223757 0.922420 0.821482 -0.146501
C30   C     C_R   0.723767 0.077598 0.321493 -0.146495
H13   H     H_    0.260257 0.041498 0.825634 0.112230
H14   H     H_    0.760277 0.958538 0.325656 0.112233
C31   C     C_R   0.226178 0.760648 0.774919 0.048313
C32   C     C_R   0.726173 0.239352 0.274914 0.048304
C33   C     C_R   0.775294 0.608670 0.803222 0.097445
C34   C     C_R   0.275293 0.391329 0.303223 0.097447
C35   C     C_R   0.815241 0.779560 0.816462 -0.105538
C36   C     C_R   0.315240 0.220441 0.316462 -0.105544
C37   C     C_R   0.787953 0.928473 0.762224 -0.211476
C38   C     C_R   0.287953 0.071527 0.262225 -0.211479
H15   H     H_    0.819852 0.054352 0.766696 0.153909
H16   H     H_    0.319852 0.945649 0.266697 0.153913
C39   C     C_R   0.723006 0.908426 0.698044 -0.174864
C40   C     C_R   0.223006 0.091573 0.198044 -0.174861
H17   H     H_    0.706151 0.024245 0.655335 0.133854
H18   H     H_    0.206152 0.975754 0.155335 0.133854
C41   C     C_R   0.682725 0.736653 0.685952 -0.094191
C42   C     C_R   0.182724 0.263346 0.185952 -0.094189
C43   C     C_R   0.709194 0.589402 0.741316 0.062635
C44   C     C_R   0.209193 0.410597 0.241317 0.062635
C45   C     C_3   0.725500 0.390191 0.723154 -0.423228
C46   C     C_3   0.225498 0.609808 0.223155 -0.423225
C47   C     C_3   0.799033 0.413900 0.786585 -0.017456
C48   C     C_3   0.299030 0.586103 0.286588 -0.017456
H19   H     H_    0.726563 0.373729 0.660863 0.176353
H20   H     H_    0.226562 0.626271 0.160864 0.176352
H21   H     H_    0.690238 0.286214 0.740508 0.158136
H22   H     H_    0.190234 0.713784 0.240508 0.158136
H23   H     H_    0.808156 0.316349 0.838739 0.140308
H24   H     H_    0.308151 0.683653 0.338742 0.140304
C49   C     C_3   0.861184 0.418701 0.750907 -0.742831
H25   H     H_    0.913397 0.415177 0.800017 0.225134
H26   H     H_    0.859139 0.293379 0.711658 0.192804
H27   H     H_    0.858821 0.549119 0.713973 0.212239
C50   C     C_3   0.361184 0.581310 0.250913 -0.742827
H28   H     H_    0.413395 0.584880 0.300025 0.225144
H29   H     H_    0.358833 0.450876 0.213991 0.212235
H30   H     H_    0.359129 0.706615 0.211652 0.192803
C51   C     C_3   0.078122 0.449145 0.806202 -0.754286
H31   H     H_    0.081461 0.346736 0.759359 0.193640
H32   H     H_    0.091091 0.367782 0.863095 0.224908
H33   H     H_    0.022042 0.503910 0.788062 0.196797
C52   C     C_3   0.578083 0.550782 0.306161 -0.754323
H34   H     H_    0.581403 0.653153 0.259295 0.193650
H35   H     H_    0.522012 0.495966 0.288039 0.196792
H36   H     H_    0.591048 0.632197 0.363040 0.224921

loop_
_geom_bond_atom_site_label_1
_geom_bond_atom_site_label_2
_ccdc_geom_bond_type
C30   H14   S    
C50   H28   S    
C45   H19   S    
C24   C52   S    
C35   C37   A    
C23   C51   S    
O4    C2    A    
V1    O19   S    
C49   H25   S    
C17   H7    S    
C3    C26   S    
C4    C25   S    
C51   H32   S    
O9    V1    S    
C37   C39   A    
C36   C38   A    
C12   H4    S    
C38   H16   S    
C12   C14   A    
O3    C1    A    
C52   H35   S    
C22   C24   A    
C44   C46   S    
C23   C25   A    
C24   C26   A    
O13   V3    S    
C26   C28   A    
C8    C14   S    
C27   H11   S    
O7    C3    A    
C28   H12   S    
O13   V1    S    
O5    C7    A    
O7    V1    S    
O6    C8    A    
C46   H20   S    
O8    V2    S    
C29   H13   S    
C33   C47   S    
O3    V1    S    
O14   V4    S    
V4    O20   S    
C10   H2    S    
C40   C42   A    
C18   H8    S    
C21   C31   A    
C2    O12   A    
C33   C43   A    
C13   C15   A    
C14   C16   A    
C49   H26   S    
C16   H6    S    
O11   V3    S    
C1    C36   S    
C46   H22   S    
C21   H9    S    
O17   V3    S    
C51   H33   S    
C22   H10   S    
C25   C27   A    
C28   C30   A    
C43   C45   S    
C40   H18   S    
O8    C4    A    
C52   H36   S    
C39   H17   S    
C21   C23   A    
C17   C19   A    
C1    O11   A    
O15   V3    S    
C9    C11   A    
C9    C19   A    
C47   C49   S    
C47   H23   S    
C48   C50   S    
C34   C48   S    
C7    C13   S    
C22   C32   A    
O10   V2    S    
O1    V3    S    
C15   H5    S    
C5    C41   S    
C34   C36   A    
C41   C43   A    
C46   C48   S    
O18   V4    S    
C50   H30   S    
O15   C5    A    
O16   C6    A    
O1    C3    A    
C49   H27   S    
C33   C35   A    
V2    O20   S    
O16   V4    S    
C10   C12   A    
O18   C8    A    
C38   C40   A    
C42   C44   A    
C34   C44   A    
C48   H24   S    
O5    V1    S    
O17   C7    A    
O6    V2    S    
C51   H31   S    
O10   C6    A    
C10   C20   A    
C50   H29   S    
O2    V4    S    
C45   C47   S    
C6    C42   S    
C11   H3    S    
C52   H34   S    
C39   C41   A    
C30   C32   A    
C15   C17   A    
C29   C31   A    
C45   H21   S    
O9    C5    A    
C2    C35   S    
C9    H1    S    
O14   V2    S    
C11   C13   A    
O2    C4    A    
C20   C32   S    
O4    V2    S    
C27   C29   A    
C18   C20   A    
V3    O19   S    
C37   H15   S    
C19   C31   S    
O12   V4    S    
C16   C18   A    
