data_mof_unit_51849.cif
_audit_creation_date              2012-12-11T14:28:35-0500
_audit_creation_method            fapswitch 2.2
_symmetry_space_group_name_H-M    P1
_symmetry_Int_Tables_number       1
_space_group_crystal_system       triclinic
_cell_length_a                    10.94641
_cell_length_b                    19.28262
_cell_length_c                    18.488328
_cell_angle_alpha                 90.014694
_cell_angle_beta                  89.738361
_cell_angle_gamma                 89.465998
_cell_volume                      3902.22206847

loop_
_atom_site_label
_atom_site_type_symbol
_atom_type_description
_atom_site_fract_x
_atom_site_fract_y
_atom_site_fract_z
_atom_type_partial_charge
C1    C     C_R   0.318632 0.968446 0.645179 0.557759
C2    C     C_R   0.318544 0.966813 0.855580 0.560510
C3    C     C_R   0.320921 0.030067 0.353130 0.544206
C4    C     C_R   0.323522 0.029437 0.147488 0.539154
C5    C     C_R   0.820051 0.468845 0.645857 0.540502
C6    C     C_R   0.821613 0.467902 0.855241 0.548584
C7    C     C_R   0.819283 0.531153 0.353832 0.558038
C8    C     C_R   0.824175 0.528890 0.148143 0.545410
C9    C     C_3   0.181322 0.774611 0.464151 -0.151267
C10   C     C_3   0.156837 0.744710 0.038498 -0.118171
C11   C     C_3   0.164492 0.299769 0.528935 -0.096971
C12   C     C_3   0.164015 0.294570 0.974544 -0.115264
C13   C     C_3   0.716310 0.256157 0.450185 -0.153846
C14   C     C_3   0.664586 0.246316 0.039066 -0.129958
C15   C     C_3   0.688562 0.769104 0.534735 -0.144961
C16   C     C_3   0.658009 0.797807 0.975368 -0.114451
C17   C     C_3   0.067893 0.743800 0.430125 0.058172
C18   C     C_3   0.026732 0.728329 0.062708 0.058930
C19   C     C_3   0.091027 0.249539 0.575752 0.050314
C20   C     C_3   0.066308 0.256862 0.931233 0.058927
C21   C     C_3   0.584267 0.249962 0.426028 0.051412
C22   C     C_3   0.533861 0.233013 0.064111 0.058022
C23   C     C_3   0.563712 0.759612 0.568934 0.060674
C24   C     C_3   0.563444 0.758166 0.931839 0.058706
C25   C     C_R   0.331233 0.990138 0.421053 -0.037212
C26   C     C_R   0.342660 0.990017 0.079750 -0.033515
C27   C     C_R   0.319937 0.000249 0.572030 -0.033561
C28   C     C_R   0.322797 0.996819 0.928931 -0.035186
C29   C     C_R   0.822603 0.496300 0.424420 -0.035395
C30   C     C_R   0.847177 0.487072 0.082208 -0.027961
C31   C     C_R   0.827360 0.504213 0.575085 -0.041958
C32   C     C_R   0.837002 0.493897 0.930234 -0.034964
C33   C     C_R   0.558424 0.987729 0.428321 0.171695
C34   C     C_R   0.574046 0.004370 0.065673 0.147554
C35   C     C_R   0.536374 0.033199 0.573348 0.169302
C36   C     C_R   0.539345 0.030571 0.917674 0.181290
C37   C     C_R   0.042921 0.468090 0.422999 0.157506
C38   C     C_R   0.079106 0.494668 0.077112 0.142744
C39   C     C_R   0.054179 0.510967 0.569479 0.185089
C40   C     C_R   0.070438 0.498943 0.925978 0.171375
C41   C     C_R   0.660880 0.008307 0.467827 -0.146983
C42   C     C_R   0.672624 0.016382 0.019371 -0.159560
C43   C     C_R   0.649729 0.031293 0.538920 -0.138505
C44   C     C_R   0.656147 0.027779 0.946435 -0.137928
C45   C     C_R   0.152198 0.465297 0.461324 -0.149854
C46   C     C_R   0.184136 0.498432 0.035453 -0.155726
C47   C     C_R   0.158258 0.487644 0.532614 -0.142865
C48   C     C_R   0.179660 0.493659 0.962177 -0.151227
C49   C     C_R   0.432674 0.008340 0.536263 -0.012063
C50   C     C_R   0.438078 0.008033 0.960637 -0.014017
C51   C     C_R   0.440864 0.994198 0.461093 -0.011123
C52   C     C_R   0.451915 0.999697 0.036981 -0.017823
C53   C     C_R   0.938709 0.502592 0.535760 -0.010632
C54   C     C_R   0.955631 0.494536 0.964709 -0.005419
C55   C     C_R   0.934882 0.489565 0.460116 -0.021821
C56   C     C_R   0.960553 0.491857 0.042776 -0.018776
C57   C     C_R   0.211277 0.996109 0.530337 -0.007742
C58   C     C_R   0.217636 0.989421 0.973262 -0.009064
C59   C     C_R   0.220654 0.978136 0.457258 -0.001831
C60   C     C_R   0.233096 0.971823 0.045838 -0.008544
C61   C     C_R   0.716482 0.512744 0.537924 -0.004755
C62   C     C_R   0.730919 0.491643 0.974047 -0.009680
C63   C     C_R   0.712670 0.495963 0.464721 -0.002453
C64   C     C_R   0.741285 0.470078 0.045665 -0.013499
C65   C     C_R   0.092778 0.007306 0.559511 -0.088638
C66   C     C_R   0.096683 0.996824 0.947077 -0.084490
C67   C     C_R   0.115993 0.955177 0.420034 -0.075405
C68   C     C_R   0.132308 0.946245 0.085794 -0.073545
C69   C     C_R   0.607057 0.532118 0.573434 -0.075373
C70   C     C_R   0.613327 0.509221 0.948843 -0.085102
C71   C     C_R   0.597992 0.481920 0.433273 -0.073071
C72   C     C_R   0.637012 0.447175 0.083503 -0.076685
C73   C     C_R   0.989226 0.988525 0.520812 -0.142885
C74   C     C_R   0.997144 0.975823 0.988302 -0.136625
C75   C     C_R   0.001001 0.960483 0.451789 -0.129673
C76   C     C_R   0.014823 0.949701 0.057520 -0.117822
C77   C     C_R   0.495029 0.523516 0.539934 -0.125570
C78   C     C_R   0.511357 0.499272 0.992467 -0.124937
C79   C     C_R   0.490497 0.497913 0.469961 -0.124011
C80   C     C_R   0.521872 0.463602 0.057583 -0.105670
C81   C     C_R   0.133771 0.757980 0.643725 0.530700
C82   C     C_R   0.134551 0.757998 0.856486 0.534026
C83   C     C_R   0.138708 0.240109 0.358507 0.533221
C84   C     C_R   0.130316 0.242619 0.145125 0.523030
C85   C     C_R   0.683477 0.271202 0.636074 0.553465
C86   C     C_R   0.636692 0.258981 0.857263 0.542180
C87   C     C_R   0.637421 0.741269 0.357294 0.534706
C88   C     C_R   0.628943 0.743146 0.145676 0.519557
C89   C     C_R   0.539392 0.771056 0.644013 0.540292
C90   C     C_R   0.540829 0.770228 0.855830 0.536492
C91   C     C_R   0.543513 0.230865 0.354486 0.546621
C92   C     C_R   0.501162 0.214688 0.137128 0.559062
C93   C     C_R   0.049808 0.267194 0.648414 0.526733
C94   C     C_R   0.041708 0.269869 0.855506 0.535467
C95   C     C_R   0.042613 0.730469 0.354981 0.548701
C96   C     C_R   0.997454 0.712980 0.137373 0.562085
C97   C     C_3   0.983014 0.783656 0.481945 -0.116665
C98   C     C_3   0.973566 0.785648 0.014212 -0.112177
C99   C     C_3   0.144945 0.186056 0.536647 -0.135362
C100  C     C_3   0.089514 0.188497 0.970810 -0.125175
C101  C     C_3   0.543961 0.311474 0.473364 -0.109432
C102  C     C_3   0.484090 0.292436 0.017004 -0.110873
C103  C     C_3   0.539671 0.693920 0.525876 -0.115475
C104  C     C_3   0.589938 0.690613 0.971681 -0.123677
C105  C     C_3   0.097642 0.814161 0.517673 -0.117790
C106  C     C_3   0.104867 0.801657 0.988612 -0.113571
C107  C     C_3   0.218717 0.236609 0.488438 -0.120542
C108  C     C_3   0.187910 0.225964 0.015028 -0.110729
C109  C     C_3   0.677730 0.317827 0.499436 -0.140150
C110  C     C_3   0.615963 0.305040 0.990014 -0.120886
C111  C     C_3   0.666330 0.702623 0.490264 -0.106070
C112  C     C_3   0.685066 0.729854 0.016239 -0.108744
C113  C     C_3   0.100614 0.751768 0.568567 0.062350
C114  C     C_3   0.090203 0.747484 0.929152 0.054341
C115  C     C_3   0.110970 0.241063 0.435441 0.062963
C116  C     C_3   0.090334 0.247578 0.070676 0.058693
C117  C     C_3   0.649341 0.265949 0.559992 0.055915
C118  C     C_3   0.594956 0.251444 0.930536 0.060252
C119  C     C_3   0.604661 0.747767 0.432228 0.064647
C120  C     C_3   0.585723 0.749657 0.071683 0.056978
C121  C     C_3   0.987077 0.721315 0.534420 -0.148070
C122  C     C_3   0.960514 0.731558 0.952894 -0.161009
C123  C     C_3   0.038938 0.189251 0.481534 -0.107953
C124  C     C_3   0.992133 0.209097 0.028035 -0.117226
C125  C     C_3   0.516939 0.260164 0.535394 -0.123274
C126  C     C_3   0.464677 0.239660 0.955495 -0.156726
C127  C     C_3   0.479526 0.738444 0.466327 -0.148728
C128  C     C_3   0.490668 0.709192 0.028350 -0.115028
C129  C     C_3   0.070926 0.681271 0.481670 -0.097450
C130  C     C_3   0.012648 0.674347 0.003060 -0.138619
C131  C     C_3   0.985343 0.252194 0.522097 -0.130430
C132  C     C_3   0.967223 0.277567 0.986702 -0.113296
C133  C     C_3   0.555996 0.198651 0.486997 -0.104599
C134  C     C_3   0.513362 0.180491 0.004118 -0.125182
C135  C     C_3   0.501650 0.804776 0.511235 -0.111020
C136  C     C_3   0.462409 0.777053 0.986527 -0.114937
C137  C     C_3   0.185469 0.712098 0.516309 -0.096379
C138  C     C_3   0.143628 0.690492 0.978301 -0.101107
C139  C     C_3   0.057641 0.302854 0.475533 -0.128782
C140  C     C_3   0.065901 0.315133 0.030629 -0.127244
C141  C     C_3   0.688807 0.204701 0.511977 -0.100525
C142  C     C_3   0.645098 0.193152 0.978541 -0.088145
C143  C     C_3   0.627933 0.813921 0.475936 -0.111450
C144  C     C_3   0.558016 0.816805 0.030876 -0.133960
Cr1   Cr    Cr6+3 0.488160 0.884660 0.750000 1.035789
Cr2   Cr    Cr6+3 0.488160 0.115340 0.250000 1.018867
Cr3   Cr    Cr6+3 0.988160 0.384660 0.750000 1.008938
Cr4   Cr    Cr6+3 0.988160 0.615340 0.250000 1.007948
Cr5   Cr    Cr6+3 0.173480 0.883120 0.750000 0.997999
Cr6   Cr    Cr6+3 0.173480 0.116880 0.250000 1.004151
Cr7   Cr    Cr6+3 0.673480 0.383120 0.750000 0.999756
Cr8   Cr    Cr6+3 0.673480 0.616880 0.250000 1.004134
Cr9   Cr    Cr6+3 0.333410 0.727260 0.750000 0.972001
Cr10  Cr    Cr6+3 0.333410 0.272740 0.250000 0.968038
Cr11  Cr    Cr6+3 0.833410 0.227260 0.750000 0.976426
Cr12  Cr    Cr6+3 0.833410 0.772740 0.250000 0.967081
H1    H     H_    0.111595 0.866685 0.539083 0.163527
H2    H     H_    0.147674 0.852007 0.977056 0.142735
H3    H     H_    0.313054 0.228582 0.468740 0.118428
H4    H     H_    0.274575 0.201404 0.032013 0.110372
H5    H     H_    0.732152 0.365107 0.507928 0.118114
H6    H     H_    0.661065 0.354501 0.977377 0.139883
H7    H     H_    0.733651 0.660533 0.478910 0.123135
H8    H     H_    0.772070 0.705969 0.033596 0.114831
H9    H     H_    0.900713 0.992901 0.545853 0.105333
H10   H     H_    0.906977 0.978285 0.965290 0.101120
H11   H     H_    0.921797 0.942724 0.422678 0.099419
H12   H     H_    0.937741 0.932873 0.089614 0.101833
H13   H     H_    0.413008 0.539510 0.568005 0.090116
H14   H     H_    0.426103 0.520949 0.975851 0.092291
H15   H     H_    0.404763 0.492808 0.442762 0.098473
H16   H     H_    0.442977 0.451963 0.090413 0.092524
H17   H     H_    0.902091 0.814357 0.464761 0.130697
H18   H     H_    0.902668 0.823479 0.031703 0.121670
H19   H     H_    0.184322 0.140162 0.564185 0.102804
H20   H     H_    0.101959 0.137826 0.943623 0.106556
H21   H     H_    0.481502 0.353526 0.455382 0.121412
H22   H     H_    0.416889 0.332098 0.035470 0.124727
H23   H     H_    0.494209 0.651114 0.553563 0.123003
H24   H     H_    0.607408 0.641724 0.942988 0.104613
H25   H     H_    0.907856 0.700143 0.563552 0.088852
H26   H     H_    0.883217 0.726031 0.914742 0.104382
H27   H     H_    0.984845 0.145151 0.460766 0.129001
H28   H     H_    0.922311 0.174364 0.051744 0.111571
H29   H     H_    0.437161 0.263288 0.572530 0.107114
H30   H     H_    0.386325 0.239227 0.917791 0.097261
H31   H     H_    0.402374 0.721485 0.432484 0.110966
H32   H     H_    0.421977 0.673354 0.051430 0.112334
H33   H     H_    0.060463 0.626224 0.465650 0.145418
H34   H     H_    0.969894 0.623666 0.011798 0.120027
H35   H     H_    0.892442 0.262127 0.541667 0.120922
H36   H     H_    0.877265 0.300176 0.971952 0.113059
H37   H     H_    0.504893 0.149900 0.478802 0.126896
H38   H     H_    0.464742 0.132027 0.014789 0.115496
H39   H     H_    0.433617 0.846492 0.522615 0.118350
H40   H     H_    0.371175 0.797629 0.971248 0.113138
H41   H     H_    0.266701 0.680880 0.532080 0.132620
H42   H     H_    0.216387 0.652093 0.965396 0.124375
H43   H     H_    0.006979 0.346782 0.454056 0.135660
H44   H     H_    0.051626 0.364482 0.058947 0.134788
H45   H     H_    0.751421 0.162261 0.528525 0.122471
H46   H     H_    0.717292 0.155925 0.961924 0.135510
H47   H     H_    0.667827 0.862138 0.454155 0.142733
H48   H     H_    0.536363 0.868177 0.053116 0.125139
H49   H     H_    0.253971 0.800723 0.432680 0.092315
H50   H     H_    0.235263 0.750571 0.075763 0.115352
H51   H     H_    0.219763 0.343596 0.549074 0.128345
H52   H     H_    0.233849 0.329632 0.951383 0.120750
H53   H     H_    0.796022 0.254657 0.412851 0.106934
H54   H     H_    0.743517 0.249779 0.076260 0.114688
H55   H     H_    0.767446 0.785219 0.567787 0.114557
H56   H     H_    0.726800 0.833589 0.952287 0.122287
H57   H     H_    0.749869 0.008154 0.442582 0.100007
H58   H     H_    0.763305 0.020473 0.041736 0.107644
H59   H     H_    0.728997 0.049968 0.567131 0.096974
H60   H     H_    0.734434 0.040826 0.913279 0.096734
H61   H     H_    0.231992 0.442641 0.436015 0.105734
H62   H     H_    0.271360 0.503015 0.061344 0.107794
H63   H     H_    0.243978 0.484077 0.560533 0.098836
H64   H     H_    0.262568 0.491235 0.930820 0.098714
H65   H     H_    0.123285 0.934424 0.365685 0.120526
H66   H     H_    0.144054 0.926965 0.140408 0.122289
H67   H     H_    0.079255 0.030317 0.612373 0.132840
H68   H     H_    0.077278 0.020058 0.895107 0.131486
H69   H     H_    0.590914 0.459608 0.379707 0.127175
H70   H     H_    0.645090 0.424312 0.136861 0.120155
H71   H     H_    0.607980 0.554020 0.627412 0.122541
H72   H     H_    0.599962 0.534624 0.897285 0.123588
O1    O     O_R   0.575450 0.828820 0.667950 -0.519416
O2    O     O_R   0.575450 0.828820 0.832050 -0.520975
O3    O     O_R   0.575450 0.171180 0.332050 -0.510776
O4    O     O_R   0.575450 0.171180 0.167950 -0.529085
O5    O     O_R   0.075450 0.328820 0.667950 -0.518235
O6    O     O_R   0.075450 0.328820 0.832050 -0.529884
O7    O     O_R   0.075450 0.671180 0.332050 -0.522025
O8    O     O_R   0.075450 0.671180 0.167950 -0.535010
O9    O     O_R   0.416860 0.942890 0.674680 -0.461394
O10   O     O_R   0.416860 0.942890 0.825320 -0.458027
O11   O     O_R   0.416860 0.057110 0.325320 -0.461307
O12   O     O_R   0.416860 0.057110 0.174680 -0.479357
O13   O     O_R   0.916860 0.442890 0.674680 -0.460057
O14   O     O_R   0.916860 0.442890 0.825320 -0.464146
O15   O     O_R   0.916860 0.557110 0.325320 -0.462207
O16   O     O_R   0.916860 0.557110 0.174680 -0.493664
O17   O     O_R   0.213790 0.953680 0.668330 -0.544114
O18   O     O_R   0.213790 0.953680 0.831670 -0.544674
O19   O     O_R   0.213790 0.046320 0.331670 -0.525448
O20   O     O_R   0.213790 0.046320 0.168330 -0.520076
O21   O     O_R   0.713790 0.453680 0.668330 -0.535227
O22   O     O_R   0.713790 0.453680 0.831670 -0.535116
O23   O     O_R   0.713790 0.546320 0.331670 -0.536062
O24   O     O_R   0.713790 0.546320 0.168330 -0.515730
O25   O     O_R   0.121360 0.817890 0.672660 -0.508944
O26   O     O_R   0.121360 0.817890 0.827340 -0.502123
O27   O     O_R   0.121360 0.182110 0.327340 -0.504812
O28   O     O_R   0.121360 0.182110 0.172660 -0.499129
O29   O     O_R   0.621360 0.317890 0.672660 -0.504273
O30   O     O_R   0.621360 0.317890 0.827340 -0.504255
O31   O     O_R   0.621360 0.682110 0.327340 -0.499503
O32   O     O_R   0.621360 0.682110 0.172660 -0.498132
O33   O     O_R   0.206850 0.711370 0.665820 -0.543239
O34   O     O_R   0.206850 0.711370 0.834180 -0.558306
O35   O     O_R   0.206850 0.288630 0.334180 -0.536540
O36   O     O_R   0.206850 0.288630 0.165820 -0.563204
O37   O     O_R   0.706850 0.211370 0.665820 -0.543550
O38   O     O_R   0.706850 0.211370 0.834180 -0.535867
O39   O     O_R   0.706850 0.788630 0.334180 -0.550258
O40   O     O_R   0.706850 0.788630 0.165820 -0.559648
O41   O     O_R   0.457710 0.733190 0.672630 -0.518889
O42   O     O_R   0.457710 0.733190 0.827370 -0.512185
O43   O     O_R   0.457710 0.266810 0.327370 -0.513672
O44   O     O_R   0.457710 0.266810 0.172630 -0.514071
O45   O     O_R   0.957710 0.233190 0.672630 -0.526760
O46   O     O_R   0.957710 0.233190 0.827370 -0.511707
O47   O     O_R   0.957710 0.766810 0.327370 -0.509558
O48   O     O_R   0.957710 0.766810 0.172630 -0.512711
O49   O     O_3   0.331690 0.831680 0.750000 -0.260108
O50   O     O_3   0.331690 0.168320 0.250000 -0.274199
O51   O     O_3   0.831690 0.331680 0.750000 -0.275097
O52   O     O_3   0.831690 0.668320 0.250000 -0.275074
N1    N     N_2   0.576969 0.961039 0.356553 -0.481991
H73   H     H_    0.666238 0.959637 0.338515 0.228162
C145  C     C_3   0.502101 0.904326 0.330706 -0.284963
H74   H     H_    0.429672 0.924135 0.294388 0.145480
H75   H     H_    0.460772 0.874599 0.375800 0.127071
H76   H     H_    0.557024 0.868792 0.296812 0.155501
N2    N     N_2   0.603124 0.997831 0.140283 -0.480001
H77   H     H_    0.659151 0.037054 0.158045 0.261383
C146  C     C_3   0.648396 0.931064 0.162458 -0.285435
H78   H     H_    0.694710 0.935422 0.215427 0.126536
H79   H     H_    0.716445 0.910829 0.122759 0.154696
H80   H     H_    0.570321 0.895391 0.168896 0.158639
N3    N     N_2   0.525569 0.066164 0.642420 -0.483675
H81   H     H_    0.606385 0.073953 0.669614 0.254667
C147  C     C_3   0.439738 0.123942 0.647379 -0.291750
H82   H     H_    0.481930 0.168550 0.675334 0.165613
H83   H     H_    0.357746 0.108080 0.678061 0.126896
H84   H     H_    0.407999 0.141181 0.593463 0.126185
N4    N     N_2   0.525244 0.059660 0.846821 -0.477697
H85   H     H_    0.603701 0.066613 0.816640 0.248543
C148  C     C_3   0.431274 0.112084 0.835698 -0.285594
H86   H     H_    0.363962 0.092704 0.796439 0.144682
H87   H     H_    0.472007 0.160151 0.813872 0.141664
H88   H     H_    0.380685 0.124501 0.886092 0.124739
N5    N     N_2   0.044002 0.443021 0.349817 -0.482678
H89   H     H_    0.129292 0.435403 0.327467 0.246630
C149  C     C_3   0.952712 0.394450 0.324151 -0.294414
H90   H     H_    0.905902 0.416733 0.276267 0.156527
H91   H     H_    0.883225 0.381418 0.365575 0.115065
H92   H     H_    0.997034 0.345374 0.306844 0.137277
N6    N     N_2   0.098381 0.490371 0.153078 -0.488235
H93   H     H_    0.135917 0.535640 0.172430 0.277793
C150  C     C_3   0.167212 0.431236 0.178618 -0.290720
H94   H     H_    0.231493 0.446976 0.221802 0.098171
H95   H     H_    0.223625 0.407453 0.135078 0.165540
H96   H     H_    0.102068 0.393195 0.200741 0.185106
N7    N     N_2   0.069419 0.540227 0.640243 -0.482838
H97   H     H_    0.157130 0.541740 0.660252 0.229249
C151  C     C_3   0.985615 0.592599 0.668726 -0.284692
H98   H     H_    0.035213 0.639193 0.684959 0.148985
H99   H     H_    0.939302 0.572509 0.717798 0.161585
H100  H     H_    0.916051 0.609025 0.629522 0.117794
N8    N     N_2   0.083109 0.513051 0.850971 -0.490312
H101  H     H_    0.137046 0.476539 0.824748 0.259922
C152  C     C_3   0.122737 0.581533 0.834516 -0.296084
H102  H     H_    0.141315 0.586294 0.776215 0.145000
H103  H     H_    0.211050 0.591265 0.861558 0.155263
H104  H     H_    0.050283 0.619113 0.850639 0.169576

loop_
_geom_bond_atom_site_label_1
_geom_bond_atom_site_label_2
_ccdc_geom_bond_type
C6    C32   S    
Cr1   O2    S    
C7    C29   S    
C119  C143  S    
C120  C144  S    
C65   H67   S    
C110  C118  S    
C24   C104  S    
C148  H86   S    
C15   C111  S    
C11   H51   S    
C121  H25   S    
C16   C144  S    
C70   H72   S    
C21   C91   S    
C57   C59   A    
C8    O16   A    
C58   C60   A    
C62   C70   A    
C61   C63   A    
C62   C64   A    
Cr10  O35   S    
C144  H48   S    
C23   C103  S    
C49   C51   A    
C34   C42   A    
C84   O28   A    
Cr4   O15   S    
C50   C52   A    
C23   C89   S    
C97   C105  S    
C73   C75   A    
C87   C119  S    
C90   O42   A    
C42   C44   A    
C20   C132  S    
Cr10  O44   S    
C21   C133  S    
C33   N1    S    
C45   C47   A    
C112  H8    S    
C46   C48   A    
C115  C123  S    
C6    O22   A    
N8    H101  S    
C27   C57   A    
C87   O31   A    
C112  C120  S    
C19   C99   S    
C88   O40   A    
C36   N4    S    
C29   C55   A    
C30   C56   A    
C100  C124  S    
C68   H66   S    
C83   C115  S    
C41   H57   S    
C104  C128  S    
C16   H56   S    
C12   C20   S    
C13   C21   S    
C85   C117  S    
Cr11  O37   S    
C35   N3    S    
C137  H41   S    
C113  C137  S    
C36   C44   A    
C33   C51   A    
C80   H16   S    
C37   C45   A    
C130  C138  S    
C36   C50   A    
C39   C47   A    
C148  H88   S    
C40   C48   A    
C20   C94   S    
C44   H60   S    
C34   C52   A    
Cr1   O49   S    
C24   C90   S    
C136  H40   S    
C28   C58   A    
C98   C106  S    
C140  H44   S    
C121  C129  S    
C33   C41   A    
C1    O17   A    
C108  C116  S    
C10   C18   S    
C76   H12   S    
Cr12  O48   S    
C2    C28   S    
C32   C62   A    
C134  H38   S    
C129  C137  S    
C126  C134  S    
C7    O23   A    
C92   O4    A    
C84   O36   A    
C10   C138  S    
C81   O25   A    
C130  H34   S    
C143  H47   S    
C14   C142  S    
C81   O33   A    
Cr5   O18   S    
C37   N5    S    
C83   O35   A    
C71   C79   A    
C110  H6    S    
C147  H83   S    
Cr6   O20   S    
C74   C76   A    
C105  C113  S    
C124  H28   S    
C78   C80   A    
C150  H95   S    
Cr3   O13   S    
Cr5   O25   S    
C66   C74   A    
C78   H14   S    
C124  C132  S    
C125  H29   S    
C152  H103  S    
C97   C121  S    
C59   C67   A    
N5    C149  S    
C129  H33   S    
C35   C49   A    
C101  C125  S    
Cr5   O49   S    
C35   C43   A    
C132  H36   S    
C24   C136  S    
C135  C143  S    
C84   C116  S    
C145  H76   S    
C9    C137  S    
Cr11  O46   S    
Cr7   O22   S    
Cr2   O3    S    
C100  C108  S    
C13   H53   S    
C103  C127  S    
C73   H9    S    
C104  C112  S    
C1    O9    A    
C91   O3    A    
N8    C152  S    
C93   O45   A    
N3    H81   S    
C127  H31   S    
Cr12  O40   S    
Cr1   O10   S    
N2    C146  S    
C146  H78   S    
C15   C143  S    
C40   C54   A    
N6    C150  S    
C102  H22   S    
C10   C106  S    
C67   C75   A    
Cr3   O5    S    
Cr8   O24   S    
Cr7   O29   S    
C14   C110  S    
Cr1   O1    S    
C8    O24   A    
C102  C126  S    
C103  C111  S    
N1    C145  S    
C113  C121  S    
C149  H92   S    
C85   O29   A    
C14   C22   S    
C10   H50   S    
C72   C80   A    
Cr8   O31   S    
Cr6   O27   S    
C96   O48   A    
C114  C138  S    
C38   C46   A    
Cr10  O36   S    
C37   C55   A    
Cr3   O6    S    
C99   H19   S    
C133  H37   S    
C145  H74   S    
Cr4   O16   S    
C22   C92   S    
C90   O2    A    
C25   C59   A    
Cr2   O50   S    
C17   C97   S    
C45   H61   S    
C27   C49   A    
C87   O39   A    
C119  C127  S    
C29   C63   A    
C46   H62   S    
C30   C64   A    
C41   C43   A    
C31   C61   A    
Cr9   O42   S    
C151  H99   S    
C109  C117  S    
C11   C19   S    
C142  H46   S    
C127  C135  S    
Cr12  O52   S    
C128  C136  S    
C92   O44   A    
C145  H75   S    
C101  C109  S    
C146  H80   S    
C95   O47   A    
N1    H73   S    
Cr9   O49   S    
C79   H15   S    
N7    C151  S    
C11   C139  S    
C86   O30   A    
C116  C140  S    
C69   C77   A    
C105  H1    S    
C82   O34   A    
C12   C140  S    
C17   C95   S    
C13   C141  S    
C88   C120  S    
C19   C93   S    
C77   C79   A    
C72   H70   S    
C3    O19   A    
C32   C54   A    
C148  H87   S    
C123  H27   S    
C149  H90   S    
C5    O21   A    
C126  H30   S    
C97   H17   S    
C147  H82   S    
C131  C139  S    
C93   O5    A    
Cr4   O52   S    
C83   O27   A    
C117  C141  S    
N4    H85   S    
C134  C142  S    
C107  H3    S    
N2    H77   S    
C20   C100  S    
C3    C25   S    
C4    O12   A    
C86   C118  S    
C63   C71   A    
C22   C134  S    
C102  C110  S    
C68   C76   A    
Cr10  O43   S    
C74   H10   S    
C16   C112  S    
C12   C108  S    
C48   H64   S    
Cr5   O17   S    
C116  C124  S    
C123  C131  S    
C128  H32   S    
C94   O6    A    
C38   N6    S    
C57   C65   A    
C94   O46   A    
C4    C26   S    
C120  C128  S    
C100  H20   S    
C132  C140  S    
C99   C107  S    
Cr2   O12   S    
C133  C141  S    
C23   C135  S    
C8    C30   S    
Cr4   O7    S    
C2    O18   A    
C136  C144  S    
C150  H94   S    
C39   C53   A    
C103  H23   S    
C152  H102  S    
C39   N7    S    
Cr11  O38   S    
C101  H21   S    
C88   O32   A    
C135  H39   S    
C151  H98   S    
Cr2   O11   S    
C60   C68   A    
N5    H89   S    
C81   C113  S    
C82   O26   A    
C109  H5    S    
C9    C105  S    
C71   H69   S    
C3    O11   A    
N6    H93   S    
C70   C78   A    
C18   C96   S    
Cr11  O45   S    
C43   H59   S    
Cr7   O21   S    
Cr2   O4    S    
C106  C114  S    
C89   O41   A    
C12   H52   S    
C111  C119  S    
C141  H45   S    
C91   O43   A    
C98   H18   S    
C139  H43   S    
C65   C73   A    
C67   H65   S    
Cr7   O51   S    
C4    O20   A    
Cr12  O47   S    
C15   H55   S    
Cr8   O52   S    
C28   C50   A    
C58   C66   A    
Cr1   O9    S    
Cr11  O51   S    
C21   C101  S    
C15   C23   S    
C151  H100  S    
C13   C109  S    
C16   C24   S    
C95   O7    A    
C69   H71   S    
C147  H84   S    
C53   C55   A    
C19   C131  S    
Cr6   O19   S    
C54   C56   A    
C14   H54   S    
C17   C129  S    
C85   O37   A    
Cr10  O50   S    
C111  H7    S    
C82   C114  S    
C66   H68   S    
C2    O10   A    
C150  H96   S    
Cr3   O14   S    
Cr5   O26   S    
C106  H2    S    
C47   H63   S    
Cr4   O8    S    
C152  H104  S    
Cr6   O50   S    
C42   H58   S    
C26   C52   A    
Cr8   O32   S    
Cr6   O28   S    
C125  C133  S    
C34   N2    S    
C96   O8    A    
C38   C56   A    
C31   C53   A    
Cr9   O34   S    
N4    C148  S    
C107  C115  S    
C98   C122  S    
C138  H42   S    
C9    C17   S    
C11   C107  S    
Cr9   O33   S    
C99   C123  S    
C61   C69   A    
Cr9   O41   S    
C115  C139  S    
C118  C142  S    
C40   N8    S    
Cr3   O51   S    
C108  H4    S    
C131  H35   S    
C118  C126  S    
C25   C51   A    
C22   C102  S    
C5    O13   A    
C149  H91   S    
N3    C147  S    
C9    H49   S    
C104  H24   S    
Cr12  O39   S    
C26   C60   A    
C146  H79   S    
C64   C72   A    
N7    H97   S    
C18   C130  S    
C114  C122  S    
C122  H26   S    
C77   H13   S    
C7    O15   A    
C1    C27   S    
C86   O38   A    
C6    O14   A    
C75   H11   S    
C18   C98   S    
C89   O1    A    
C117  C125  S    
C122  C130  S    
Cr8   O23   S    
Cr7   O30   S    
C5    C31   S    
