data_mof_unit_56418.cif
_audit_creation_date              2013-03-05T16:43:45-0500
_audit_creation_method            fapswitch 2.2
_symmetry_space_group_name_H-M    P1
_symmetry_Int_Tables_number       1
_space_group_crystal_system       triclinic
_cell_length_a                    8.785403
_cell_length_b                    15.83409
_cell_length_c                    17.116744
_cell_angle_alpha                 96.235638
_cell_angle_beta                  91.261888
_cell_angle_gamma                 84.27069
_cell_volume                      2355.0288001

loop_
_atom_site_label
_atom_site_type_symbol
_atom_site_description
_atom_site_fract_x
_atom_site_fract_y
_atom_site_fract_z
_atom_type_partial_charge
O1    O     O_R   0.493000 0.421040 0.382520 -0.591726
O2    O     O_R   0.507000 0.578960 0.617480 -0.591848
O3    O     O_R   0.505640 0.563310 0.388930 -0.591410
O4    O     O_R   0.494360 0.436690 0.611070 -0.588850
C1    C     C_R   0.498282 0.489750 0.348595 0.838880
C2    C     C_R   0.500607 0.510347 0.651406 0.839652
O5    O     O_R   0.269980 0.445280 0.497530 -0.551256
O6    O     O_R   0.730020 0.554720 0.502470 -0.547721
O7    O     O_R   0.282610 0.587550 0.503940 -0.572670
O8    O     O_R   0.717390 0.412450 0.496060 -0.572725
C3    C     C_R   0.205829 0.521767 0.501099 0.837641
C4    C     C_R   0.794177 0.478231 0.498930 0.839940
Cu1   Cu    Cu3+1 0.492520 0.415770 0.496210 1.011236
Cu2   Cu    Cu3+1 0.507480 0.584230 0.503790 1.012470
C5    C     C_2   0.041961 0.531881 0.491908 0.037136
C6    C     C_2   0.958051 0.468112 0.508176 0.034753
C7    C     C_R   0.494123 0.484187 0.262521 -0.083926
C8    C     C_R   0.498280 0.516474 0.737472 -0.084941
C9    C     C_R   0.500372 0.557700 0.224755 -0.196884
C10   C     C_R   0.490996 0.443071 0.775266 -0.192897
C11   C     C_R   0.494781 0.552888 0.143402 -0.173552
C12   C     C_R   0.486710 0.448740 0.856599 -0.172495
C13   C     C_R   0.482143 0.474006 0.097614 0.279978
C14   C     C_R   0.489095 0.528492 0.902337 0.279093
C15   C     C_R   0.474253 0.399549 0.135432 0.312356
C16   C     C_R   0.495605 0.603054 0.864497 0.312839
C17   C     C_R   0.481532 0.405536 0.217704 -0.263396
C18   C     C_R   0.501210 0.595953 0.782253 -0.262535
N1    N     N_2   0.481360 0.466980 0.014198 -0.184389
N2    N     N_2   0.489479 0.535564 0.985751 -0.184772
H1    H     H_    0.488736 0.380941 0.742029 0.184887
H2    H     H_    0.509830 0.619221 0.258027 0.184169
H3    H     H_    0.482250 0.390194 0.883384 0.214194
H4    H     H_    0.501151 0.611289 0.116647 0.214289
H5    H     H_    0.475048 0.348646 0.246858 0.204687
H6    H     H_    0.505605 0.653013 0.753086 0.205295
N3    N     N_R   0.518730 0.710760 0.509500 -0.187706
N4    N     N_R   0.481270 0.289240 0.490500 -0.194414
C19   C     C_R   0.410514 0.742179 0.459098 0.048778
C20   C     C_R   0.592499 0.255229 0.538065 0.074340
C21   C     C_R   0.382966 0.829125 0.449270 0.001886
C22   C     C_R   0.613534 0.167862 0.546530 0.002917
C23   C     C_R   0.475765 0.887075 0.491427 0.380585
C24   C     C_R   0.514529 0.112903 0.506888 0.355328
C25   C     C_R   0.589615 0.853200 0.543350 -0.287351
C26   C     C_R   0.397450 0.149204 0.458435 -0.282386
C27   C     C_R   0.608552 0.764685 0.551884 0.081990
C28   C     C_R   0.383369 0.237902 0.450731 0.083411
N5    N     N_2   0.453701 0.975997 0.479069 -0.226229
N6    N     N_2   0.536442 0.023958 0.519438 -0.236410
H7    H     H_    0.667122 0.296878 0.570605 0.170269
H8    H     H_    0.341523 0.698375 0.425195 0.169787
H9    H     H_    0.663861 0.894483 0.577018 0.176262
H10   H     H_    0.316849 0.110237 0.427345 0.165069
H11   H     H_    0.694879 0.739722 0.591644 0.151591
H12   H     H_    0.293943 0.265190 0.413924 0.152228
N7    N     N_R   0.977099 0.604010 0.453487 0.120694
O9    O     O_R   0.003224 0.681015 0.481463 -0.367103
O10   O     O_R   0.911897 0.591851 0.384703 -0.355825
N8    N     N_R   0.022892 0.396009 0.546658 0.121168
O11   O     O_R   0.996194 0.319013 0.518947 -0.369998
O12   O     O_R   0.088517 0.408239 0.615327 -0.352896
N9    N     N_R   0.459417 0.317658 0.091465 0.141005
O13   O     O_R   0.396051 0.312135 0.021901 -0.318586
O14   O     O_R   0.498944 0.247603 0.123315 -0.323141
N10   N     N_R   0.496962 0.686098 0.908406 0.142298
O15   O     O_R   0.435858 0.702191 0.977657 -0.318078
O16   O     O_R   0.549425 0.748342 0.876780 -0.323729
C29   C     C_3   0.742705 0.134624 0.598443 -0.390589
C30   C     C_3   0.876430 0.090051 0.549348 -0.740786
H13   H     H_    0.840966 0.033679 0.511605 0.255254
H14   H     H_    0.920007 0.134952 0.511608 0.273128
H15   H     H_    0.970635 0.068064 0.588878 0.247772
H16   H     H_    0.785477 0.187788 0.638014 0.216274
H17   H     H_    0.701092 0.089802 0.636922 0.226338
C31   C     C_3   0.253137 0.850954 0.391645 -0.394195
C32   C     C_3   0.198714 0.944618 0.385716 -0.743801
H18   H     H_    0.168206 0.978174 0.444493 0.255982
H19   H     H_    0.286961 0.975879 0.357158 0.263048
H20   H     H_    0.094363 0.948636 0.347946 0.246188
H21   H     H_    0.287051 0.820958 0.332009 0.214399
H22   H     H_    0.151510 0.820448 0.408246 0.239734

loop_
_geom_bond_atom_site_label_1
_geom_bond_atom_site_label_2
_geom_bond_distance
_ccdc_geom_bond_type
N10   O16   1.301702 A    
N9    O14   1.301677 A    
C21   C23   1.416661 A    
C19   C21   1.401501 A    
C32   H18   1.110698 S    
O5    C3    1.279568 A    
O1    C1    1.292866 A    
C13   N1    1.419966 S    
C9    C11   1.386334 A    
C14   C16   1.413467 A    
C6    N8    1.441797 S    
N7    O10   1.301698 A    
C1    C7    1.466214 S    
C5    C6    1.363548 D    
N8    O12   1.301710 A    
C15   N9    1.442963 S    
O4    Cu1   1.957923 S    
C3    C5    1.439600 S    
C4    C6    1.439742 S    
C29   H17   1.111355 S    
C30   H13   1.110200 S    
N3    C27   1.361199 A    
N4    C28   1.362919 A    
C25   C27   1.417818 A    
C19   H8    1.079916 S    
C25   H9    1.082400 S    
Cu1   Cu2   2.672686 S    
C5    N7    1.441644 S    
O2    C2    1.292815 A    
C22   C24   1.403966 A    
C9    H2    1.083391 S    
C24   C26   1.422732 A    
C32   H19   1.109468 S    
C2    C8    1.466278 S    
C26   C28   1.417739 A    
C7    C17   1.402826 A    
C8    C18   1.402854 A    
C31   C32   1.525594 S    
O4    C2    1.294641 A    
C31   H22   1.112794 S    
C23   N5    1.439863 S    
C11   H4    1.082341 S    
C17   H5    1.082980 S    
C22   C29   1.514035 S    
N8    O11   1.301122 A    
C16   N10   1.442932 S    
O7    Cu2   1.971071 S    
N1    N2    1.246349 D    
C23   C25   1.426646 A    
O6    C4    1.279648 A    
C26   H10   1.079188 S    
C30   H15   1.110398 S    
C29   H16   1.112072 S    
O7    C3    1.292357 A    
Cu1   N4    2.007450 S    
O3    Cu2   1.957923 S    
O8    C4    1.292327 A    
C10   C12   1.386377 A    
C11   C13   1.413441 A    
C12   C14   1.413449 A    
O1    Cu1   1.956938 S    
C27   H11   1.081871 S    
C32   H20   1.110693 S    
C24   N6    1.440987 S    
C28   H12   1.081849 S    
C12   H3    1.082348 S    
O6    Cu2   1.964314 S    
O3    C1    1.294560 A    
O8    Cu1   1.971071 S    
C31   H21   1.111830 S    
C15   C17   1.401588 A    
C20   H7    1.079532 S    
C16   C18   1.401564 A    
N3    C19   1.363209 A    
C21   C31   1.529411 S    
N4    C20   1.364888 A    
N7    O9    1.301107 A    
C20   C22   1.400064 A    
C7    C9    1.397714 A    
N10   O15   1.301252 A    
C8    C10   1.397666 A    
C13   C15   1.413457 A    
C29   C30   1.527616 S    
O2    Cu2   1.956940 S    
C14   N2    1.419934 S    
N9    O13   1.301252 A    
O5    Cu1   1.964314 S    
C18   H6    1.082982 S    
N5    N6    1.247673 D    
C30   H14   1.111005 S    
Cu2   N3    2.007448 S    
C10   H1    1.083360 S    
