data_mof_unit_28144.cif
_audit_creation_date              2012-10-26T21:25:51-0400
_audit_creation_method            fapswitch 2.2
_symmetry_space_group_name_H-M    P1
_symmetry_Int_Tables_number       1
_space_group_crystal_system       triclinic
_cell_length_a                    10.896555
_cell_length_b                    10.910773
_cell_length_c                    12.707039
_cell_angle_alpha                 91.422898
_cell_angle_beta                  91.090647
_cell_angle_gamma                 90.282009
_cell_volume                      1509.97636119

loop_
_atom_site_label
_atom_site_type_symbol
_atom_type_description
_atom_site_fract_x
_atom_site_fract_y
_atom_site_fract_z
_atom_type_partial_charge
C1    C     C_R   0.261892 0.502495 0.502046 0.542300
C2    C     C_R   0.828940 0.653161 0.277118 -0.023480
C3    C     C_R   0.118197 0.519236 0.704538 0.051438
C4    C     C_R   0.883516 0.539243 0.296296 0.074859
C5    C     C_R   0.169398 0.631923 0.738780 -0.058369
C6    C     C_R   0.910556 0.460406 0.210642 -0.085273
C7    C     C_R   0.209731 0.648466 0.843025 -0.114364
C8    C     C_R   0.887821 0.496966 0.107573 -0.104987
C9    C     C_R   0.197357 0.553477 0.913857 -0.112156
C10   C     C_R   0.837781 0.612096 0.089197 -0.096859
C11   C     C_R   0.934782 0.503457 0.592386 -0.144094
C12   C     C_R   0.738045 0.503218 0.497760 0.540482
C13   C     C_R   0.065304 0.512028 0.407477 -0.130303
C14   C     C_R   0.871599 0.507226 0.495288 -0.012887
C15   C     C_R   0.128256 0.507251 0.504381 -0.011142
C16   C     C_R   0.501286 0.261952 0.502009 0.548102
C17   C     C_R   0.496946 0.738128 0.498155 0.533649
C18   C     C_R   0.938066 0.515407 0.401382 -0.034017
C19   C     C_R   0.061775 0.507185 0.598385 -0.040111
C20   C     C_2   0.460455 0.465610 0.032291 -0.179293
C21   C     C_2   0.540189 0.519729 0.967947 -0.192859
C22   C     C_1   0.526886 0.519022 0.852511 0.134391
C23   C     C_R   0.493626 0.871807 0.495946 -0.004796
C24   C     C_1   0.472894 0.474207 0.147567 0.146510
C25   C     C_R   0.637068 0.204737 0.851140 -0.003444
C26   C     C_R   0.320625 0.806537 0.162736 -0.008503
C27   C     C_R   0.626107 0.163949 0.745687 -0.065313
C28   C     C_R   0.354025 0.829690 0.268554 -0.040929
C29   C     C_R   0.513203 0.120270 0.705270 -0.017491
C30   C     C_R   0.467941 0.883034 0.295085 -0.020095
C31   C     C_R   0.410648 0.118582 0.770006 -0.101921
C32   C     C_R   0.549672 0.910996 0.215003 -0.082068
C33   C     C_R   0.421100 0.155752 0.876983 0.281533
C34   C     C_R   0.501926 0.128452 0.504665 -0.001186
C35   C     C_R   0.519613 0.886987 0.109073 0.273680
C36   C     C_R   0.534648 0.199049 0.916066 -0.066887
C37   C     C_R   0.403724 0.834329 0.083399 -0.132252
C38   C     C_R   0.499323 0.935800 0.593118 -0.155351
C39   C     C_R   0.493891 0.064792 0.407867 -0.146916
C40   C     C_2   0.755223 0.250980 0.895554 0.198853
C41   C     C_2   0.195287 0.763734 0.133913 0.193667
C42   C     C_3   0.246594 0.053533 0.934600 0.003225
C43   C     C_3   0.122721 0.085773 0.883966 -0.251474
C44   C     C_3   0.044999 0.971337 0.861057 -0.477963
C45   C     C_R   0.488588 0.937774 0.401713 -0.034868
C46   C     C_3   0.602054 0.858567 0.941446 0.003929
C47   C     C_3   0.727978 0.871795 0.891797 -0.273155
C48   C     C_3   0.745368 0.780548 0.800299 -0.471569
C49   C     C_R   0.504933 0.062819 0.598877 -0.030431
C50   C     C_R   0.147093 0.440933 0.880195 -0.096222
C51   C     C_R   0.806003 0.689090 0.173732 -0.087237
C52   C     C_R   0.107283 0.423707 0.775757 -0.072157
Cu1   Cu    Cu3+1 0.492140 0.492110 0.395880 0.994818
Cu2   Cu    Cu3+1 0.507860 0.507890 0.604120 0.985175
H1    H     H_    0.543156 0.227413 0.998155 0.131773
H2    H     H_    0.383865 0.413302 0.998730 0.162344
H3    H     H_    0.705396 0.163673 0.695474 0.155369
H4    H     H_    0.288429 0.814317 0.330005 0.157064
H5    H     H_    0.324008 0.086097 0.736799 0.102644
H6    H     H_    0.635265 0.957877 0.234850 0.122227
H7    H     H_    0.499748 0.886966 0.666330 0.125354
H8    H     H_    0.488091 0.114399 0.335031 0.150731
H9    H     H_    0.226664 0.566709 0.994976 0.120840
H10   H     H_    0.824150 0.641671 0.009296 0.101971
H11   H     H_    0.137651 0.367814 0.935448 0.137605
H12   H     H_    0.375974 0.819433 0.002110 0.061450
H13   H     H_    0.767897 0.778413 0.158964 0.127064
H14   H     H_    0.065742 0.337253 0.750696 0.142734
H15   H     H_    0.810502 0.716641 0.341734 0.101728
H16   H     H_    0.762296 0.278687 0.978058 0.103136
H17   H     H_    0.163248 0.766156 0.052726 0.092255
H18   H     H_    0.229443 0.021183 0.015211 0.156872
H19   H     H_    0.289845 0.974993 0.891714 0.101925
H20   H     H_    0.072222 0.148450 0.937895 0.185477
H21   H     H_    0.136840 0.133765 0.809176 0.167776
H22   H     H_    0.092514 0.908412 0.805399 0.135810
H23   H     H_    0.176004 0.707289 0.685212 0.098695
H24   H     H_    0.956320 0.998388 0.824398 0.174506
H25   H     H_    0.026842 0.922882 0.935052 0.143775
H26   H     H_    0.530160 0.890363 0.885305 0.134023
H27   H     H_    0.586944 0.760458 0.957070 0.128614
H28   H     H_    0.738709 0.966328 0.863145 0.178620
H29   H     H_    0.800759 0.856403 0.952386 0.171887
H30   H     H_    0.740267 0.685031 0.828092 0.154485
H31   H     H_    0.836923 0.794769 0.765546 0.145404
H32   H     H_    0.674119 0.793599 0.738311 0.171013
H33   H     H_    0.955239 0.373471 0.223678 0.103214
H34   H     H_    0.248645 0.735561 0.868928 0.075767
H35   H     H_    0.912818 0.437789 0.041918 0.121555
H36   H     H_    0.885236 0.501082 0.665569 0.162105
H37   H     H_    0.115668 0.517866 0.334960 0.180786
H38   H     H_    0.618411 0.567259 0.002852 0.119608
N1    N     N_1   0.480320 0.480250 0.239400 -0.184603
N2    N     N_1   0.519680 0.519750 0.760600 -0.186996
O1    O     O_R   0.313000 0.493330 0.412070 -0.503220
O2    O     O_2   0.125684 0.726835 0.200469 -0.526876
O3    O     O_3   0.321896 0.159635 0.944284 -0.584143
O4    O     O_3   0.600074 0.931335 0.034912 -0.580767
O5    O     O_R   0.687000 0.506670 0.587930 -0.505088
O6    O     O_R   0.326280 0.506660 0.587930 -0.488976
O7    O     O_R   0.673720 0.493340 0.412070 -0.496472
O8    O     O_R   0.493370 0.312980 0.412070 -0.507624
O9    O     O_R   0.506630 0.687020 0.587930 -0.521307
O10   O     O_R   0.506650 0.326310 0.587930 -0.484407
O11   O     O_R   0.493350 0.673690 0.412070 -0.495431
O12   O     O_2   0.845742 0.258877 0.840919 -0.566489

loop_
_geom_bond_atom_site_label_1
_geom_bond_atom_site_label_2
_ccdc_geom_bond_type
C30   C32   A    
C23   C45   A    
Cu1   O1    S    
C14   C18   A    
C30   C45   S    
C20   H2    S    
C38   C49   A    
C29   C49   S    
Cu1   Cu2   S    
C15   C19   A    
C11   C19   A    
C17   C23   S    
C40   H16   S    
C13   C18   A    
Cu2   O10   S    
C35   C37   A    
C25   C40   S    
C11   C14   A    
C41   O2    D    
C27   C29   A    
C33   C36   A    
C47   H28   S    
C31   H5    S    
C44   H22   S    
C12   O5    A    
C16   C34   S    
C16   O10   A    
C7    H34   S    
Cu1   O7    S    
C34   C49   A    
C50   C52   A    
C31   C33   A    
C3    C19   S    
C1    C15   S    
C47   H29   S    
C35   O4    S    
C52   H14   S    
C41   H17   S    
C38   H7    S    
C4    C18   S    
C43   H20   S    
C46   O4    S    
C21   C22   S    
C13   H37   S    
C22   N2    T    
Cu2   O6    S    
C10   C51   A    
C1    O6    A    
C43   H21   S    
Cu1   N1    S    
C34   C39   A    
C32   C35   A    
C20   C24   S    
Cu2   O9    S    
C4    C6    A    
C27   H3    S    
C42   O3    S    
C5    C7    A    
C6    C8    A    
C6    H33   S    
C48   H30   S    
C2    C4    A    
C43   C44   S    
C17   O11   A    
C46   H27   S    
C47   C48   S    
Cu1   O8    S    
C1    O1    A    
C37   H12   S    
C42   H18   S    
C51   H13   S    
C16   O8    A    
C12   C14   S    
C13   C15   A    
C48   H32   S    
Cu2   O5    S    
C42   C43   S    
C32   H6    S    
C5    H23   S    
C2    H15   S    
C40   O12   D    
C7    C9    A    
C39   H8    S    
C46   C47   S    
C42   H19   S    
C9    H9    S    
C44   H25   S    
C10   H10   S    
C9    C50   A    
C3    C5    A    
C3    C52   A    
C26   C37   A    
C28   H4    S    
C25   C27   A    
C23   C38   A    
C26   C28   A    
C39   C45   A    
C44   H24   S    
C17   O9    A    
C12   O7    A    
C29   C31   A    
C36   H1    S    
C24   N1    T    
C46   H26   S    
C11   H36   S    
C28   C30   A    
C33   O3    S    
C50   H11   S    
Cu2   N2    S    
C2    C51   A    
C25   C36   A    
Cu1   O11   S    
C20   C21   D    
C8    C10   A    
C48   H31   S    
C8    H35   S    
C26   C41   S    
C21   H38   S    
