data_mof_unit_14585.cif
_audit_creation_date              2012-12-10T17:50:16-0500
_audit_creation_method            fapswitch 2.2
_symmetry_space_group_name_H-M    P1
_symmetry_Int_Tables_number       1
_space_group_crystal_system       triclinic
_cell_length_a                    10.612972
_cell_length_b                    14.711862
_cell_length_c                    14.702611
_cell_angle_alpha                 65.064501
_cell_angle_beta                  103.796631
_cell_angle_gamma                 103.532046
_cell_volume                      1998.2201434

loop_
_atom_site_label
_atom_site_type_symbol
_atom_type_description
_atom_site_fract_x
_atom_site_fract_y
_atom_site_fract_z
_atom_type_partial_charge
C1    C     C_R   0.478650 0.119561 0.312133 0.810491
C2    C     C_R   0.521339 0.880439 0.687867 0.810489
C3    C     C_R   0.480615 0.290336 0.177598 -0.248569
C4    C     C_R   0.519242 0.709660 0.822404 -0.248576
C5    C     C_R   0.486603 0.359804 0.077455 0.081582
C6    C     C_R   0.513166 0.640199 0.922540 0.081588
C7    C     C_R   0.470567 0.321189 0.000733 0.078576
C8    C     C_R   0.529195 0.678822 0.999255 0.078576
C9    C     C_R   0.504653 0.466452 0.051815 0.080710
C10   C     C_R   0.495066 0.533551 0.948181 0.080708
C11   C     C_R   0.464773 0.491759 0.873291 -0.234952
C12   C     C_R   0.534902 0.508246 0.126701 -0.234945
C13   C     C_R   0.455599 0.388629 0.899059 -0.183379
C14   C     C_R   0.544091 0.611378 0.100929 -0.183403
C15   C     C_R   0.720911 0.287191 0.666849 -0.298232
C16   C     C_R   0.279090 0.712810 0.333150 -0.298219
C17   C     C_R   0.685710 0.204781 0.637935 0.062240
C18   C     C_R   0.314290 0.795219 0.362064 0.062221
C19   C     C_R   0.517592 0.284582 0.509457 0.003479
C20   C     C_R   0.482408 0.715418 0.490542 0.003473
C21   C     C_R   0.548929 0.371489 0.534877 -0.025200
C22   C     C_R   0.451071 0.628511 0.465122 -0.025196
C23   C     C_R   0.259317 0.999460 0.500122 0.795206
C24   C     C_R   0.740683 0.000540 0.499878 0.795217
C25   C     C_R   0.652650 0.370390 0.616146 0.165345
C26   C     C_R   0.347351 0.629611 0.383852 0.165352
C27   C     C_R   0.481499 0.458302 0.483750 0.066918
C28   C     C_R   0.518501 0.541699 0.516248 0.066904
C29   C     C_R   0.621357 0.535301 0.598777 -0.243534
C30   C     C_R   0.378642 0.464699 0.401221 -0.243560
C31   C     C_R   0.687176 0.451761 0.646971 -0.165013
C32   C     C_R   0.312825 0.548240 0.353027 -0.165069
C33   C     C_3   0.005723 0.919532 0.482542 0.158599
C34   C     C_3   0.994277 0.080467 0.517460 0.158601
C35   C     C_3   0.928763 0.006394 0.408826 -0.199078
C36   C     C_3   0.071237 0.993604 0.591176 -0.199070
C37   C     C_3   0.877809 0.002013 0.500162 -0.040526
C38   C     C_3   0.122191 0.997986 0.499840 -0.040524
C39   C     C_3   0.952964 0.914562 0.573738 -0.212477
C40   C     C_3   0.047037 0.085437 0.426265 -0.212489
C41   C     C_R   0.471529 0.186662 0.204348 -0.085052
C42   C     C_R   0.528397 0.813341 0.795649 -0.085052
C43   C     C_R   0.462719 0.215300 0.027716 -0.016990
C44   C     C_R   0.537114 0.784719 0.972266 -0.016997
C45   C     C_R   0.462698 0.149290 0.129696 -0.229006
C46   C     C_R   0.537215 0.850724 0.870292 -0.229000
Cu1   Cu    Cu3+1 0.465750 0.918270 0.475680 0.927298
Cu2   Cu    Cu3+1 0.534250 0.081730 0.524320 0.927299
H1    H     H_    0.867905 0.011402 0.334567 0.144809
H2    H     H_    0.132096 0.988595 0.665435 0.144804
H3    H     H_    0.561286 0.722038 0.549885 0.118841
H4    H     H_    0.438714 0.277962 0.450114 0.118829
H5    H     H_    0.262394 0.859762 0.322289 0.128065
H6    H     H_    0.737606 0.140238 0.677712 0.128059
H7    H     H_    0.800584 0.285570 0.729071 0.151468
H8    H     H_    0.199418 0.714432 0.270927 0.151492
H9    H     H_    0.653833 0.593996 0.628339 0.128844
H10   H     H_    0.346166 0.406004 0.371659 0.128843
H11   H     H_    0.911739 0.844847 0.633741 0.130700
H12   H     H_    0.088262 0.155152 0.366262 0.130704
H13   H     H_    0.431082 0.362348 0.837623 0.182445
H14   H     H_    0.568578 0.637658 0.162364 0.182461
H15   H     H_    0.520599 0.685210 0.763324 0.148504
H16   H     H_    0.479280 0.314771 0.236694 0.148486
H17   H     H_    0.541112 0.931348 0.848772 0.185619
H18   H     H_    0.458855 0.068673 0.151211 0.185617
H19   H     H_    0.444494 0.536307 0.793096 0.144240
H20   H     H_    0.555133 0.463703 0.206901 0.144229
H21   H     H_    0.765965 0.450699 0.709667 0.149595
H22   H     H_    0.234036 0.549302 0.290331 0.149610
N1    N     N_R   0.585750 0.204560 0.560800 -0.176821
N2    N     N_R   0.414250 0.795440 0.439200 -0.176820
O1    O     O_R   0.454850 0.022100 0.338110 -0.585441
O2    O     O_R   0.545150 0.977900 0.661890 -0.585444
O3    O     O_R   0.512700 0.160150 0.379180 -0.590468
O4    O     O_R   0.487300 0.839850 0.620820 -0.590472
O5    O     O_R   0.287930 0.931000 0.479440 -0.594522
O6    O     O_R   0.712070 0.069000 0.520560 -0.594518
O7    O     O_R   0.345780 0.069050 0.520520 -0.585624
O8    O     O_R   0.654220 0.930950 0.479480 -0.585620
C47   C     C_3   0.010965 0.826548 0.462642 -0.386948
C48   C     C_3   0.873754 0.765663 0.450730 -0.348178
C49   C     C_3   0.879390 0.672574 0.431628 -0.825221
H23   H     H_    0.922414 0.695647 0.361825 0.251445
H24   H     H_    0.939571 0.620769 0.497292 0.253769
H25   H     H_    0.778622 0.631166 0.421371 0.252918
H26   H     H_    0.830171 0.740346 0.520739 0.214970
H27   H     H_    0.808839 0.814136 0.385867 0.231374
H28   H     H_    0.053528 0.852335 0.392135 0.199121
H29   H     H_    0.075813 0.777789 0.527237 0.207699
C50   C     C_3   0.989038 0.173453 0.537356 -0.386955
C51   C     C_3   0.126257 0.234310 0.549311 -0.348164
C52   C     C_3   0.120622 0.327425 0.568368 -0.825217
H30   H     H_    0.060528 0.379254 0.502654 0.253768
H31   H     H_    0.077502 0.304391 0.638119 0.251437
H32   H     H_    0.221401 0.368792 0.578693 0.252914
H33   H     H_    0.191122 0.185827 0.614212 0.231360
H34   H     H_    0.169897 0.259593 0.479334 0.214986
H35   H     H_    0.924224 0.222228 0.472745 0.207700
H36   H     H_    0.946438 0.147674 0.607845 0.199120
C53   C     C_2   0.460263 0.170907 0.953125 0.835718
O9    O     O_2   0.392560 0.089162 0.960593 -0.582487
O10   O     O_R   0.539631 0.219826 0.877333 -0.771803
H37   H     H_    0.529978 0.181372 0.832184 0.338972
C54   C     C_2   0.539579 0.829130 0.046844 0.835746
O11   O     O_2   0.607343 0.910849 0.039397 -0.582489
O12   O     O_R   0.460152 0.780257 0.122600 -0.771805
H38   H     H_    0.469824 0.818718 0.167745 0.338978

loop_
_geom_bond_atom_site_label_1
_geom_bond_atom_site_label_2
_ccdc_geom_bond_type
C25   C31   A    
C38   C40   S    
C26   C32   A    
C53   O9    D    
C40   H12   S    
C34   C37   S    
C19   N1    A    
C43   C53   S    
C47   C48   S    
C51   H34   S    
C3    H16   S    
C12   H20   S    
C4    H15   S    
C52   H30   S    
C34   C40   S    
Cu2   O7    S    
C28   C29   A    
C35   C37   S    
Cu1   O4    S    
C20   H3    S    
C15   C25   A    
C48   H26   S    
C14   H14   S    
C42   C46   A    
Cu2   O6    S    
C34   C50   S    
C18   H5    S    
C19   H4    S    
C24   O8    A    
C49   H23   S    
C36   H2    S    
C11   H19   S    
C35   H1    S    
O12   H38   S    
C7    C43   A    
C50   H36   S    
C9    C10   A    
C2    O2    A    
C47   H28   S    
C21   C27   A    
C53   O10   S    
C22   C28   A    
C27   C30   A    
C18   N2    A    
Cu2   O3    S    
Cu1   O8    S    
C44   C46   A    
C51   H33   S    
C16   C26   A    
C37   C39   S    
C29   H9    S    
C1    O3    A    
Cu2   O2    S    
Cu1   O1    S    
C46   H17   S    
C4    C6    A    
C50   C51   S    
C5    C7    A    
C32   H22   S    
C44   C54   S    
C15   H7    S    
C16   H8    S    
C5    C9    A    
C54   O12   S    
Cu1   Cu2   S    
C7    C13   A    
C39   H11   S    
C24   C37   S    
C16   C18   A    
C33   C39   S    
C23   O5    A    
C43   C45   A    
C47   H29   S    
C1    C41   S    
C49   H24   S    
C12   C14   A    
C17   N1    A    
C52   H32   S    
Cu1   O5    S    
Cu2   N1    S    
C45   H18   S    
C2    O4    A    
C24   O6    A    
C15   C17   A    
C21   C25   A    
C3    C41   A    
C8    C14   A    
C19   C21   A    
C36   C39   S    
C8    C44   A    
C20   C22   A    
C3    C5    A    
C6    C10   A    
C6    C8    A    
C23   O7    A    
C23   C38   S    
C54   O11   D    
C33   C38   S    
C1    O1    A    
C36   C38   S    
C35   C40   S    
C29   C31   A    
C30   C32   A    
C11   C13   A    
C4    C42   A    
C2    C42   S    
C48   H27   S    
C30   H10   S    
C51   C52   S    
C33   C35   S    
C34   C36   S    
C9    C12   A    
Cu1   N2    S    
C10   C11   A    
C31   H21   S    
C49   H25   S    
C13   H13   S    
C52   H31   S    
C48   C49   S    
C22   C26   A    
O10   H37   S    
C41   C45   A    
C20   N2    A    
C50   H35   S    
C33   C47   S    
C17   H6    S    
C27   C28   A    
