data_mof_unit_49092.cif
_audit_creation_date              2012-10-26T19:09:55-0400
_audit_creation_method            fapswitch 2.2
_symmetry_space_group_name_H-M    P1
_symmetry_Int_Tables_number       1
_space_group_crystal_system       triclinic
_cell_length_a                    15.800939
_cell_length_b                    15.880184
_cell_length_c                    10.215292
_cell_angle_alpha                 90.755308
_cell_angle_beta                  89.788142
_cell_angle_gamma                 89.95975
_cell_volume                      2562.99868423

loop_
_atom_site_label
_atom_site_type_symbol
_atom_type_description
_atom_site_fract_x
_atom_site_fract_y
_atom_site_fract_z
_atom_type_partial_charge
C1    C     C_R   0.118332 0.379205 0.500098 0.462276
C2    C     C_R   0.882654 0.619629 0.500225 0.571140
C3    C     C_R   0.379792 0.882749 0.499404 0.481098
C4    C     C_R   0.382874 0.119975 0.500581 0.581395
C5    C     C_3   0.824347 0.251023 0.611233 0.006954
C6    C     C_3   0.809487 0.257246 0.364821 0.013072
C7    C     C_3   0.817092 0.746285 0.624410 0.023450
C8    C     C_3   0.815975 0.741719 0.372879 -0.020229
C9    C     C_3   0.325426 0.751790 0.614200 0.005354
C10   C     C_3   0.306160 0.760236 0.368225 0.018597
C11   C     C_3   0.315292 0.245456 0.628705 0.015830
C12   C     C_R   0.117907 0.620799 0.500989 0.524375
C13   C     C_3   0.319242 0.244878 0.376851 -0.018149
C14   C     C_3   0.254625 0.682791 0.618011 -0.075743
C15   C     C_3   0.236702 0.691087 0.368915 -0.068458
C16   C     C_3   0.244415 0.314459 0.631502 -0.064584
C17   C     C_3   0.251800 0.316830 0.381576 -0.107130
C18   C     C_3   0.752632 0.183449 0.615822 -0.083155
C19   C     C_3   0.740580 0.187190 0.366090 -0.063448
C20   C     C_3   0.745459 0.814564 0.629389 -0.059413
C21   C     C_3   0.749013 0.814189 0.378945 -0.101907
C22   C     C_3   0.724149 0.352112 0.511644 -0.246647
C23   C     C_R   0.617745 0.878527 0.500077 0.463002
C24   C     C_3   0.726454 0.645332 0.497529 -0.216951
C25   C     C_3   0.222827 0.852892 0.521598 -0.250091
C26   C     C_3   0.226777 0.146805 0.494813 -0.214271
C27   C     C_3   0.812560 0.311219 0.495651 -0.012958
C28   C     C_3   0.813898 0.688385 0.499286 0.016042
C29   C     C_3   0.311244 0.812587 0.499600 -0.020847
C30   C     C_3   0.314480 0.189338 0.500868 0.021284
C31   C     C_3   0.187961 0.691721 0.502211 0.020776
C32   C     C_3   0.189782 0.308819 0.503229 0.000779
C33   C     C_3   0.688714 0.190931 0.496851 0.028387
C34   C     C_R   0.618142 0.120594 0.499940 0.524251
C35   C     C_3   0.688933 0.807617 0.502985 -0.003480
C36   C     C_3   0.149536 0.784815 0.520047 0.155041
C37   C     C_3   0.153438 0.213263 0.505560 0.150286
C38   C     C_3   0.650744 0.284945 0.503073 0.142519
C39   C     C_3   0.652972 0.711748 0.508515 0.151966
C40   C     C_3   0.950825 0.575355 0.085537 0.049356
C41   C     C_3   0.968168 0.584796 0.923423 0.056689
C42   C     C_3   0.957285 0.419712 0.076988 0.049436
C43   C     C_3   0.942968 0.431065 0.915008 0.050094
C44   C     C_3   0.446861 0.071588 0.083772 0.049252
C45   C     C_3   0.090496 0.504953 0.075425 0.321689
C46   C     C_3   0.465967 0.083207 0.924462 0.042746
C47   C     C_3   0.461834 0.917806 0.076223 0.065792
C48   C     C_3   0.446572 0.928331 0.913605 0.041931
C49   C     C_2   0.294142 0.598499 0.638978 0.192209
C50   C     C_2   0.266532 0.604701 0.325720 0.285368
C51   C     C_2   0.272306 0.401352 0.667404 0.258520
C52   C     C_2   0.293232 0.401050 0.361729 0.186019
C53   C     C_2   0.792296 0.099318 0.640546 0.188327
C54   C     C_2   0.770301 0.100324 0.326815 0.292180
C55   C     C_2   0.772454 0.901936 0.665066 0.276411
C56   C     C_3   0.089306 0.481314 0.916396 0.315848
C57   C     C_2   0.790831 0.898076 0.357364 0.186134
C58   C     C_2   0.968124 0.662009 0.145935 0.316318
C59   C     C_2   0.024587 0.663968 0.895599 0.334278
C60   C     C_2   0.003061 0.337015 0.109290 0.248594
C61   C     C_2   0.955923 0.346818 0.844366 0.264356
C62   C     C_2   0.457855 0.157842 0.148444 0.324217
C63   C     C_2   0.524898 0.158391 0.897544 0.352044
C64   C     C_2   0.513425 0.837763 0.106715 0.253005
C65   C     C_2   0.463450 0.845111 0.843986 0.220414
C66   C     C_2   0.856143 0.571648 0.130038 0.122439
C67   C     C_3   0.590569 0.007580 0.076505 0.307563
C68   C     C_2   0.885731 0.619486 0.867246 0.224219
C69   C     C_2   0.869952 0.391126 0.129852 0.201274
C70   C     C_2   0.847108 0.448524 0.888452 0.278699
C71   C     C_2   0.349187 0.058277 0.105234 0.162032
C72   C     C_2   0.383626 0.121511 0.870303 0.194973
C73   C     C_2   0.377651 0.886581 0.131937 0.314325
C74   C     C_2   0.353084 0.938419 0.868240 0.194763
C75   C     C_3   0.590281 0.987581 0.915571 0.300466
C76   C     C_R   0.880666 0.381838 0.498742 0.494222
Cu1   Cu    Cu3+1 0.000100 0.500000 0.642410 0.971555
Cu2   Cu    Cu3+1 0.000100 0.500000 0.357590 1.015504
Cu3   Cu    Cu3+1 0.500100 1.000000 0.642410 0.945299
Cu4   Cu    Cu3+1 0.500100 1.000000 0.357590 1.067687
H1    H     H_    0.817285 0.287504 0.702214 0.246979
H2    H     H_    0.191519 0.707530 0.291095 0.150016
H3    H     H_    0.203257 0.299887 0.716064 0.162788
H4    H     H_    0.211943 0.308649 0.293137 0.114346
H5    H     H_    0.714453 0.196598 0.705680 0.165258
H6    H     H_    0.697431 0.202209 0.285396 0.141490
H7    H     H_    0.705592 0.799675 0.715457 0.164158
H8    H     H_    0.708048 0.805738 0.291818 0.123207
H9    H     H_    0.721019 0.387286 0.605955 0.196520
H10   H     H_    0.716339 0.401405 0.436114 0.089321
H11   H     H_    0.723260 0.599346 0.578988 0.142930
H12   H     H_    0.787707 0.301410 0.290844 0.177301
H13   H     H_    0.719995 0.605567 0.407419 0.122222
H14   H     H_    0.223086 0.888612 0.616169 0.151445
H15   H     H_    0.212161 0.901456 0.445796 0.107624
H16   H     H_    0.222240 0.099778 0.574659 0.121595
H17   H     H_    0.220947 0.108333 0.403644 0.176398
H18   H     H_    0.924296 0.186682 0.697321 0.290507
H19   H     H_    0.954629 0.260063 0.590257 0.219603
H20   H     H_    0.933701 0.271381 0.322902 0.281959
H21   H     H_    0.912416 0.175992 0.381694 0.319836
H22   H     H_    0.909969 0.789548 0.750914 0.300802
H23   H     H_    0.799586 0.703365 0.702831 0.196639
H24   H     H_    0.912913 0.836719 0.608546 0.287550
H25   H     H_    0.901463 0.807972 0.258448 0.241572
H26   H     H_    0.930083 0.801945 0.415862 0.304786
H27   H     H_    0.425895 0.685870 0.694964 0.296340
H28   H     H_    0.455511 0.762202 0.592596 0.224756
H29   H     H_    0.431798 0.771335 0.329489 0.284701
H30   H     H_    0.407255 0.675897 0.381865 0.317994
H31   H     H_    0.403816 0.289055 0.761490 0.331644
H32   H     H_    0.411810 0.335128 0.618979 0.275974
H33   H     H_    0.408190 0.311399 0.267751 0.248650
H34   H     H_    0.796777 0.700135 0.290171 0.180354
H35   H     H_    0.433843 0.303480 0.427140 0.292425
H36   H     H_    0.290868 0.571855 0.734933 0.157750
H37   H     H_    0.246379 0.551113 0.380496 0.151511
H38   H     H_    0.248990 0.451966 0.609603 0.159149
H39   H     H_    0.282932 0.433193 0.272242 0.156210
H40   H     H_    0.791659 0.075581 0.738389 0.150231
H41   H     H_    0.746159 0.047605 0.379851 0.153769
H42   H     H_    0.745766 0.952628 0.610822 0.159126
H43   H     H_    0.783206 0.927851 0.265234 0.157064
H44   H     H_    0.080477 0.851621 0.659785 0.240248
H45   H     H_    0.319614 0.788953 0.706461 0.220492
H46   H     H_    0.052375 0.750717 0.639777 0.307797
H47   H     H_    0.058720 0.860977 0.439052 0.239491
H48   H     H_    0.121198 0.818444 0.327776 0.238279
H49   H     H_    0.076986 0.247339 0.663779 0.225106
H50   H     H_    0.069197 0.144299 0.619246 0.288688
H51   H     H_    0.047957 0.243191 0.407644 0.264643
H52   H     H_    0.123644 0.202528 0.308257 0.262799
H53   H     H_    0.578866 0.356706 0.631938 0.238815
H54   H     H_    0.543149 0.260615 0.597832 0.315881
H55   H     H_    0.564355 0.358995 0.405957 0.240106
H56   H     H_    0.284087 0.805937 0.296158 0.172653
H57   H     H_    0.634672 0.318072 0.306069 0.229862
H58   H     H_    0.577727 0.746547 0.666881 0.224087
H59   H     H_    0.570763 0.643108 0.625900 0.290156
H60   H     H_    0.546113 0.740055 0.412556 0.264175
H61   H     H_    0.621062 0.698758 0.312282 0.266059
H62   H     H_    0.930930 0.714159 0.110562 0.142787
H63   H     H_    0.005912 0.725723 0.931934 0.126766
H64   H     H_    0.995737 0.279831 0.052802 0.195840
H65   H     H_    0.000684 0.340357 0.766603 0.173409
H66   H     H_    0.415441 0.207857 0.121042 0.143276
H67   H     H_    0.295974 0.202249 0.706123 0.187265
H68   H     H_    0.555052 0.196180 0.972418 0.145716
H69   H     H_    0.519643 0.784292 0.041730 0.181797
H70   H     H_    0.507056 0.841153 0.765319 0.178002
H71   H     H_    0.837564 0.542081 0.217277 0.148180
H72   H     H_    0.842163 0.584436 0.808072 0.170379
H73   H     H_    0.832506 0.420789 0.202795 0.107842
H74   H     H_    0.808717 0.483567 0.955695 0.136444
H75   H     H_    0.306947 0.041057 0.027687 0.147839
H76   H     H_    0.339310 0.090855 0.809003 0.119790
H77   H     H_    0.336649 0.922377 0.194594 0.164897
H78   H     H_    0.301392 0.205502 0.291327 0.188539
H79   H     H_    0.338399 0.969277 0.779578 0.137215
H80   H     H_    0.140612 0.601412 0.182298 0.292038
H81   H     H_    0.181228 0.603413 0.043194 0.264351
H82   H     H_    0.212914 0.520443 0.892660 0.210215
H83   H     H_    0.160912 0.508487 0.756347 0.283332
H84   H     H_    0.153872 0.390068 0.116254 0.242569
H85   H     H_    0.212952 0.471503 0.108775 0.205135
H86   H     H_    0.184168 0.388234 0.901075 0.246902
H87   H     H_    0.096809 0.344368 0.938944 0.183825
H88   H     H_    0.641457 0.099977 0.188708 0.295980
H89   H     H_    0.219245 0.694341 0.710313 0.195738
H90   H     H_    0.679389 0.108979 0.051525 0.236036
H91   H     H_    0.662391 0.019166 0.759899 0.277118
H92   H     H_    0.708825 0.038401 0.893510 0.195870
H93   H     H_    0.654483 0.891764 0.116467 0.232523
H94   H     H_    0.713199 0.973849 0.106621 0.212125
H95   H     H_    0.606279 0.851604 0.930354 0.178551
H96   H     H_    0.691401 0.902427 0.901094 0.251603
N1    N     N_3   0.001260 0.500000 0.143650 -0.250778
N2    N     N_3   0.387102 0.725250 0.323398 -0.486914
N3    N     N_3   0.399904 0.277070 0.661226 -0.574634
N4    N     N_3   0.405985 0.272448 0.349424 -0.548471
N5    N     N_3   0.104347 0.790692 0.645441 -0.569387
N6    N     N_3   0.089483 0.804521 0.414659 -0.575198
N7    N     N_3   0.110503 0.195372 0.630205 -0.639737
N8    N     N_3   0.093947 0.197243 0.399201 -0.587888
N9    N     N_3   0.597889 0.293931 0.619682 -0.555971
N10   N     N_3   0.597810 0.303183 0.387578 -0.575543
N11   N     N_3   0.611621 0.694706 0.634580 -0.630412
N12   N     N_3   0.001260 0.500000 0.856350 -0.288721
N13   N     N_3   0.592378 0.694372 0.404127 -0.583814
N14   N     N_3   0.123144 0.592008 0.087671 -0.544774
N15   N     N_3   0.153732 0.531301 0.850680 -0.507196
N16   N     N_3   0.153501 0.452962 0.142829 -0.565943
N17   N     N_3   0.119079 0.393927 0.886277 -0.656542
N18   N     N_3   0.622014 0.094194 0.095285 -0.589137
N19   N     N_3   0.649246 0.045045 0.851060 -0.548932
N20   N     N_3   0.654108 0.954872 0.141763 -0.575604
N21   N     N_3   0.626637 0.903458 0.881674 -0.641057
N22   N     N_3   0.501260 1.000000 0.143650 -0.234857
N23   N     N_3   0.501260 1.000000 0.856350 -0.298187
N24   N     N_3   0.909814 0.214069 0.607806 -0.596201
N25   N     N_3   0.890787 0.223423 0.320737 -0.509589
N26   N     N_3   0.902604 0.778397 0.650914 -0.614569
N27   N     N_3   0.901779 0.769265 0.340378 -0.541702
N28   N     N_3   0.411031 0.715500 0.607409 -0.595807
O1    O     O_R   0.091250 0.408820 0.620260 -0.566800
O2    O     O_R   0.908940 0.408800 0.379740 -0.551763
O3    O     O_R   0.908940 0.591200 0.620260 -0.526395
O4    O     O_R   0.908940 0.591200 0.379740 -0.501750
O5    O     O_R   0.408940 0.908800 0.620260 -0.576180
O6    O     O_R   0.408940 0.908800 0.379740 -0.527173
O7    O     O_R   0.408940 0.091200 0.620260 -0.522184
O8    O     O_R   0.408940 0.091200 0.379740 -0.406333
O9    O     O_2   0.343550 0.567675 0.560186 -0.445737
O10   O     O_2   0.305416 0.593850 0.223224 -0.474395
O11   O     O_2   0.314026 0.415918 0.765553 -0.542408
O12   O     O_R   0.091250 0.408820 0.379740 -0.419186
O13   O     O_2   0.349098 0.427442 0.432869 -0.484176
O14   O     O_2   0.840908 0.066524 0.562426 -0.442224
O15   O     O_2   0.812239 0.088022 0.227636 -0.475875
O16   O     O_2   0.817249 0.916685 0.759836 -0.534186
O17   O     O_2   0.845264 0.925919 0.429823 -0.487030
O18   O     O_2   0.020342 0.678350 0.228311 -0.451235
O19   O     O_2   0.088246 0.665593 0.830797 -0.469623
O20   O     O_2   0.042290 0.326629 0.207802 -0.547452
O21   O     O_2   0.914377 0.284871 0.872518 -0.525068
O22   O     O_2   0.513358 0.175854 0.225046 -0.447600
O23   O     O_R   0.091250 0.591180 0.620260 -0.473582
O24   O     O_2   0.533097 0.184561 0.787981 -0.451938
O25   O     O_2   0.540054 0.823179 0.213676 -0.543682
O26   O     O_2   0.425461 0.781112 0.873759 -0.507583
O27   O     O_2   0.798525 0.612662 0.083575 -0.525299
O28   O     O_2   0.860524 0.689589 0.900354 -0.558239
O29   O     O_2   0.834902 0.329355 0.081660 -0.468154
O30   O     O_2   0.807062 0.420027 0.797019 -0.515933
O31   O     O_2   0.312487 0.067244 0.208873 -0.556115
O32   O     O_2   0.357729 0.188981 0.913643 -0.598471
O33   O     O_2   0.350268 0.817299 0.098839 -0.411360
O34   O     O_R   0.091250 0.591180 0.379740 -0.472457
O35   O     O_2   0.292671 0.901331 0.914757 -0.474835
O36   O     O_R   0.591250 0.908820 0.620260 -0.560189
O37   O     O_R   0.591250 0.908820 0.379740 -0.425554
O38   O     O_R   0.591250 0.091180 0.620260 -0.461469
O39   O     O_R   0.591250 0.091180 0.379740 -0.481882
O40   O     O_R   0.908940 0.408800 0.620260 -0.491319

loop_
_geom_bond_atom_site_label_1
_geom_bond_atom_site_label_2
_ccdc_geom_bond_type
C3    O5    A    
C45   N1    S    
H94   N20   S    
C5    N24   S    
C72   H76   S    
C49   O9    D    
C34   O38   A    
Cu2   N1    S    
C63   H68   S    
C16   C51   S    
C23   O37   A    
H96   N21   S    
H47   N6    S    
C67   N22   S    
C11   H67   S    
H85   N16   S    
C58   O18   D    
C53   H40   S    
C4    C30   S    
C54   O15   D    
C57   O17   D    
Cu1   Cu2   S    
C67   C75   S    
Cu3   O7    S    
C6    C19   S    
C25   H15   S    
C52   O13   D    
C4    O7    A    
C65   O26   D    
C13   C17   S    
C40   N1    S    
C76   O40   A    
C10   H56   S    
C7    N26   S    
C10   C15   S    
Cu1   O3    S    
C61   O21   D    
C64   O25   D    
C39   N13   S    
H25   N27   S    
C14   C49   S    
C20   C55   S    
C50   O10   D    
C42   N1    S    
C37   N7    S    
C20   H7    S    
C73   H77   S    
C74   O35   D    
C24   C39   S    
Cu4   O37   S    
C44   C71   S    
Cu3   O5    S    
C70   O30   D    
Cu3   O38   S    
C65   H70   S    
C3    C29   S    
C69   O29   D    
H95   N21   S    
C61   H65   S    
C75   N23   S    
C18   C53   S    
H26   N27   S    
C5    C27   S    
C20   C35   S    
H29   N2    S    
C67   N20   S    
C56   N12   S    
C45   C56   S    
C44   C46   S    
H19   N24   S    
C1    O12   A    
H86   N17   S    
C47   N22   S    
C71   O31   D    
C48   C65   S    
C41   C68   S    
C67   N18   S    
C1    O1    A    
C14   C31   S    
H55   N10   S    
C46   C72   S    
H35   N4    S    
H53   N9    S    
Cu4   O8    S    
C39   N11   S    
C19   H6    S    
C3    O6    A    
C12   O34   A    
H49   N7    S    
C56   N15   S    
C59   H63   S    
C25   H14   S    
Cu2   O34   S    
H88   N18   S    
C75   N19   S    
H31   N3    S    
H60   N13   S    
H87   N17   S    
H54   N9    S    
Cu3   O36   S    
C15   C50   S    
C14   H89   S    
H59   N11   S    
C60   O20   D    
C17   C52   S    
H82   N15   S    
C76   O2    A    
C8    C21   S    
C15   H2    S    
C31   C36   S    
C75   N21   S    
C26   H16   S    
C18   H5    S    
Cu3   N23   S    
C48   N23   S    
C10   N2    S    
C47   C48   S    
C48   C74   S    
C13   C30   S    
H48   N6    S    
C11   C30   S    
C6    N25   S    
H91   N19   S    
C19   C33   S    
Cu2   O12   S    
C47   C64   S    
H90   N18   S    
C50   H37   S    
C5    C18   S    
C26   H17   S    
H51   N8    S    
C44   C62   S    
C38   N10   S    
C37   N8    S    
C66   O27   D    
C42   C69   S    
C9    H45   S    
C7    C28   S    
Cu3   Cu4   S    
C41   N12   S    
H24   N26   S    
C35   C39   S    
C9    C14   S    
Cu2   O2    S    
C73   O33   D    
C68   H72   S    
C9    N28   S    
Cu1   O1    S    
C57   H43   S    
C5    H1    S    
H20   N25   S    
C58   H62   S    
C45   N16   S    
C6    C27   S    
C71   H75   S    
Cu4   N22   S    
C49   H36   S    
H93   N20   S    
C33   C34   S    
C22   H10   S    
H61   N13   S    
C32   C37   S    
C15   C31   S    
C7    H23   S    
C47   C73   S    
C63   O24   D    
C36   N6    S    
C59   O19   D    
H32   N3    S    
C74   H79   S    
C19   C54   S    
H27   N28   S    
C40   C41   S    
C54   H41   S    
Cu1   O23   S    
C43   C70   S    
C23   C35   S    
C22   C27   S    
C12   C31   S    
H92   N19   S    
C8    C28   S    
C2    O3    A    
C2    O4    A    
C42   C43   S    
C42   C60   S    
C27   C76   S    
C38   N9    S    
C24   H11   S    
C13   H78   S    
C43   C61   S    
Cu4   O6    S    
H57   N10   S    
C51   O11   D    
C53   O14   D    
C17   C32   S    
Cu1   O40   S    
C34   O39   A    
C70   H74   S    
C8    N27   S    
C24   C28   S    
H81   N14   S    
C12   O23   A    
C16   H3    S    
H83   N15   S    
C26   C37   S    
C26   C30   S    
C55   O16   D    
C21   C35   S    
C8    H34   S    
C16   C32   S    
C13   N4    S    
C21   C57   S    
C64   H69   S    
C33   C38   S    
C4    O8    A    
Cu4   O39   S    
H18   N24   S    
C46   C63   S    
H50   N7    S    
C17   H4    S    
C40   C58   S    
C56   N17   S    
H58   N11   S    
H22   N26   S    
H80   N14   S    
C66   H71   S    
H28   N28   S    
H21   N25   S    
C24   H13   S    
C60   H64   S    
C62   O22   D    
C9    C29   S    
C10   C29   S    
C25   C29   S    
C46   N23   S    
C43   N12   S    
C6    H12   S    
C40   C66   S    
C22   H9    S    
C1    C32   S    
C18   C33   S    
Cu2   O4    S    
C21   H8    S    
C11   C16   S    
C69   H73   S    
C25   C36   S    
C51   H38   S    
C52   H39   S    
C72   O32   D    
C45   N14   S    
H44   N5    S    
H33   N4    S    
C11   N3    S    
C7    C20   S    
C62   H66   S    
C41   C59   S    
Cu1   N12   S    
H30   N2    S    
C44   N22   S    
H46   N5    S    
C2    C28   S    
C36   N5    S    
H84   N16   S    
C55   H42   S    
H52   N8    S    
C68   O28   D    
C23   O36   A    
C22   C38   S    
