data_mof_unit_55776.cif
_audit_creation_date              2012-10-26T20:34:17-0400
_audit_creation_method            fapswitch 2.2
_symmetry_space_group_name_H-M    P1
_symmetry_Int_Tables_number       1
_space_group_crystal_system       triclinic
_cell_length_a                    15.985967
_cell_length_b                    14.784344
_cell_length_c                    10.629507
_cell_angle_alpha                 90.239694
_cell_angle_beta                  89.825555
_cell_angle_gamma                 90.32695
_cell_volume                      2512.12497186

loop_
_atom_site_label
_atom_site_type_symbol
_atom_type_description
_atom_site_fract_x
_atom_site_fract_y
_atom_site_fract_z
_atom_type_partial_charge
C1    C     C_R   0.340903 0.499850 0.500256 0.538751
C2    C     C_R   0.087233 0.502221 0.506378 -0.060839
C3    C     C_R   0.499959 0.499802 0.258734 0.550275
C4    C     C_R   0.500063 0.500254 0.741272 0.549848
C5    C     C_1   0.251874 0.499925 0.502098 -0.038285
C6    C     C_1   0.748003 0.501358 0.501648 -0.039460
C7    C     C_R   0.556969 0.952459 0.576155 0.238270
C8    C     C_R   0.439342 0.046752 0.430147 0.254091
C9    C     C_R   0.444305 0.950951 0.422041 0.239425
C10   C     C_R   0.561151 0.048350 0.568210 0.249794
C11   C     C_R   0.500539 0.902647 0.499460 -0.088732
C12   C     C_R   0.659056 0.500310 0.500187 0.538570
C13   C     C_R   0.499934 0.096865 0.499604 -0.093975
C14   C     C_3   0.431718 0.543294 0.042615 -0.127251
C15   C     C_3   0.568330 0.457084 0.957431 -0.125272
C16   C     C_3   0.500945 0.586310 0.960087 -0.112208
C17   C     C_3   0.499104 0.414045 0.039902 -0.105302
C18   C     C_3   0.430827 0.457941 0.958022 -0.123304
C19   C     C_3   0.569207 0.542426 0.042016 -0.127879
C20   C     C_3   0.500056 0.500856 0.877834 0.042063
C21   C     C_3   0.499987 0.499448 0.122184 0.042720
C22   C     C_1   0.500418 0.802517 0.499829 0.160738
C23   C     C_1   0.822952 0.502704 0.503337 -0.011975
C24   C     C_1   0.499940 0.197387 0.499775 0.159438
C25   C     C_3   0.681634 0.135118 0.556395 0.022858
C26   C     C_3   0.755022 0.071747 0.529817 -0.279660
C27   C     C_3   0.821588 0.117095 0.448010 -0.487765
C28   C     C_3   0.334090 0.855640 0.368829 0.019453
C29   C     C_3   0.325302 0.770987 0.286575 -0.265133
C30   C     C_3   0.249346 0.714500 0.324689 -0.454399
C31   C     C_3   0.320893 0.136676 0.434224 0.027565
C32   C     C_3   0.238830 0.083065 0.446669 -0.263946
C33   C     C_3   0.238145 0.022089 0.562445 -0.448345
C34   C     C_1   0.176884 0.501052 0.504035 -0.009414
C35   C     C_3   0.669900 0.861211 0.623266 0.016752
C36   C     C_3   0.679363 0.773593 0.697811 -0.263745
C37   C     C_3   0.755687 0.720362 0.654305 -0.449339
C38   C     C_3   0.110371 0.693767 0.621134 0.013008
C39   C     C_3   0.041606 0.752020 0.680521 -0.247587
C40   C     C_3   0.070015 0.793040 0.805349 -0.503961
C41   C     C_3   0.888673 0.330073 0.663764 0.012053
C42   C     C_3   0.950370 0.267458 0.729967 -0.250736
C43   C     C_3   0.921010 0.244775 0.862948 -0.498275
C44   C     C_3   0.893633 0.677744 0.348310 0.014159
C45   C     C_R   0.957078 0.584897 0.491027 0.235719
C46   C     C_3   0.963556 0.727229 0.276885 -0.247268
C47   C     C_3   0.936404 0.751606 0.143810 -0.504036
C48   C     C_3   0.103555 0.311732 0.387229 0.023958
C49   C     C_3   0.041741 0.238937 0.342567 -0.255019
C50   C     C_3   0.067781 0.199483 0.215566 -0.502721
C51   C     C_R   0.042625 0.420093 0.510987 0.237502
C52   C     C_R   0.044421 0.585081 0.502547 0.235770
C53   C     C_R   0.955326 0.421265 0.520920 0.239081
C54   C     C_R   0.912549 0.503196 0.505362 -0.059871
Cu1   Cu    Cu3+1 0.500000 0.589220 0.500000 0.940658
Cu2   Cu    Cu3+1 0.500000 0.410780 0.500000 0.977803
H1    H     H_    0.374268 0.423486 0.920353 0.113604
H2    H     H_    0.731746 0.010908 0.479046 0.147341
H3    H     H_    0.794616 0.137389 0.356243 0.155935
H4    H     H_    0.873538 0.069120 0.430242 0.138321
H5    H     H_    0.847289 0.177664 0.496186 0.191675
H6    H     H_    0.276395 0.896131 0.358919 0.150618
H7    H     H_    0.339259 0.834809 0.469198 0.106800
H8    H     H_    0.318686 0.791161 0.186474 0.170909
H9    H     H_    0.382484 0.729115 0.295125 0.199041
H10   H     H_    0.254940 0.693448 0.424332 0.187315
H11   H     H_    0.245590 0.652925 0.264744 0.141906
H12   H     H_    0.625764 0.576904 0.079667 0.107260
H13   H     H_    0.191043 0.754041 0.312700 0.164592
H14   H     H_    0.306773 0.201311 0.386065 0.136962
H15   H     H_    0.343786 0.156093 0.529523 0.122866
H16   H     H_    0.186124 0.131035 0.456960 0.125554
H17   H     H_    0.227302 0.042845 0.359970 0.177609
H18   H     H_    0.294293 0.978630 0.564896 0.149896
H19   H     H_    0.181475 0.978299 0.561080 0.129005
H20   H     H_    0.236905 0.063965 0.649440 0.150210
H21   H     H_    0.727215 0.902274 0.638324 0.143695
H22   H     H_    0.665524 0.844686 0.520913 0.106353
H23   H     H_    0.375951 0.578535 0.080907 0.103684
H24   H     H_    0.686114 0.789905 0.799481 0.169226
H25   H     H_    0.622521 0.730913 0.686034 0.198933
H26   H     H_    0.749916 0.702920 0.553026 0.185529
H27   H     H_    0.760286 0.656789 0.709046 0.146392
H28   H     H_    0.813710 0.760686 0.669073 0.159033
H29   H     H_    0.168208 0.735395 0.613212 0.138111
H30   H     H_    0.125933 0.636081 0.684189 0.115923
H31   H     H_    0.024815 0.807401 0.614992 0.183173
H32   H     H_    0.985037 0.709877 0.697882 0.183308
H33   H     H_    0.086175 0.738751 0.872865 0.144698
H34   H     H_    0.624175 0.421948 0.919266 0.110897
H35   H     H_    0.018660 0.834126 0.846230 0.144348
H36   H     H_    0.125387 0.837550 0.790684 0.148069
H37   H     H_    0.825608 0.298239 0.665818 0.140294
H38   H     H_    0.883046 0.395063 0.717142 0.111250
H39   H     H_    0.956954 0.203723 0.675049 0.175122
H40   H     H_    0.012626 0.300944 0.735482 0.196016
H41   H     H_    0.914911 0.307512 0.920049 0.144187
H42   H     H_    0.967368 0.200044 0.908676 0.146877
H43   H     H_    0.859705 0.209062 0.860009 0.155545
H44   H     H_    0.836455 0.720060 0.346058 0.139557
H45   H     H_    0.501785 0.656842 0.924614 0.130395
H46   H     H_    0.877279 0.613119 0.299289 0.114215
H47   H     H_    0.980908 0.790120 0.328473 0.183000
H48   H     H_    0.019558 0.683318 0.270527 0.184699
H49   H     H_    0.988531 0.786763 0.094587 0.144732
H50   H     H_    0.881542 0.797344 0.146824 0.148331
H51   H     H_    0.919909 0.689499 0.089952 0.143668
H52   H     H_    0.167572 0.283164 0.387547 0.137128
H53   H     H_    0.105195 0.368608 0.318234 0.108551
H54   H     H_    0.038273 0.183682 0.413025 0.171816
H55   H     H_    0.978522 0.268837 0.333144 0.198675
H56   H     H_    0.498338 0.343499 0.075294 0.137976
H57   H     H_    0.069887 0.253404 0.143123 0.148049
H58   H     H_    0.021648 0.147229 0.185889 0.145753
H59   H     H_    0.130306 0.167517 0.222439 0.149422
H60   H     H_    0.705770 0.196560 0.604895 0.153628
H61   H     H_    0.655489 0.158267 0.465138 0.122566
H62   H     H_    0.783833 0.051062 0.620169 0.169145
N1    N     N_1   0.500000 0.276710 0.500000 -0.197193
N2    N     N_1   0.500000 0.723290 0.500000 -0.212216
O1    O     O_R   0.380310 0.575320 0.500020 -0.502291
O2    O     O_3   0.402726 0.907359 0.324506 -0.526663
O3    O     O_3   0.379737 0.089975 0.357664 -0.527045
O4    O     O_3   0.600713 0.909767 0.671331 -0.528040
O5    O     O_3   0.087728 0.666353 0.497964 -0.573864
O6    O     O_3   0.911791 0.340883 0.535882 -0.571687
O7    O     O_3   0.915505 0.666037 0.476233 -0.572651
O8    O     O_3   0.084303 0.338354 0.512204 -0.558982
O9    O     O_R   0.619690 0.424680 0.499980 -0.490295
O10   O     O_R   0.619690 0.575320 0.499980 -0.503021
O11   O     O_R   0.380310 0.424680 0.500020 -0.492202
O12   O     O_R   0.499980 0.575330 0.316850 -0.501914
O13   O     O_R   0.500020 0.424670 0.683150 -0.490349
O14   O     O_R   0.500020 0.575330 0.683150 -0.507629
O15   O     O_R   0.499980 0.424670 0.316850 -0.497640
O16   O     O_3   0.621900 0.093689 0.637468 -0.530328

loop_
_geom_bond_atom_site_label_1
_geom_bond_atom_site_label_2
_ccdc_geom_bond_type
C7    C10   A    
Cu1   Cu2   S    
Cu1   O1    S    
C44   O7    S    
C8    C13   A    
C35   O4    S    
C41   C42   S    
C14   C18   S    
C35   C36   S    
C43   H42   S    
C39   H31   S    
C7    O4    S    
C30   H13   S    
Cu2   O13   S    
C32   H16   S    
C53   C54   A    
C15   C19   S    
C26   C27   S    
C30   H11   S    
C12   O10   A    
C38   H30   S    
C1    C5    S    
C51   O8    S    
C14   C21   S    
C28   C29   S    
C19   C21   S    
C43   H43   S    
C27   H4    S    
C6    C12   S    
C38   C39   S    
C28   O2    S    
C22   N2    T    
C50   H59   S    
C25   O16   S    
C27   H5    S    
C33   H19   S    
C31   H14   S    
C41   H37   S    
C31   C32   S    
C47   H50   S    
C8    C9    A    
C47   H49   S    
C37   H28   S    
C40   H33   S    
C3    O15   A    
Cu2   O9    S    
C49   H55   S    
C2    C34   S    
C31   H15   S    
C48   H53   S    
C29   H8    S    
C39   H32   S    
C44   C46   S    
C17   C18   S    
Cu1   N2    S    
C15   C20   S    
C12   O9    A    
C38   H29   S    
C3    O12   A    
C43   H41   S    
C36   H24   S    
C25   H60   S    
C32   H17   S    
C44   H46   S    
C45   C52   A    
C25   C26   S    
C46   H48   S    
C35   H21   S    
C17   C21   S    
C42   H39   S    
C13   C24   S    
C51   C53   A    
C7    C11   A    
C29   C30   S    
C48   O8    S    
C9    C11   A    
C33   H18   S    
C18   H1    S    
C41   H38   S    
C36   H25   S    
C16   C20   S    
Cu1   O10   S    
C5    C34   T    
C9    O2    S    
C19   H12   S    
C14   H23   S    
C40   H36   S    
C26   H2    S    
C30   H10   S    
C2    C52   A    
C29   H9    S    
C48   C49   S    
C45   C54   A    
C49   C50   S    
C47   H51   S    
Cu2   N1    S    
C14   C16   S    
C37   H26   S    
C3    C21   S    
C42   C43   S    
C17   H56   S    
C39   C40   S    
C38   O5    S    
C23   C54   S    
C4    O14   A    
C15   C17   S    
C46   C47   S    
C36   C37   S    
C24   N1    T    
C11   C22   S    
C41   O6    S    
C26   H62   S    
C10   O16   S    
C1    O11   A    
C10   C13   A    
C25   H61   S    
C52   O5    S    
C8    O3    S    
Cu1   O14   S    
C4    O13   A    
C46   H47   S    
C35   H22   S    
C42   H40   S    
C50   H57   S    
C32   C33   S    
C31   O3    S    
C27   H3    S    
C15   H34   S    
C44   H44   S    
C48   H52   S    
C45   O7    S    
C16   C19   S    
C6    C23   T    
C18   C20   S    
C40   H35   S    
C1    O1    A    
Cu2   O15   S    
Cu2   O11   S    
C2    C51   A    
C4    C20   S    
C28   H7    S    
C16   H45   S    
C33   H20   S    
Cu1   O12   S    
C50   H58   S    
C37   H27   S    
C53   O6    S    
C49   H54   S    
C28   H6    S    
