data_mof_unit_12299.cif
_audit_creation_date              2012-12-11T16:36:11-0500
_audit_creation_method            fapswitch 2.2
_symmetry_space_group_name_H-M    P1
_symmetry_Int_Tables_number       1
_space_group_crystal_system       triclinic
_cell_length_a                    21.507962
_cell_length_b                    21.625373
_cell_length_c                    22.458862
_cell_angle_alpha                 89.981248
_cell_angle_beta                  89.7465
_cell_angle_gamma                 90.001555
_cell_volume                      10445.9114482

loop_
_atom_site_label
_atom_site_type_symbol
_atom_type_description
_atom_site_fract_x
_atom_site_fract_y
_atom_site_fract_z
_atom_type_partial_charge
C1    C     C_R   0.414705 0.656472 0.581518 -0.159607
C2    C     C_R   0.564286 0.638759 0.608738 -0.145258
C3    C     C_R   0.799175 0.281172 0.818146 0.570470
C4    C     C_R   0.704823 0.769879 0.119359 0.559291
C5    C     C_R   0.279596 0.209303 0.817375 0.532553
C6    C     C_R   0.759752 0.285620 0.115793 0.575736
C7    C     C_R   0.120948 0.812473 0.705989 0.570729
C8    C     C_R   0.223656 0.852667 0.730806 0.539230
C9    C     C_R   0.712468 0.203504 0.175276 0.546226
C10   C     C_R   0.239923 0.287341 0.886586 0.580938
C11   C     C_R   0.790079 0.714403 0.167844 0.544572
C12   C     C_R   0.715373 0.241097 0.882171 0.583369
C13   C     C_R   0.643483 0.429455 0.395183 -0.143659
C14   C     C_R   0.185327 0.872638 0.291103 0.592807
C15   C     C_R   0.751085 0.722557 0.884109 0.588073
C16   C     C_R   0.122346 0.194246 0.289228 0.566293
C17   C     C_R   0.689116 0.614923 0.724632 -0.384504
C18   C     C_R   0.263178 0.336056 0.338411 -0.386413
C19   C     C_R   0.630321 0.294252 0.708921 -0.383269
C20   C     C_R   0.333383 0.745370 0.356089 -0.381161
C21   C     C_R   0.299219 0.381913 0.717397 -0.390511
C22   C     C_R   0.664416 0.606197 0.264515 -0.326380
C23   C     C_R   0.304508 0.747841 0.592432 -0.363703
C24   C     C_R   0.343027 0.582609 0.582452 -0.155351
C25   C     C_R   0.600604 0.332524 0.263863 -0.374433
C26   C     C_R   0.703338 0.370809 0.287893 -0.382817
C27   C     C_R   0.256599 0.666451 0.650859 -0.386107
C28   C     C_R   0.629160 0.708184 0.293794 -0.395039
C29   C     C_R   0.398584 0.333488 0.737452 -0.326150
C30   C     C_R   0.248591 0.690264 0.403771 -0.341724
C31   C     C_R   0.679613 0.393471 0.724451 -0.305772
C32   C     C_R   0.303623 0.256901 0.404104 -0.389119
C33   C     C_R   0.596452 0.678099 0.732915 -0.374863
C34   C     C_R   0.199945 0.122726 0.216207 -0.421687
C35   C     C_R   0.567240 0.642721 0.394770 -0.141872
C36   C     C_R   0.771267 0.837112 0.828742 -0.383017
C37   C     C_R   0.133376 0.791975 0.206260 -0.385294
C38   C     C_R   0.838984 0.237278 0.841396 -0.390292
C39   C     C_R   0.747692 0.812722 0.097434 -0.365544
C40   C     C_R   0.236554 0.167152 0.839512 -0.384070
C41   C     C_R   0.805860 0.244756 0.097151 -0.352437
C42   C     C_R   0.097730 0.836475 0.759521 -0.376624
C43   C     C_R   0.198931 0.879211 0.782229 -0.384522
C44   C     C_R   0.756993 0.162471 0.153872 -0.388356
C45   C     C_R   0.193889 0.245631 0.905058 -0.399448
C46   C     C_R   0.430210 0.359484 0.607471 -0.149757
C47   C     C_R   0.831995 0.755552 0.142912 -0.388020
C48   C     C_R   0.755568 0.194866 0.901574 -0.320259
C49   C     C_R   0.161909 0.895572 0.236915 -0.423723
C50   C     C_R   0.798954 0.760917 0.903561 -0.368600
C51   C     C_R   0.100418 0.171409 0.235265 -0.332198
C52   C     C_3   0.819220 0.651040 0.756826 0.272015
C53   C     C_3   0.882444 0.636117 0.783213 -0.827328
C54   C     C_3   0.208161 0.315722 0.217643 0.265821
C55   C     C_3   0.161062 0.331147 0.169571 -0.846328
C56   C     C_3   0.677270 0.171247 0.747851 0.274215
C57   C     C_R   0.343237 0.584403 0.418254 -0.144831
C58   C     C_3   0.668849 0.106713 0.773561 -0.817397
C59   C     C_3   0.331269 0.811829 0.240426 0.257964
C60   C     C_3   0.346111 0.865296 0.198730 -0.887112
C61   C     C_3   0.172833 0.334638 0.749510 0.263597
C62   C     C_3   0.106781 0.342685 0.772648 -0.831509
C63   C     C_3   0.695152 0.584530 0.117195 0.269716
C64   C     C_3   0.748623 0.574243 0.073764 -0.818075
C65   C     C_3   0.224531 0.855230 0.540719 0.251049
C66   C     C_3   0.226836 0.921510 0.518228 -0.857186
C67   C     C_3   0.545343 0.316524 0.141397 0.255382
C68   C     C_R   0.647416 0.425247 0.599802 -0.153858
C69   C     C_3   0.496214 0.279431 0.108449 -0.883783
C70   C     C_3   0.824609 0.310559 0.258285 0.244498
C71   C     C_3   0.892274 0.312399 0.238391 -0.801580
C72   C     C_3   0.193284 0.680854 0.769561 0.263568
C73   C     C_3   0.141805 0.664134 0.813306 -0.828272
C74   C     C_3   0.693750 0.827315 0.264956 0.271982
C75   C     C_3   0.692213 0.895658 0.249081 -0.836723
C76   C     C_3   0.421482 0.296980 0.883119 0.264895
C77   C     C_3   0.415363 0.244790 0.928255 -0.879829
C78   C     C_3   0.123918 0.771848 0.435606 0.248118
C79   C     C_R   0.915280 0.155438 0.083838 -0.159647
C80   C     C_3   0.053271 0.772990 0.436885 -0.863802
C81   C     C_3   0.725844 0.427034 0.865822 0.202354
C82   C     C_3   0.756073 0.487812 0.883647 -0.733642
C83   C     C_3   0.235754 0.160021 0.469890 0.260733
C84   C     C_3   0.222388 0.095204 0.492851 -0.915216
C85   C     C_3   0.535998 0.731006 0.841746 0.243183
C86   C     C_3   0.505170 0.783671 0.875631 -0.882821
C87   C     C_3   0.325814 0.169890 0.248763 0.255251
C88   C     C_3   0.391611 0.161308 0.271844 -0.845238
C89   C     C_3   0.724091 0.807691 0.705318 0.264712
C90   C     C_R   0.065523 0.862179 0.890257 -0.146797
C91   C     C_3   0.682300 0.822585 0.652806 -0.848547
C92   C     C_3   0.198528 0.673446 0.237257 0.262647
C93   C     C_3   0.196589 0.605290 0.253839 -0.831198
C94   C     C_3   0.826088 0.291487 0.720095 0.279234
C95   C     C_3   0.843686 0.338357 0.672434 -0.850740
C96   C     C_3   0.620982 0.762344 0.058280 0.250451
C97   C     C_3   0.553104 0.780380 0.051247 -0.856020
C98   C     C_3   0.291775 0.189061 0.718291 0.266568
C99   C     C_3   0.339468 0.174330 0.670160 -0.835874
C100  C     C_3   0.723680 0.353549 0.048318 0.275023
C101  C     C_R   0.143092 0.070426 0.104862 -0.138118
C102  C     C_3   0.715616 0.421766 0.035111 -0.939180
C103  C     C_3   0.044519 0.814846 0.636686 0.254846
C104  C     C_3   0.002887 0.774928 0.597953 -0.886018
C105  C     C_3   0.322220 0.820943 0.752804 0.260456
C106  C     C_3   0.389428 0.823459 0.731619 -0.827723
C107  C     C_3   0.690461 0.174096 0.270774 0.270967
C108  C     C_3   0.637573 0.158581 0.313378 -0.845002
C109  C     C_3   0.256994 0.345505 0.969781 0.255515
C110  C     C_3   0.274606 0.410257 0.989939 -0.885835
C111  C     C_3   0.825930 0.690331 0.260610 0.272211
C112  C     C_R   0.567238 0.359327 0.392657 -0.149437
C113  C     C_R   0.845042 0.919926 0.912636 -0.146179
C114  C     C_3   0.844544 0.636933 0.300816 -0.813974
C115  C     C_3   0.630420 0.294650 0.919924 0.334091
C116  C     C_3   0.584956 0.283704 0.970773 -0.953598
C117  C     C_3   0.237332 0.964583 0.315168 0.298838
C118  C     C_3   0.281227 0.988675 0.362640 -0.786573
C119  C     C_3   0.685676 0.669617 0.946346 0.277347
C120  C     C_3   0.644768 0.613628 0.934005 -0.954062
C121  C     C_3   0.065769 0.200057 0.374380 0.253148
C122  C     C_3   0.023234 0.241210 0.411332 -0.881742
C123  C     C_R   0.067151 0.857482 0.105697 -0.144438
C124  C     C_R   0.919307 0.155254 0.914329 -0.144922
C125  C     C_R   0.843138 0.916026 0.081915 -0.143720
C126  C     C_R   0.155998 0.082284 0.915263 -0.159008
C127  C     C_R   0.916186 0.844843 0.915026 -0.162649
C128  C     C_R   0.066803 0.140402 0.107639 -0.153089
C129  C     C_R   0.139199 0.935215 0.891190 -0.144380
C130  C     C_R   0.844086 0.080484 0.085643 -0.144087
C131  C     C_R   0.083269 0.155618 0.915375 -0.147526
C132  C     C_R   0.639774 0.567927 0.607893 -0.139879
C133  C     C_R   0.916559 0.843464 0.081425 -0.155676
C134  C     C_R   0.844395 0.083686 0.915535 -0.150584
C135  C     C_R   0.142859 0.928165 0.105194 -0.148242
C136  C     C_R   0.681332 0.693192 0.800862 -0.130586
C137  C     C_R   0.217022 0.233986 0.339400 -0.144180
C138  C     C_R   0.692128 0.312417 0.797070 -0.242453
C139  C     C_R   0.227760 0.780858 0.343750 -0.156596
C140  C     C_R   0.311971 0.317727 0.804534 -0.148940
C141  C     C_R   0.682599 0.693801 0.199960 -0.175351
C142  C     C_R   0.215280 0.770519 0.655116 -0.154774
C143  C     C_R   0.344614 0.419547 0.413520 -0.147278
C144  C     C_R   0.687013 0.311746 0.197903 -0.147528
C145  C     C_R   0.185739 0.186984 0.303294 -0.143688
C146  C     C_R   0.716677 0.739669 0.833517 -0.151020
C147  C     C_R   0.184705 0.808230 0.300624 -0.107222
C148  C     C_R   0.736359 0.282366 0.837040 -0.228798
C149  C     C_R   0.725842 0.722766 0.157892 -0.175553
C150  C     C_R   0.280099 0.270278 0.839814 -0.147748
C151  C     C_R   0.715554 0.266154 0.158208 -0.157304
C152  C     C_R   0.185133 0.816567 0.693852 -0.144789
C153  C     C_R   0.632753 0.635572 0.700792 0.051739
C154  C     C_R   0.574072 0.352705 0.600055 -0.138752
C155  C     C_R   0.307518 0.316155 0.379310 0.045416
C156  C     C_R   0.646743 0.352702 0.687876 0.016900
C157  C     C_R   0.311578 0.694260 0.388130 0.025074
C158  C     C_R   0.359555 0.366544 0.699040 0.024723
C159  C     C_R   0.638272 0.645831 0.306772 0.020308
C160  C     C_R   0.304585 0.686963 0.613633 0.031230
C161  C     C_R   0.641265 0.361046 0.303932 0.040763
C162  C     C_R   0.139897 0.138041 0.197215 0.042129
C163  C     C_R   0.809287 0.817748 0.875282 0.024854
C164  C     C_R   0.139015 0.854880 0.193788 0.070366
C165  C     C_R   0.416845 0.656623 0.418431 -0.154357
C166  C     C_R   0.816481 0.192090 0.879973 0.012011
C167  C     C_R   0.810780 0.806859 0.111311 0.037720
C168  C     C_R   0.191643 0.186177 0.880576 0.045826
C169  C     C_R   0.805729 0.183820 0.117958 0.030654
C170  C     C_R   0.137143 0.867811 0.798797 0.046505
C171  C     C_R   0.353569 0.643473 0.596910 0.138647
C172  C     C_R   0.619036 0.381185 0.362258 0.129866
C173  C     C_R   0.613402 0.615231 0.641436 0.128005
C174  C     C_R   0.355900 0.359058 0.397585 0.130468
C175  C     C_R   0.626331 0.373249 0.629428 0.130704
C176  C     C_R   0.359364 0.434827 0.607653 -0.140658
C177  C     C_R   0.355667 0.645710 0.404126 0.134255
C178  C     C_R   0.381450 0.385234 0.639933 0.130009
C179  C     C_R   0.618528 0.622121 0.364074 0.133985
C180  C     C_R   0.854817 0.141077 0.101008 0.134586
C181  C     C_R   0.114962 0.887075 0.857835 0.127059
C182  C     C_R   0.118315 0.118402 0.138294 0.127646
C183  C     C_R   0.856803 0.859750 0.896162 0.136022
C184  C     C_R   0.118301 0.878346 0.136443 0.127334
C185  C     C_R   0.858732 0.143799 0.898564 0.133483
C186  C     C_R   0.855306 0.854764 0.095614 0.134646
C187  C     C_R   0.643162 0.572141 0.394867 -0.152546
C188  C     C_R   0.143914 0.142422 0.898728 0.133069
C189  C     C_R   0.714554 0.644630 0.773703 0.513829
C190  C     C_R   0.219131 0.294869 0.316715 0.535985
C191  C     C_R   0.653717 0.273171 0.762776 0.559823
C192  C     C_R   0.291861 0.787890 0.332361 0.529410
C193  C     C_R   0.274622 0.356723 0.769432 0.543268
C194  C     C_R   0.685013 0.629074 0.210113 0.567562
C195  C     C_R   0.258684 0.789309 0.611450 0.573875
C196  C     C_R   0.622754 0.309531 0.209686 0.570082
C197  C     C_R   0.727009 0.345066 0.235860 0.551848
C198  C     C_R   0.415871 0.344662 0.415567 -0.161666
C199  C     C_R   0.212850 0.707983 0.673021 0.544911
C200  C     C_R   0.652651 0.733012 0.241506 0.567171
C201  C     C_R   0.375912 0.310975 0.791482 0.578927
C202  C     C_R   0.206693 0.734771 0.383573 0.563808
C203  C     C_R   0.701540 0.374693 0.779479 0.590881
C204  C     C_R   0.256491 0.216286 0.386257 0.579034
C205  C     C_R   0.619818 0.705940 0.784170 0.567125
C206  C     C_R   0.223683 0.148074 0.268379 0.528623
C207  C     C_R   0.726208 0.797704 0.806310 0.545793
C208  C     C_R   0.157025 0.768054 0.258898 0.526608
H1    H     H_    0.435402 0.701942 0.578431 0.098413
H2    H     H_    0.533915 0.676638 0.620216 0.102077
H3    H     H_    0.573512 0.342788 0.108262 0.083780
H4    H     H_    0.520727 0.349756 0.171226 0.078957
H5    H     H_    0.465292 0.255623 0.140896 0.249109
H6    H     H_    0.467770 0.310783 0.080421 0.199833
H7    H     H_    0.518623 0.244231 0.079507 0.272817
H8    H     H_    0.808039 0.262060 0.253563 0.054791
H9    H     H_    0.822273 0.324440 0.305953 0.086477
H10   H     H_    0.910926 0.360039 0.242980 0.260701
H11   H     H_    0.920311 0.280592 0.266337 0.204051
H12   H     H_    0.896204 0.297692 0.191135 0.249758
H13   H     H_    0.686306 0.453386 0.386603 0.093566
H14   H     H_    0.214623 0.724885 0.784953 0.054837
H15   H     H_    0.228788 0.643409 0.770216 0.087948
H16   H     H_    0.119576 0.619951 0.799906 0.258420
H17   H     H_    0.161441 0.658791 0.858663 0.197582
H18   H     H_    0.106110 0.701265 0.814212 0.253177
H19   H     H_    0.741069 0.809686 0.254122 0.056008
H20   H     H_    0.684986 0.822535 0.313623 0.078520
H21   H     H_    0.645817 0.915364 0.259818 0.255121
H22   H     H_    0.728141 0.920848 0.274856 0.193316
H23   H     H_    0.701794 0.901832 0.200792 0.259010
H24   H     H_    0.297934 0.560830 0.578760 0.101099
H25   H     H_    0.387903 0.334159 0.895773 0.069220
H26   H     H_    0.468940 0.316935 0.886411 0.109016
H27   H     H_    0.449000 0.207369 0.917706 0.278013
H28   H     H_    0.424831 0.262614 0.973687 0.202253
H29   H     H_    0.367585 0.225430 0.927318 0.242269
H30   H     H_    0.140164 0.819213 0.423442 0.099235
H31   H     H_    0.140948 0.760025 0.480912 0.077966
H32   H     H_    0.035006 0.727317 0.451309 0.259199
H33   H     H_    0.036926 0.809038 0.468466 0.201550
H34   H     H_    0.035183 0.783848 0.391825 0.259526
H35   H     H_    0.537054 0.680796 0.383523 0.102770
H36   H     H_    0.743358 0.390566 0.896188 0.107971
H37   H     H_    0.674441 0.431900 0.870985 0.052078
H38   H     H_    0.736505 0.526148 0.856736 0.284148
H39   H     H_    0.747468 0.497327 0.931384 0.187930
H40   H     H_    0.807104 0.485508 0.876150 0.263281
H41   H     H_    0.192918 0.188381 0.476146 0.070111
H42   H     H_    0.273919 0.179805 0.497206 0.093524
H43   H     H_    0.265190 0.066605 0.490317 0.264324
H44   H     H_    0.206821 0.097463 0.540012 0.212416
H45   H     H_    0.185217 0.073330 0.465893 0.254188
H46   H     H_    0.453983 0.317309 0.618268 0.096789
H47   H     H_    0.550080 0.695070 0.874575 0.084071
H48   H     H_    0.501299 0.711168 0.810486 0.086062
H49   H     H_    0.488878 0.819635 0.844038 0.264314
H50   H     H_    0.464725 0.765901 0.901337 0.201240
H51   H     H_    0.538927 0.804873 0.906834 0.258589
H52   H     H_    0.315060 0.220200 0.250258 0.063065
H53   H     H_    0.324313 0.153444 0.201847 0.089170
H54   H     H_    0.404502 0.111590 0.270608 0.253963
H55   H     H_    0.424773 0.187812 0.243660 0.212385
H56   H     H_    0.394752 0.178332 0.318403 0.255657
H57   H     H_    0.297972 0.562729 0.420366 0.096513
H58   H     H_    0.739434 0.758793 0.700527 0.057056
H59   H     H_    0.765318 0.838788 0.703537 0.081624
H60   H     H_    0.666331 0.871347 0.655500 0.254681
H61   H     H_    0.708340 0.815890 0.610494 0.196521
H62   H     H_    0.641188 0.791470 0.653065 0.258130
H63   H     H_    0.245789 0.691019 0.247952 0.058056
H64   H     H_    0.190234 0.677690 0.188538 0.082944
H65   H     H_    0.150208 0.585643 0.243332 0.257660
H66   H     H_    0.232637 0.579680 0.228298 0.194169
H67   H     H_    0.205742 0.599609 0.302180 0.256391
H68   H     H_    0.691612 0.447610 0.606108 0.092932
H69   H     H_    0.780913 0.270365 0.707191 0.058388
H70   H     H_    0.862613 0.255057 0.721251 0.077099
H71   H     H_    0.889084 0.359969 0.683301 0.255211
H72   H     H_    0.847495 0.314987 0.628552 0.195270
H73   H     H_    0.807573 0.374950 0.669659 0.258035
H74   H     H_    0.623807 0.711198 0.055285 0.062739
H75   H     H_    0.648071 0.784123 0.021428 0.072769
H76   H     H_    0.548421 0.831525 0.051284 0.257655
H77   H     H_    0.535042 0.761875 0.008615 0.199558
H78   H     H_    0.525086 0.760848 0.088423 0.256417
H79   H     H_    0.935564 0.201126 0.081346 0.098905
H80   H     H_    0.270648 0.234594 0.707281 0.052730
H81   H     H_    0.255226 0.152619 0.717564 0.087026
H82   H     H_    0.361371 0.128784 0.679134 0.262433
H83   H     H_    0.316410 0.172698 0.626032 0.192440
H84   H     H_    0.376046 0.210594 0.669161 0.252321
H85   H     H_    0.676500 0.333962 0.056546 0.084754
H86   H     H_    0.745249 0.330764 0.008866 0.086767
H87   H     H_    0.761485 0.442689 0.024598 0.270040
H88   H     H_    0.683943 0.427935 0.996679 0.198016
H89   H     H_    0.695037 0.445164 0.074474 0.265824
H90   H     H_    0.036223 0.823927 0.877492 0.103691
H91   H     H_    0.072752 0.845343 0.607081 0.075144
H92   H     H_    0.014183 0.843827 0.665760 0.084552
H93   H     H_    0.972748 0.745355 0.626415 0.256015
H94   H     H_    0.973011 0.804783 0.569795 0.202040
H95   H     H_    0.031755 0.744902 0.568780 0.264155
H96   H     H_    0.306395 0.772124 0.748901 0.052338
H97   H     H_    0.320490 0.835368 0.800346 0.086271
H98   H     H_    0.408081 0.871021 0.736881 0.258710
H99   H     H_    0.418074 0.791001 0.758221 0.197738
H100  H     H_    0.392382 0.809839 0.684004 0.256633
H101  H     H_    0.186000 0.046666 0.112910 0.087328
H102  H     H_    0.713241 0.216969 0.287290 0.054157
H103  H     H_    0.724449 0.135296 0.271343 0.081801
H104  H     H_    0.613942 0.115510 0.298878 0.256212
H105  H     H_    0.656134 0.151714 0.358962 0.195331
H106  H     H_    0.603294 0.197006 0.314306 0.257190
H107  H     H_    0.297395 0.314478 0.978520 0.074112
H108  H     H_    0.216423 0.329959 0.996773 0.094794
H109  H     H_    0.235105 0.442451 0.982767 0.266066
H110  H     H_    0.286333 0.409715 0.038046 0.201708
H111  H     H_    0.315615 0.426827 0.964273 0.247392
H112  H     H_    0.537695 0.321058 0.380421 0.103277
H113  H     H_    0.800393 0.942978 0.912772 0.106678
H114  H     H_    0.784670 0.713128 0.281057 0.052027
H115  H     H_    0.865247 0.723750 0.258538 0.084377
H116  H     H_    0.886129 0.613196 0.282287 0.259960
H117  H     H_    0.855656 0.654624 0.345944 0.193866
H118  H     H_    0.805695 0.603259 0.304441 0.254750
H119  H     H_    0.604989 0.317497 0.883035 0.102195
H120  H     H_    0.667139 0.326344 0.936338 0.010621
H121  H     H_    0.609099 0.260770 0.008381 0.258232
H122  H     H_    0.565349 0.328443 0.986228 0.207441
H123  H     H_    0.546575 0.253393 0.955720 0.277803
H124  H     H_    0.037168 0.819227 0.117230 0.104690
H125  H     H_    0.201700 0.000680 0.306388 0.098095
H126  H     H_    0.265377 0.956032 0.274186 0.117234
H127  H     H_    0.317136 0.953323 0.372732 0.255312
H128  H     H_    0.304580 0.031426 0.346841 0.260116
H129  H     H_    0.254718 0.999204 0.403816 0.247692
H130  H     H_    0.656771 0.711782 0.938512 0.060420
H131  H     H_    0.698933 0.669327 0.993965 0.092259
H132  H     H_    0.669158 0.570387 0.945812 0.258623
H133  H     H_    0.601540 0.616735 0.961059 0.207860
H134  H     H_    0.632101 0.611786 0.886229 0.247867
H135  H     H_    0.942163 0.199794 0.915904 0.103928
H136  H     H_    0.106644 0.187547 0.402147 0.092158
H137  H     H_    0.039694 0.157266 0.362552 0.081668
H138  H     H_    0.981450 0.253933 0.385133 0.253756
H139  H     H_    0.008245 0.216272 0.452173 0.201335
H140  H     H_    0.048271 0.283983 0.424443 0.261062
H141  H     H_    0.798048 0.938021 0.079995 0.095803
H142  H     H_    0.201472 0.061143 0.918082 0.105292
H143  H     H_    0.936284 0.799046 0.917054 0.102685
H144  H     H_    0.036955 0.178487 0.119951 0.103084
H145  H     H_    0.177248 0.965207 0.879095 0.102453
H146  H     H_    0.799475 0.057458 0.083848 0.103404
H147  H     H_    0.061665 0.200763 0.916782 0.099550
H148  H     H_    0.681318 0.542879 0.618179 0.089072
H149  H     H_    0.938164 0.798541 0.076904 0.100209
H150  H     H_    0.798727 0.062786 0.917022 0.099269
H151  H     H_    0.186317 0.950552 0.114704 0.093839
H152  H     H_    0.716126 0.579094 0.703241 0.153249
H153  H     H_    0.264719 0.382727 0.320867 0.156543
H154  H     H_    0.602281 0.263279 0.682432 0.151589
H155  H     H_    0.382344 0.750183 0.345670 0.152523
H156  H     H_    0.269362 0.409922 0.689693 0.150924
H157  H     H_    0.670420 0.557479 0.274270 0.162671
H158  H     H_    0.340099 0.763475 0.561662 0.158975
H159  H     H_    0.299921 0.442500 0.414508 0.105731
H160  H     H_    0.551984 0.326374 0.275083 0.152070
H161  H     H_    0.734902 0.394757 0.317306 0.151551
H162  H     H_    0.254999 0.618771 0.665631 0.157002
H163  H     H_    0.607436 0.738821 0.325848 0.153902
H164  H     H_    0.446278 0.323648 0.725018 0.161161
H165  H     H_    0.231548 0.652103 0.430450 0.158169
H166  H     H_    0.690455 0.439936 0.709716 0.153850
H167  H     H_    0.337205 0.242140 0.436942 0.146834
H168  H     H_    0.551599 0.692874 0.716753 0.146420
H169  H     H_    0.230296 0.094328 0.189222 0.148115
H170  H     H_    0.550193 0.309661 0.607128 0.090306
H171  H     H_    0.778100 0.882031 0.808285 0.158765
H172  H     H_    0.113097 0.760735 0.174041 0.152468
H173  H     H_    0.886840 0.236247 0.826095 0.155465
H174  H     H_    0.731062 0.851934 0.072119 0.152245
H175  H     H_    0.236169 0.120396 0.822146 0.159335
H176  H     H_    0.841850 0.260975 0.067109 0.155790
H177  H     H_    0.049446 0.828632 0.771090 0.151272
H178  H     H_    0.229686 0.904925 0.811076 0.152380
H179  H     H_    0.755236 0.114612 0.168049 0.154951
H180  H     H_    0.159771 0.259711 0.937945 0.147710
H181  H     H_    0.438513 0.701505 0.422854 0.099063
H182  H     H_    0.880920 0.749771 0.152660 0.156761
H183  H     H_    0.738837 0.160684 0.933072 0.159983
H184  H     H_    0.161323 0.944711 0.227826 0.134960
H185  H     H_    0.827018 0.747023 0.941213 0.162476
H186  H     H_    0.052887 0.181256 0.222795 0.153940
H187  H     H_    0.815630 0.702222 0.753010 0.053361
H188  H     H_    0.816681 0.629908 0.711720 0.086142
H189  H     H_    0.888151 0.585250 0.787342 0.259295
H190  H     H_    0.919808 0.654602 0.753923 0.206537
H191  H     H_    0.886647 0.657549 0.827969 0.254083
H192  H     H_    0.321861 0.465542 0.619566 0.100408
H193  H     H_    0.228851 0.269983 0.206518 0.057769
H194  H     H_    0.245135 0.351738 0.216960 0.081949
H195  H     H_    0.139625 0.376922 0.178648 0.258480
H196  H     H_    0.184518 0.332628 0.125432 0.191747
H197  H     H_    0.124063 0.295320 0.168523 0.256455
H198  H     H_    0.727591 0.183005 0.750376 0.054840
H199  H     H_    0.662586 0.170411 0.700411 0.079575
H200  H     H_    0.619203 0.092848 0.771164 0.260792
H201  H     H_    0.697269 0.073107 0.747822 0.192991
H202  H     H_    0.684000 0.105882 0.820772 0.255696
H203  H     H_    0.686651 0.549752 0.385091 0.098441
H204  H     H_    0.293050 0.784552 0.219944 0.058319
H205  H     H_    0.373518 0.782442 0.244298 0.101381
H206  H     H_    0.382713 0.895107 0.218392 0.264624
H207  H     H_    0.362991 0.847105 0.155344 0.213494
H208  H     H_    0.303666 0.893323 0.190890 0.237542
H209  H     H_    0.183960 0.284405 0.751028 0.054635
H210  H     H_    0.174630 0.351085 0.702580 0.082478
H211  H     H_    0.093442 0.392278 0.771312 0.257269
H212  H     H_    0.074092 0.315855 0.744553 0.195419
H213  H     H_    0.103416 0.325695 0.819244 0.256350
H214  H     H_    0.436116 0.298950 0.417867 0.100277
H215  H     H_    0.668364 0.625620 0.102205 0.045751
H216  H     H_    0.663553 0.543944 0.115986 0.090552
H217  H     H_    0.778753 0.535992 0.089632 0.280491
H218  H     H_    0.730424 0.562002 0.029318 0.205743
H219  H     H_    0.777002 0.616976 0.069951 0.247239
H220  H     H_    0.175099 0.843458 0.550497 0.068904
H221  H     H_    0.242538 0.824497 0.504688 0.080647
H222  H     H_    0.275454 0.934449 0.506943 0.261101
H223  H     H_    0.197743 0.925997 0.477722 0.221717
H224  H     H_    0.208792 0.953474 0.552932 0.254556
N1    N     N_R   0.440580 0.604630 0.559510 -0.037989
N2    N     N_R   0.559420 0.604630 0.559510 -0.042299
N3    N     N_R   0.604630 0.440580 0.440490 -0.040792
N4    N     N_R   0.395370 0.559420 0.559510 -0.038837
N5    N     N_R   0.559420 0.604630 0.440490 -0.042658
N6    N     N_R   0.440580 0.395370 0.559510 -0.039688
N7    N     N_R   0.395370 0.559420 0.440490 -0.039723
N8    N     N_R   0.604630 0.440580 0.559510 -0.038779
N9    N     N_R   0.940580 0.104630 0.059510 -0.038888
N10   N     N_R   0.059420 0.895370 0.940490 -0.041890
N11   N     N_R   0.104630 0.059420 0.059510 -0.039439
N12   N     N_R   0.559420 0.395370 0.440490 -0.041441
N13   N     N_R   0.895370 0.940580 0.940490 -0.040618
N14   N     N_R   0.059420 0.895370 0.059510 -0.041779
N15   N     N_R   0.940580 0.104630 0.940490 -0.040721
N16   N     N_R   0.895370 0.940580 0.059510 -0.040068
N17   N     N_R   0.104630 0.059420 0.940490 -0.040390
N18   N     N_R   0.940580 0.895370 0.940490 -0.039039
N19   N     N_R   0.059420 0.104630 0.059510 -0.040136
N20   N     N_R   0.104630 0.940580 0.940490 -0.042539
N21   N     N_R   0.895370 0.059420 0.059510 -0.040339
N22   N     N_R   0.059420 0.104630 0.940490 -0.040544
N23   N     N_R   0.604630 0.559420 0.559510 -0.041224
N24   N     N_R   0.940580 0.895370 0.059510 -0.038962
N25   N     N_R   0.895370 0.059420 0.940490 -0.040538
N26   N     N_R   0.104630 0.940580 0.059510 -0.040195
N27   N     N_R   0.395370 0.440580 0.440490 -0.041071
N28   N     N_R   0.559420 0.395370 0.559510 -0.039835
N29   N     N_R   0.440580 0.604630 0.440490 -0.039349
N30   N     N_R   0.395370 0.440580 0.559510 -0.041915
N31   N     N_R   0.604630 0.559420 0.440490 -0.040563
N32   N     N_R   0.440580 0.395370 0.440490 -0.039926
Ni1   Ni    Ni4+2 0.500000 0.603690 0.500000 0.212100
Ni2   Ni    Ni4+2 0.500000 0.396310 0.500000 0.213548
Ni3   Ni    Ni4+2 0.603690 0.500000 0.500000 0.216819
Ni4   Ni    Ni4+2 0.396310 0.500000 0.500000 0.211209
Ni5   Ni    Ni4+2 0.000000 0.103690 0.000000 0.210334
Ni6   Ni    Ni4+2 0.000000 0.896310 0.000000 0.212377
Ni7   Ni    Ni4+2 0.103690 0.000000 0.000000 0.214304
Ni8   Ni    Ni4+2 0.896310 0.000000 0.000000 0.209823
O1    O     O_3   0.772420 0.627116 0.794615 -0.593377
O2    O     O_3   0.167471 0.687412 0.712214 -0.581317
O3    O     O_3   0.647738 0.796090 0.231854 -0.576056
O4    O     O_3   0.413773 0.272772 0.825011 -0.582529
O5    O     O_3   0.143973 0.726542 0.394584 -0.580085
O6    O     O_3   0.743888 0.413549 0.806893 -0.576726
O7    O     O_3   0.253115 0.156900 0.409178 -0.598308
O8    O     O_3   0.588088 0.754376 0.810715 -0.581691
O9    O     O_3   0.284381 0.135789 0.285038 -0.608498
O10   O     O_3   0.690286 0.816540 0.758644 -0.581710
O11   O     O_3   0.152429 0.705231 0.270100 -0.582158
O12   O     O_3   0.177680 0.314124 0.273462 -0.584773
O13   O     O_3   0.821489 0.321981 0.775560 -0.580760
O14   O     O_3   0.641958 0.782308 0.114316 -0.572221
O15   O     O_3   0.321743 0.190839 0.774093 -0.581468
O16   O     O_3   0.762499 0.346651 0.098222 -0.580653
O17   O     O_3   0.083301 0.776066 0.670705 -0.582805
O18   O     O_3   0.286004 0.860886 0.717236 -0.582760
O19   O     O_3   0.665986 0.182619 0.213117 -0.580923
O20   O     O_3   0.241679 0.347085 0.908686 -0.585725
O21   O     O_3   0.812057 0.666983 0.203471 -0.574458
O22   O     O_3   0.653736 0.236971 0.900478 -0.582247
O23   O     O_3   0.640739 0.213332 0.781036 -0.578586
O24   O     O_3   0.208359 0.910166 0.336476 -0.638918
O25   O     O_3   0.740957 0.666371 0.911967 -0.591791
O26   O     O_3   0.084184 0.232307 0.322628 -0.587432
O27   O     O_3   0.313529 0.835559 0.296598 -0.617097
O28   O     O_3   0.213674 0.369129 0.785692 -0.583253
O29   O     O_3   0.720162 0.589766 0.174906 -0.576297
O30   O     O_3   0.261019 0.850042 0.592529 -0.581190
O31   O     O_3   0.583743 0.275535 0.173476 -0.583285
O32   O     O_3   0.789656 0.351398 0.222483 -0.578428

loop_
_geom_bond_atom_site_label_1
_geom_bond_atom_site_label_2
_ccdc_geom_bond_type
C189  O1    S    
C31   H166  S    
C28   H163  S    
C125  H141  S    
C124  N15   A    
C127  H143  S    
N2    N23   A    
C17   C153  A    
C102  H89   S    
C118  H127  S    
C123  N14   A    
C78   H31   S    
C117  H126  S    
C144  C151  S    
C204  O7    S    
C136  C205  A    
C22   C159  A    
C32   H167  S    
C56   H198  S    
C153  C173  S    
C108  H105  S    
C77   H27   S    
C134  N25   A    
C38   C166  A    
C89   H58   S    
C7    C42   A    
N1    Ni1   S    
C75   H21   S    
C26   C197  A    
C49   C164  A    
C42   C170  A    
C161  C172  S    
C55   H195  S    
C13   C172  A    
C9    C151  A    
C154  N28   A    
C67   H3    S    
C205  O8    S    
C46   N6    A    
C26   H161  S    
C59   C60   S    
C78   H30   S    
C83   H41   S    
C14   O24   S    
C59   H205  S    
C55   H196  S    
C206  O9    S    
C118  H129  S    
C52   H188  S    
C43   C170  A    
C125  N16   A    
C53   H189  S    
C64   H218  S    
C103  H92   S    
C30   C202  A    
N11   Ni7   S    
C85   H47   S    
C21   H156  S    
C174  C198  A    
C163  C183  S    
C110  H111  S    
C116  H123  S    
C139  C192  A    
C97   H76   S    
C159  C179  S    
C92   H63   S    
C146  C207  A    
C41   C169  A    
C1    C171  A    
C71   H12   S    
N2    Ni1   S    
C15   O25   S    
C86   H49   S    
C24   N4    A    
C105  O18   S    
N1    N4    A    
C50   H185  S    
C44   H179  S    
C61   H209  S    
C6    C151  A    
C106  H100  S    
C60   H206  S    
C37   C208  A    
N27   Ni4   S    
C122  H139  S    
C187  N31   A    
C59   O27   S    
N27   N32   A    
N10   N20   A    
C18   C190  A    
N11   N19   A    
C1    N1    A    
C49   H184  S    
C62   H212  S    
C69   H6    S    
C117  O24   S    
C72   C73   S    
C29   C158  A    
C137  C204  A    
C26   C161  A    
C82   H40   S    
C54   H194  S    
C128  H144  S    
C61   O28   S    
N14   N26   A    
C158  C178  S    
C39   H174  S    
N15   Ni5   S    
C109  O20   S    
C123  H124  S    
N10   Ni6   S    
C198  H214  S    
C191  O23   S    
N19   Ni5   S    
C12   C148  A    
C198  N32   A    
C7    C152  A    
C80   H34   S    
C100  O16   S    
C98   C99   S    
C127  N18   A    
N28   Ni2   S    
C76   H26   S    
C107  H102  S    
C67   C69   S    
C109  C110  S    
C40   H175  S    
C121  H137  S    
C114  H117  S    
C132  N23   A    
C136  C146  S    
C19   C191  A    
C53   H191  S    
C156  C175  S    
C35   H35   S    
N8    N28   A    
N3    Ni3   S    
C165  C177  A    
C142  C199  A    
C110  H109  S    
C138  C191  A    
C16   C51   A    
C97   H78   S    
C31   C156  A    
C88   H54   S    
C85   C86   S    
C33   C205  A    
C71   H10   S    
C81   H36   S    
C8    C152  A    
C34   H169  S    
C134  H150  S    
C196  O31   S    
C33   C153  A    
C66   H223  S    
C115  C116  S    
C131  H147  S    
C129  N20   A    
C80   H33   S    
C51   C162  A    
N5    Ni1   S    
C114  H118  S    
C24   C171  A    
C187  H203  S    
C74   H20   S    
C106  H98   S    
C43   H178  S    
C68   N8    A    
C60   H208  S    
C201  O4    S    
C107  H103  S    
C95   H73   S    
C36   C163  A    
C107  C108  S    
C60   H207  S    
C11   O21   S    
C113  N13   A    
C140  C193  A    
C197  O32   S    
C90   H90   S    
C176  C178  A    
C18   H153  S    
C23   C160  A    
C84   H43   S    
C35   C179  A    
C82   H38   S    
C78   O5    S    
C1    H1    S    
C98   O15   S    
C27   H162  S    
C27   C199  A    
C100  H86   S    
N20   Ni7   S    
C119  H130  S    
C102  H88   S    
N3    N12   A    
C14   C147  A    
C94   O13   S    
C16   C145  A    
C116  H122  S    
C7    O17   S    
C93   H65   S    
C94   H70   S    
C115  H120  S    
C56   O23   S    
C83   C84   S    
C90   C181  A    
N29   Ni1   S    
C10   C45   A    
C135  H151  S    
N14   Ni6   S    
C111  O21   S    
C25   C196  A    
C130  C180  A    
C37   C164  A    
C155  C174  S    
C208  O11   S    
C111  H114  S    
C99   H84   S    
C52   C53   S    
C88   H56   S    
C54   C55   S    
C95   H72   S    
C169  C180  S    
C25   H160  S    
C13   H13   S    
C87   O9    S    
C139  C202  A    
C74   O3    S    
C120  H132  S    
C15   C146  A    
C118  H128  S    
C144  C196  A    
C96   O14   S    
C112  H112  S    
C122  H138  S    
C136  C189  A    
C20   H155  S    
C126  C188  A    
C109  H108  S    
C117  C118  S    
C57   C177  A    
N22   Ni5   S    
C41   H176  S    
C113  C183  A    
C199  O2    S    
C108  H106  S    
C56   C58   S    
C135  N26   A    
N23   Ni3   S    
N16   N24   A    
C61   C62   S    
C45   C168  A    
C137  C190  A    
N32   Ni2   S    
C23   C195  A    
C84   H45   S    
N9    N21   A    
C13   N3    A    
C113  H113  S    
C4    O14   S    
C30   C157  A    
C87   C88   S    
C126  H142  S    
C104  H93   S    
C168  C188  S    
C58   H201  S    
C140  C150  S    
C37   H172  S    
C21   C158  A    
C11   C47   A    
C8    C43   A    
C12   C48   A    
C91   H62   S    
C103  H91   S    
C119  O25   S    
C137  C145  S    
C63   H216  S    
N5    N31   A    
C29   H164  S    
C76   O4    S    
C93   H67   S    
C2    C173  A    
C73   H18   S    
C92   H64   S    
C179  C187  A    
C108  H104  S    
C57   N7    A    
C38   H173  S    
C71   H11   S    
C142  C152  S    
C107  O19   S    
C44   C169  A    
C86   H50   S    
C79   N9    A    
C65   H221  S    
C120  H133  S    
N12   Ni2   S    
N13   N18   A    
C11   C149  A    
C144  C197  A    
C112  N12   A    
C115  O22   S    
C142  C195  A    
C70   C71   S    
C30   H165  S    
C35   N5    A    
C99   H82   S    
C87   H53   S    
C117  H125  S    
C77   H29   S    
C19   C156  A    
C126  N17   A    
C122  H140  S    
C68   C175  A    
N17   Ni7   S    
C165  H181  S    
C85   O8    S    
C70   H9    S    
C29   C201  A    
C96   H75   S    
C51   H186  S    
C62   H213  S    
C128  C182  A    
C45   H180  S    
C34   C162  A    
C72   H15   S    
C165  N29   A    
C194  O29   S    
C77   H28   S    
C5    C150  A    
C89   H59   S    
C16   O26   S    
C32   C204  A    
C75   H22   S    
C27   C160  A    
C19   H154  S    
N25   Ni8   S    
C123  C184  A    
N13   Ni8   S    
C9    O19   S    
C138  C203  A    
C48   H183  S    
C119  H131  S    
C54   O12   S    
C98   H81   S    
C69   H5    S    
C67   H4    S    
C79   H79   S    
C121  C122  S    
C190  O12   S    
C82   H39   S    
C104  H95   S    
C20   C157  A    
C83   H42   S    
C91   H60   S    
C121  H136  S    
C52   H187  S    
N8    Ni3   S    
C53   H190  S    
C176  N30   A    
C64   H217  S    
C200  O3    S    
C85   H48   S    
C50   C163  A    
C67   O31   S    
C110  H110  S    
C92   O11   S    
C111  H115  S    
C24   H24   S    
C97   H77   S    
C87   H52   S    
C20   C192  A    
C119  C120  S    
C5    O15   S    
C133  N24   A    
C105  C106  S    
C83   O7    S    
C12   O22   S    
C140  C201  A    
C10   C150  A    
C167  C186  S    
C66   H224  S    
C112  C172  A    
C92   C93   S    
C160  C171  S    
N9    Ni5   S    
C111  C114  S    
C78   C80   S    
C132  H148  S    
C94   C95   S    
C61   H210  S    
N30   Ni4   S    
C106  H99   S    
C48   C166  A    
C176  H192  S    
C5    C40   A    
C103  C104  S    
C79   C180  A    
C90   N10   A    
C143  C174  A    
C46   H46   S    
C18   C155  A    
N15   N25   A    
C84   H44   S    
C166  C185  S    
C127  C183  A    
C46   C178  A    
C207  O10   S    
C62   H211  S    
C69   H7    S    
C22   H157  S    
C81   C82   S    
C141  C149  S    
C34   C206  A    
C56   H199  S    
C4    C149  A    
C139  C147  S    
C28   C200  A    
C154  C175  A    
C54   H193  S    
C162  C182  S    
C47   H182  S    
C124  C185  A    
C193  O28   S    
C14   C49   A    
N17   N22   A    
N6    Ni2   S    
C131  N22   A    
C130  H146  S    
C15   C50   A    
N4    Ni4   S    
C23   H158  S    
C154  H170  S    
C115  H119  S    
C3    C38   A    
C58   H200  S    
C6    C41   A    
N24   Ni6   S    
C59   H204  S    
C55   H197  S    
C76   H25   S    
C141  C200  A    
N26   Ni7   S    
C72   O2    S    
C31   C203  A    
C132  C173  A    
C131  C188  A    
C64   H219  S    
C57   H57   S    
C3    C148  A    
C109  H107  S    
N31   Ni3   S    
C134  C185  A    
C147  C208  A    
N16   Ni8   S    
C114  H116  S    
C135  C184  A    
C99   H83   S    
C145  C206  A    
C195  O30   S    
C98   H80   S    
C42   H177  S    
C2    H2    S    
C95   H71   S    
C74   C75   S    
C121  O26   S    
C81   H37   S    
C76   C77   S    
C33   H168  S    
C138  C148  S    
C66   H222  S    
C2    N2    A    
C17   C189  A    
N7    Ni4   S    
C101  N11   A    
C28   C159  A    
C96   H74   S    
C63   C64   S    
C70   O32   S    
C125  C186  A    
N6    N30   A    
C105  H96   S    
C8    O18   S    
C143  N27   A    
C65   O30   S    
C74   H19   S    
C164  C184  S    
C6    O16   S    
C32   C155  A    
C47   C167  A    
C68   H68   S    
C128  N19   A    
C89   O10   S    
C72   H14   S    
C96   C97   S    
C3    O13   S    
C100  C102  S    
C52   O1    S    
C157  C177  S    
C75   H23   S    
C81   O6    S    
N21   Ni8   S    
C133  C186  A    
C17   H152  S    
C25   C161  A    
C170  C181  S    
N7    N29   A    
C133  H149  S    
C89   C91   S    
C143  H159  S    
C129  H145  S    
C129  C181  A    
C9    C44   A    
C104  H94   S    
C58   H202  S    
C73   H16   S    
C10   O20   S    
C100  H85   S    
C91   H61   S    
C124  H135  S    
N18   Ni6   S    
C102  H87   S    
C130  N21   A    
C4    C39   A    
C70   H8    S    
C80   H32   S    
C63   H215  S    
C116  H121  S    
C93   H66   S    
C103  O17   S    
C192  O27   S    
C94   H69   S    
C73   H17   S    
C202  O5    S    
C36   C207  A    
C141  C194  A    
C39   C167  A    
C63   O29   S    
C86   H51   S    
C40   C168  A    
C65   H220  S    
C120  H134  S    
C36   H171  S    
C101  H101  S    
C88   H55   S    
C65   C66   S    
C21   C193  A    
C22   C194  A    
C101  C182  A    
C203  O6    S    
C105  H97   S    
