data_mof_unit_33617.cif
_audit_creation_date              2012-12-11T14:06:49-0500
_audit_creation_method            fapswitch 2.2
_symmetry_space_group_name_H-M    P1
_symmetry_Int_Tables_number       1
_space_group_crystal_system       triclinic
_cell_length_a                    6.939932
_cell_length_b                    17.413479
_cell_length_c                    24.145657
_cell_angle_alpha                 104.604502
_cell_angle_beta                  89.578678
_cell_angle_gamma                 90.224384
_cell_volume                      2823.59904893

loop_
_atom_site_label
_atom_site_type_symbol
_atom_type_description
_atom_site_fract_x
_atom_site_fract_y
_atom_site_fract_z
_atom_type_partial_charge
O1    O     O_R   0.494290 0.391990 0.999150 -0.543264
O2    O     O_R   0.827170 0.534410 0.082350 -0.534644
O3    O     O_R   0.994360 0.608010 0.000850 -0.555273
C1    C     C_R   0.656774 0.549001 0.105960 0.683840
O4    O     O_R   0.824210 0.388010 0.004470 -0.513069
O5    O     O_R   0.991370 0.460560 0.922410 -0.509308
C2    C     C_R   0.653197 0.356670 0.005156 0.750605
O6    O     O_R   0.497270 0.539440 0.077590 -0.566305
O7    O     O_3   0.659770 0.523970 0.973170 -0.323925
V1    V     V_3+5 0.935840 0.495550 0.004980 1.663071
O8    O     O_R   0.320910 0.465590 0.917650 -0.492372
C3    C     C_R   0.153134 0.449717 0.893896 0.892803
O9    O     O_R   0.323870 0.611990 0.995530 -0.523111
C4    C     C_R   0.153609 0.643863 0.995781 0.667273
V2    V     V_3+5 0.435470 0.504450 0.995020 1.684997
O10   O     O_3   0.161670 0.476030 0.026830 -0.387474
C5    C     C_2   0.137712 0.723555 0.984504 0.303333
C6    C     C_2   0.980122 0.770433 0.003135 -0.404753
C7    C     C_R   0.175185 0.243366 0.621695 0.713963
N1    N     N_R   0.112567 0.319323 0.646842 -0.556607
C8    C     C_R   0.029016 0.361842 0.612644 0.762242
C9    C     C_R   0.976409 0.324488 0.555985 -0.127027
C10   C     C_R   0.065665 0.253185 0.528438 -0.087932
C11   C     C_R   0.177904 0.213818 0.561097 -0.163831
C12   C     C_R   0.832622 0.355611 0.527483 0.390791
C13   C     C_R   0.823314 0.332322 0.466970 0.349324
C14   C     C_R   0.925934 0.262474 0.436906 -0.170199
C15   C     C_R   0.040994 0.221442 0.468876 -0.061256
C16   C     C_R   0.129727 0.148354 0.441726 -0.198128
C17   C     C_R   0.230937 0.105717 0.475621 0.301472
C18   C     C_R   0.277105 0.143875 0.532992 0.402375
C19   C     C_R   0.911820 0.228925 0.376837 0.772074
N2    N     N_R   0.012194 0.162260 0.350751 -0.569878
C20   C     C_R   0.120113 0.122274 0.381266 0.745966
O11   O     O_2   0.222030 0.194373 0.654626 -0.449647
O12   O     O_2   0.001528 0.440673 0.632161 -0.430550
O13   O     O_2   0.799147 0.261315 0.343861 -0.399371
O14   O     O_2   0.224957 0.059848 0.352368 -0.437059
C21   C     C_R   0.846449 0.086248 0.264265 -0.047137
C22   C     C_R   0.830790 0.059882 0.204710 -0.148585
C23   C     C_R   0.974015 0.078894 0.168950 -0.099289
C24   C     C_R   0.130459 0.126287 0.193811 -0.241960
H1    H     H_    0.239312 0.142695 0.166514 0.179969
C25   C     C_R   0.144869 0.154599 0.253403 0.377048
C26   C     C_R   0.003021 0.133451 0.289147 0.222947
C27   C     C_R   0.986359 0.406992 0.738862 -0.124051
H2    H     H_    0.862399 0.421711 0.716832 0.210071
C28   C     C_R   0.006766 0.445418 0.797024 0.343364
C29   C     C_R   0.146965 0.418355 0.830188 -0.309025
C30   C     C_R   0.279925 0.359563 0.801000 0.290757
C31   C     C_R   0.278555 0.334210 0.740951 -0.151966
C32   C     C_R   0.126160 0.353492 0.708885 0.178757
C33   C     C_R   0.597104 0.878898 0.612730 0.653939
N3    N     N_R   0.493209 0.843662 0.647936 -0.575412
C34   C     C_R   0.389920 0.775692 0.626102 0.702094
C35   C     C_R   0.403716 0.735027 0.567116 -0.203886
C36   C     C_R   0.498530 0.774302 0.530106 -0.050387
C37   C     C_R   0.594741 0.846976 0.553045 -0.004020
C38   C     C_R   0.319914 0.658962 0.543595 0.355312
C39   C     C_R   0.309060 0.629297 0.483004 0.341066
C40   C     C_R   0.417730 0.666302 0.446483 -0.235977
C41   C     C_R   0.500176 0.740967 0.470081 -0.063953
C42   C     C_R   0.581079 0.783597 0.433273 0.001272
C43   C     C_R   0.673754 0.856100 0.456707 0.001824
C44   C     C_R   0.685741 0.886244 0.515846 -0.010452
C45   C     C_R   0.457291 0.630026 0.387483 0.768105
N4    N     N_R   0.519976 0.674257 0.350591 -0.539840
C46   C     C_R   0.568245 0.752671 0.373566 0.645023
O15   O     O_2   0.698661 0.945533 0.635234 -0.476545
O16   O     O_2   0.268951 0.749861 0.661358 -0.453567
O17   O     O_2   0.449923 0.550667 0.369078 -0.425721
O18   O     O_2   0.604646 0.801232 0.339129 -0.492499
C47   C     C_R   0.721355 0.660594 0.262065 -0.043003
H3    H     H_    0.823270 0.702488 0.286414 0.212714
C48   C     C_R   0.756132 0.632655 0.203029 -0.103267
C49   C     C_R   0.635703 0.575590 0.169278 -0.106193
C50   C     C_R   0.476689 0.549376 0.195357 -0.234678
H4    H     H_    0.381228 0.506033 0.168979 0.184806
C51   C     C_R   0.428574 0.582344 0.253135 0.503575
C52   C     C_R   0.555580 0.638085 0.289047 0.176489
C53   C     C_R   0.654223 0.876040 0.742111 -0.053571
C54   C     C_R   0.644820 0.900629 0.802018 -0.161598
C55   C     C_R   0.469740 0.927176 0.830226 -0.052311
C56   C     C_R   0.306032 0.930682 0.796849 -0.144767
C57   C     C_R   0.316208 0.906854 0.737039 -0.029966
H5    H     H_    0.187562 0.908779 0.712305 0.144910
C58   C     C_R   0.489485 0.878075 0.709137 0.348662
C59   C     C_2   0.638000 0.276925 0.016465 0.249121
C60   C     C_2   0.478680 0.230497 0.000010 -0.372632
O19   O     O_R   0.618210 0.960470 0.922400 -0.549612
O20   O     O_R   0.291310 0.111960 0.995450 -0.526850
O21   O     O_R   0.124210 0.039530 0.077580 -0.555135
C61   C     C_R   0.461671 0.145736 0.000924 0.825017
O22   O     O_R   0.288310 0.965490 0.917650 -0.535978
O23   O     O_R   0.121180 0.892010 0.999220 -0.512019
C62   C     C_R   0.458072 0.952096 0.893894 0.772039
O24   O     O_R   0.621230 0.107990 0.000760 -0.502230
O25   O     O_3   0.455770 0.976060 0.026840 -0.371709
V3    V     V_3+5 0.179680 0.004440 0.995020 1.619834
O26   O     O_R   0.791670 0.888040 0.004570 -0.527652
C63   C     C_R   0.961779 0.854403 0.000078 0.818032
O27   O     O_R   0.794680 0.034510 0.082370 -0.534134
C64   C     C_R   0.963162 0.049385 0.105894 0.773722
V4    V     V_3+5 0.680070 0.995560 0.005010 1.629685
O28   O     O_3   0.953840 0.023940 0.973160 -0.364954
S1    S     S_3+6 0.313496 0.747093 0.937341 0.045980
O29   O     O_2   0.219550 0.786339 0.895743 -0.323792
O30   O     O_2   0.460203 0.802051 0.971858 -0.353814
O31   O     O_3   0.424932 0.664186 0.900263 -0.457836
H6    H     H_    0.528261 0.682986 0.878346 0.400536
S2    S     S_3+6 0.334112 0.220294 0.282220 0.123889
O32   O     O_2   0.440143 0.188875 0.325787 -0.275633
O33   O     O_2   0.473187 0.229516 0.236284 -0.285931
O34   O     O_3   0.240288 0.309326 0.314411 -0.390650
H7    H     H_    0.151362 0.321535 0.285907 0.365794
S3    S     S_3+6 0.866726 0.532152 0.823699 0.072790
O35   O     O_2   0.972090 0.590400 0.870178 -0.307699
O36   O     O_2   0.826623 0.571246 0.776098 -0.284915
O37   O     O_3   0.656017 0.508487 0.849732 -0.450767
H8    H     H_    0.573657 0.489017 0.815718 0.344438
S4    S     S_3+6 0.430282 0.306875 0.837609 0.015574
O38   O     O_2   0.504827 0.232116 0.797536 -0.296909
O39   O     O_2   0.598919 0.357016 0.863645 -0.311874
O40   O     O_3   0.300510 0.282763 0.889686 -0.528146
H9    H     H_    0.193663 0.249387 0.869686 0.337914
H10   H     H_    0.393575 0.296217 0.719572 0.234663
S5    S     S_3+6 0.251661 0.596138 0.588966 0.230036
O41   O     O_2   0.054248 0.619122 0.613551 -0.226893
O42   O     O_2   0.248019 0.510739 0.556045 -0.210682
O43   O     O_3   0.409484 0.605576 0.642879 -0.423593
H11   H     H_    0.358271 0.571004 0.666478 0.396274
S6    S     S_3+6 0.117979 0.563133 0.453551 0.163896
O44   O     O_2   0.194298 0.480648 0.429905 -0.189530
O45   O     O_2   0.966206 0.561721 0.497887 -0.279948
O46   O     O_3   0.011560 0.595234 0.401592 -0.461924
H12   H     H_    0.885647 0.567618 0.395319 0.369679
H13   H     H_    0.741040 0.888780 0.429226 0.190059
H14   H     H_    0.762896 0.941327 0.532275 0.207093
H15   H     H_    0.864288 0.747869 0.025171 0.117593
H16   H     H_    0.878157 0.655489 0.183872 0.145732
S7    S     S_3+6 0.190276 0.564232 0.272053 0.042425
O47   O     O_2   0.113197 0.638495 0.311654 -0.328466
O48   O     O_2   0.070668 0.542994 0.218817 -0.371583
O49   O     O_3   0.177997 0.487280 0.302248 -0.398409
H17   H     H_    0.039653 0.472857 0.301482 0.403037
H18   H     H_    0.788619 0.853345 0.721382 0.150500
H19   H     H_    0.773964 0.897389 0.826227 0.144918
H20   H     H_    0.169365 0.951495 0.816902 0.131751
S8    S     S_3+6 0.820812 0.251816 0.060028 0.006024
O50   O     O_2   0.733449 0.211391 0.102391 -0.327624
O51   O     O_2   0.962045 0.197338 0.022322 -0.343836
O52   O     O_3   0.937645 0.333809 0.096221 -0.495606
H21   H     H_    0.043615 0.314016 0.116132 0.366565
H22   H     H_    0.356847 0.254735 0.982455 0.184895
S9    S     S_3+6 0.630155 0.399502 0.568887 0.141611
O53   O     O_2   0.655197 0.488019 0.585255 -0.203024
O54   O     O_2   0.449108 0.376673 0.534904 -0.273233
O55   O     O_3   0.610937 0.367667 0.628925 -0.516225
H23   H     H_    0.506918 0.400252 0.651466 0.356709
S10   S     S_3+6 0.690295 0.393371 0.431100 0.249852
O56   O     O_2   0.812483 0.411693 0.384316 -0.279698
O57   O     O_2   0.512245 0.349647 0.405570 -0.180558
O58   O     O_3   0.622011 0.479989 0.475120 -0.396384
H24   H     H_    0.627759 0.519158 0.451852 0.372189
S11   S     S_3+6 0.264842 0.000914 0.451236 0.122285
O59   O     O_2   0.448189 0.984698 0.416868 -0.255120
O60   O     O_2   0.275729 0.963100 0.500574 -0.298876
O61   O     O_3   0.079784 0.959087 0.409713 -0.453677
H25   H     H_    0.964570 0.988683 0.427827 0.325145
S12   S     S_3+6 0.488866 0.115276 0.564101 0.109938
O62   O     O_2   0.436688 0.057965 0.599066 -0.246786
O63   O     O_2   0.630167 0.077031 0.518019 -0.339056
O64   O     O_3   0.594595 0.195594 0.606698 -0.474113
H26   H     H_    0.720171 0.176511 0.617147 0.375966
H27   H     H_    0.735746 0.070438 0.291263 0.186280
H28   H     H_    0.708431 0.023582 0.186658 0.138010

loop_
_geom_bond_atom_site_label_1
_geom_bond_atom_site_label_2
_ccdc_geom_bond_type
C34   C35   A    
S11   O59   D    
C33   C37   A    
S9    O54   D    
N2    C26   S    
C47   H3    S    
C5    S1    S    
O58   H24   S    
C1    O6    A    
C33   O15   S    
C39   S6    S    
O22   C62   A    
C3    C29   S    
C60   H22   S    
O46   H12   S    
C8    O12   S    
C51   S7    S    
C50   H4    S    
S3    O35   D    
C13   C14   A    
C16   C17   A    
S12   O63   D    
C8    C9    A    
C15   C16   A    
C48   H16   S    
S7    O48   D    
C57   H5    S    
C17   C18   A    
O23   V3    S    
C12   S9    S    
S12   O62   D    
C38   S5    S    
V2    O10   S    
O25   V3    S    
C27   C32   A    
O26   V4    S    
C35   C36   A    
C23   C24   A    
S4    O40   S    
O21   C64   A    
C27   H2    S    
O8    V2    S    
C40   C45   A    
C2    C59   S    
S3    O36   D    
S6    O44   D    
C9    C12   A    
C10   C11   A    
C13   S10   S    
O1    V2    S    
O7    V1    S    
C21   C26   A    
C57   C58   A    
C45   N4    A    
C38   C39   A    
S11   O60   D    
O1    C2    A    
O9    C4    A    
S9    O55   S    
C47   C48   A    
C4    C5    S    
O27   C64   A    
C30   S4    S    
C24   C25   A    
C6    H15   S    
V4    O28   S    
C54   H19   S    
C43   H13   S    
C56   H20   S    
V3    O28   S    
C27   C28   A    
C19   O13   S    
C42   C43   A    
N4    C46   A    
C34   O16   S    
S10   O58   S    
O61   H25   S    
C36   C41   A    
C11   C18   A    
C56   C57   A    
C21   H27   S    
S7    O49   S    
C21   C22   A    
C22   H28   S    
C30   C31   A    
C12   C13   A    
C33   N3    A    
C16   C20   A    
C54   C55   A    
C59   S8    S    
C53   C54   A    
C31   C32   A    
C39   C40   A    
C6    C63   S    
S10   O57   D    
O2    C1    A    
C48   C49   A    
S5    O42   D    
C45   O17   S    
C41   C42   A    
O20   C61   A    
C37   C44   A    
C55   C56   A    
C46   O18   S    
N1    C8    A    
C5    C6    D    
C50   C51   A    
S2    O33   D    
C10   C15   A    
C49   C50   A    
O37   H8    S    
O27   V4    S    
O19   V4    S    
S4    O38   D    
C53   C58   A    
O3    C4    A    
C44   H14   S    
C22   C23   A    
C53   H18   S    
S11   O61   S    
O9    V2    S    
O55   H23   S    
S8    O52   S    
C24   H1    S    
S5    O41   D    
O2    V1    S    
C61   O24   A    
C14   C15   A    
S4    O39   D    
C25   C26   A    
O4    C2    A    
N3    C34   A    
C28   C29   A    
S2    O32   D    
C14   C19   A    
C20   O14   S    
C31   H10   S    
N4    C52   S    
C17   S11   S    
O49   H17   S    
O5    V1    S    
O8    C3    A    
C35   C38   A    
O19   C62   A    
C18   S12   S    
O6    V2    S    
C42   C46   A    
S3    O37   S    
C28   S3    S    
S10   O56   D    
C7    N1    A    
S8    O51   D    
O43   H11   S    
O7    V2    S    
S5    O43   S    
O4    V1    S    
N1    C32   S    
O3    V1    S    
V1    O10   S    
S8    O50   D    
C19   N2    A    
O5    C3    A    
C36   C37   A    
N3    C58   S    
S1    O30   D    
O22   V3    S    
S6    O46   S    
O25   V4    S    
C55   C62   S    
C43   C44   A    
O26   C63   A    
C47   C52   A    
N2    C20   A    
C7    C11   A    
S2    O34   S    
O34   H7    S    
C60   C61   S    
C40   C41   A    
C1    C49   S    
O24   V4    S    
O64   H26   S    
C51   C52   A    
C25   S2    S    
C23   C64   S    
C59   C60   D    
S6    O45   D    
C29   C30   A    
S1    O29   D    
O31   H6    S    
S9    O53   D    
C9    C10   A    
C7    O11   S    
O52   H21   S    
O20   V3    S    
S7    O47   D    
S12   O64   S    
O23   C63   A    
O21   V3    S    
O40   H9    S    
S1    O31   S    
