data_mof_unit_43289.cif
_audit_creation_date              2012-12-10T17:42:52-0500
_audit_creation_method            fapswitch 2.2
_symmetry_space_group_name_H-M    P1
_symmetry_Int_Tables_number       1
_space_group_crystal_system       triclinic
_cell_length_a                    15.06923
_cell_length_b                    13.703311
_cell_length_c                    15.927898
_cell_angle_alpha                 89.987384
_cell_angle_beta                  87.983513
_cell_angle_gamma                 90.258398
_cell_volume                      3287.01412788

loop_
_atom_site_label
_atom_site_type_symbol
_atom_type_description
_atom_site_fract_x
_atom_site_fract_y
_atom_site_fract_z
_atom_type_partial_charge
C1    C     C_R   0.328701 0.499782 0.499800 0.825610
C2    C     C_3   0.582797 0.566306 0.949091 -0.388662
C3    C     C_3   0.585936 0.562245 0.046431 -0.515946
C4    C     C_1   0.506585 0.499650 0.825254 -0.088966
C5    C     C_1   0.508813 0.499870 0.175332 -0.067267
C6    C     C_1   0.506266 0.500045 0.250712 -0.183606
C7    C     C_R   0.816342 0.548653 0.439317 -0.288492
C8    C     C_R   0.767244 0.499874 0.502643 -0.093156
C9    C     C_R   0.809945 0.450516 0.567424 0.087498
C10   C     C_R   0.903024 0.449821 0.567512 0.119115
C11   C     C_R   0.952626 0.497374 0.502333 0.016744
C12   C     C_R   0.501992 0.500022 0.340166 0.822564
C13   C     C_R   0.908885 0.546969 0.438141 0.114215
C14   C     C_R   0.947574 0.402741 0.631679 -0.190432
C15   C     C_R   0.039617 0.402888 0.631875 -0.235356
C16   C     C_R   0.090221 0.449137 0.567215 0.074382
C17   C     C_R   0.046115 0.496330 0.501795 0.052582
C18   C     C_R   0.095211 0.544635 0.436872 0.117904
C19   C     C_R   0.050904 0.592681 0.373045 -0.207343
C20   C     C_R   0.958354 0.594050 0.373788 -0.202571
C21   C     C_R   0.183697 0.451785 0.567680 -0.059620
C22   C     C_R   0.231872 0.498676 0.501739 -0.105849
C23   C     C_R   0.671099 0.500115 0.500122 0.802268
C24   C     C_R   0.187805 0.544865 0.437118 -0.267320
C25   C     C_R   0.443169 0.793053 0.553587 0.015172
C26   C     C_R   0.443900 0.206252 0.554083 0.006885
C27   C     C_R   0.556706 0.793602 0.446281 0.015037
C28   C     C_R   0.556396 0.206968 0.445984 0.016325
C29   C     C_R   0.557993 0.896665 0.444877 -0.005347
C30   C     C_R   0.557871 0.103891 0.444745 -0.005210
C31   C     C_R   0.499950 0.948154 0.499861 0.086864
C32   C     C_R   0.499983 0.051771 0.499867 0.088583
C33   C     C_R   0.441897 0.896079 0.554879 -0.005545
C34   C     C_R   0.442198 0.103231 0.555080 -0.004919
C35   C     C_R   0.615672 0.949260 0.390063 -0.203023
C36   C     C_R   0.615567 0.051895 0.389956 -0.199967
C37   C     C_R   0.384375 0.050649 0.609737 -0.203914
C38   C     C_R   0.384196 0.948062 0.609630 -0.201902
C39   C     C_R   0.500849 0.499987 0.660049 0.833581
C40   C     C_3   0.420418 0.545862 0.052042 0.014294
C41   C     C_3   0.520895 0.393313 0.048286 0.036050
C42   C     C_3   0.523776 0.394300 0.950253 -0.430666
C43   C     C_3   0.417567 0.534832 0.955249 -0.394218
C44   C     C_1   0.504148 0.499927 0.749761 -0.169523
C45   C     C_3   0.507855 0.499252 0.083258 0.323609
C46   C     C_3   0.507920 0.499022 0.917565 0.275488
Cu1   Cu    Cu3+1 0.499990 0.597420 0.500010 0.938926
Cu2   Cu    Cu3+1 0.499990 0.402580 0.500010 0.947746
H1    H     H_    0.365669 0.480586 0.940360 0.171603
H2    H     H_    0.473631 0.343339 0.924951 0.158149
H3    H     H_    0.070387 0.366206 0.683375 0.166007
H4    H     H_    0.225950 0.581159 0.387108 0.141850
H5    H     H_    0.087871 0.629831 0.322858 0.139915
H6    H     H_    0.925425 0.632097 0.324093 0.138191
H7    H     H_    0.398901 0.751953 0.595463 0.125641
H8    H     H_    0.400869 0.246854 0.596679 0.141204
H9    H     H_    0.601002 0.752914 0.404471 0.123280
H10   H     H_    0.600421 0.248101 0.403916 0.128321
H11   H     H_    0.660847 0.911045 0.347242 0.134231
H12   H     H_    0.660652 0.090574 0.347048 0.136625
H13   H     H_    0.339119 0.088748 0.652433 0.128411
H14   H     H_    0.338933 0.909409 0.652392 0.134076
H15   H     H_    0.586476 0.366753 0.068997 0.128122
H16   H     H_    0.421327 0.625420 0.067016 0.119292
H17   H     H_    0.589799 0.368106 0.926435 0.156442
H18   H     H_    0.399201 0.605850 0.926863 0.137616
H19   H     H_    0.582507 0.637676 0.072242 0.174647
H20   H     H_    0.650510 0.531076 0.064849 0.175297
H21   H     H_    0.570996 0.642744 0.928807 0.173895
H22   H     H_    0.648101 0.543472 0.920980 0.174572
H23   H     H_    0.782153 0.586380 0.390112 0.138690
H24   H     H_    0.911626 0.365851 0.682581 0.178958
N1    N     N_R   0.499930 0.743810 0.499960 -0.183000
N2    N     N_R   0.499930 0.256190 0.499960 -0.185041
O1    O     O_R   0.370250 0.582280 0.500020 -0.585803
O2    O     O_R   0.370250 0.417720 0.500020 -0.572581
O3    O     O_R   0.499990 0.582310 0.379440 -0.586332
O4    O     O_R   0.499990 0.417690 0.379440 -0.570916
O5    O     O_R   0.629730 0.582260 0.499990 -0.580908
O6    O     O_R   0.629730 0.417740 0.499990 -0.594053
O7    O     O_R   0.499980 0.582240 0.620570 -0.581910
O8    O     O_R   0.499980 0.417760 0.620570 -0.574791
C47   C     C_R   0.229649 0.420799 0.643429 0.114784
C48   C     C_R   0.245321 0.321898 0.659708 -0.161387
C49   C     C_R   0.280429 0.294091 0.736210 -0.158508
C50   C     C_R   0.298827 0.364656 0.796587 -0.092116
C51   C     C_R   0.282651 0.463164 0.780204 -0.143280
C52   C     C_R   0.249084 0.491229 0.703698 -0.159398
H25   H     H_    0.228918 0.266741 0.614027 0.127898
H26   H     H_    0.292076 0.217874 0.749329 0.117314
H27   H     H_    0.324657 0.342705 0.856155 0.109886
H28   H     H_    0.294663 0.518568 0.826463 0.119388
H29   H     H_    0.235648 0.567619 0.692316 0.123149
N3    N     N_3   0.340476 0.503158 0.093000 -0.586973
H30   H     H_    0.337438 0.524638 0.156010 0.221560
H31   H     H_    0.284777 0.534449 0.066496 0.208063
N4    N     N_3   0.452771 0.325820 0.082379 -0.563444
H32   H     H_    0.393715 0.334463 0.050757 0.254390
H33   H     H_    0.474105 0.254504 0.070267 0.202839
N5    N     N_3   0.759649 0.403604 0.634504 -0.615327
H34   H     H_    0.715495 0.454056 0.661790 0.212855
H35   H     H_    0.723539 0.345694 0.609864 0.245986

loop_
_geom_bond_atom_site_label_1
_geom_bond_atom_site_label_2
_ccdc_geom_bond_type
C24   H4    S    
C30   C32   A    
C51   C52   A    
C16   C21   A    
C27   C29   A    
C34   C37   A    
C41   C42   S    
Cu2   O2    S    
C19   C20   A    
Cu1   O5    S    
C28   N2    A    
N4    H32   S    
C7    C8    A    
C4    C46   S    
C49   C50   A    
C2    C46   S    
C47   C48   A    
C18   C24   A    
C50   H27   S    
C7    H23   S    
C5    C6    T    
C15   C16   A    
C8    C23   S    
C35   H11   S    
C18   C19   A    
C42   C46   S    
Cu2   O4    S    
C26   C34   A    
C40   C43   S    
C3    H20   S    
C8    C9    A    
C12   O4    A    
C42   H17   S    
C31   C33   A    
C15   H3    S    
C23   O6    A    
C2    H21   S    
C9    C10   A    
C25   N1    A    
C19   H5    S    
C47   C52   A    
C1    C22   S    
C51   H28   S    
N4    H33   S    
C40   C45   S    
C1    O1    A    
Cu1   Cu2   S    
Cu2   N2    S    
C48   C49   A    
Cu1   N1    S    
C20   H6    S    
C27   H9    S    
C50   C51   A    
C43   H1    S    
C4    C44   T    
C5    C45   S    
C3    C45   S    
C35   C36   A    
C32   C34   A    
C37   C38   A    
C31   C32   A    
C12   O3    A    
N5    H35   S    
C17   C18   A    
N3    H31   S    
C39   O7    A    
C42   H2    S    
C9    N5    S    
C10   C14   A    
C22   C24   A    
C48   H25   S    
Cu1   O3    S    
C41   H15   S    
C52   H29   S    
C11   C17   A    
C13   C20   A    
C1    O2    A    
C14   H24   S    
C3    H19   S    
C25   H7    S    
C39   O8    A    
C40   N3    S    
C36   H12   S    
C26   H8    S    
C37   H13   S    
C49   H26   S    
C39   C44   S    
C28   H10   S    
C29   C35   A    
C33   C38   A    
C40   H16   S    
C30   C36   A    
Cu2   O6    S    
C28   C30   A    
C2    C3    S    
Cu1   O1    S    
C29   C31   A    
C27   N1    A    
C6    C12   S    
C11   C13   A    
C16   C17   A    
C2    H22   S    
C43   H18   S    
N5    H34   S    
C26   N2    A    
Cu2   O8    S    
C41   N4    S    
Cu1   O7    S    
N3    H30   S    
C43   C46   S    
C10   C11   A    
C7    C13   A    
C21   C47   S    
C41   C45   S    
C14   C15   A    
C23   O5    A    
C21   C22   A    
C25   C33   A    
C38   H14   S    
