data_mof_unit_56372.cif
_audit_creation_date              2012-12-11T16:28:33-0500
_audit_creation_method            fapswitch 2.2
_symmetry_space_group_name_H-M    P1
_symmetry_Int_Tables_number       1
_space_group_crystal_system       triclinic
_cell_length_a                    16.977728
_cell_length_b                    7.272869
_cell_length_c                    14.935646
_cell_angle_alpha                 91.103289
_cell_angle_beta                  94.558169
_cell_angle_gamma                 90.929245
_cell_volume                      1837.74046352

loop_
_atom_site_label
_atom_site_type_symbol
_atom_type_description
_atom_site_fract_x
_atom_site_fract_y
_atom_site_fract_z
_atom_type_partial_charge
O1    O     O_R   0.663460 0.361760 0.165970 -0.538850
O2    O     O_R   0.336540 0.638240 0.834030 -0.538858
O3    O     O_R   0.836540 0.861760 0.334030 -0.526173
O4    O     O_R   0.163460 0.138240 0.665970 -0.526169
O5    O     O_R   0.827100 0.689870 0.163730 -0.537218
O6    O     O_R   0.172900 0.310130 0.836270 -0.537211
O7    O     O_R   0.672900 0.189870 0.336270 -0.538683
O8    O     O_R   0.327100 0.810130 0.663730 -0.538685
C1    C     C_R   0.854548 0.523276 0.145223 0.709437
C2    C     C_R   0.145453 0.476725 0.854778 0.709446
C3    C     C_R   0.644475 0.023363 0.353594 0.708622
C4    C     C_R   0.355526 0.976637 0.646408 0.708635
O9    O     O_R   0.663490 0.691370 0.155500 -0.530351
O10   O     O_R   0.336510 0.308630 0.844500 -0.530350
O11   O     O_R   0.836510 0.191370 0.344500 -0.544134
O12   O     O_R   0.163490 0.808630 0.655500 -0.544138
O13   O     O_R   0.671770 0.863320 0.325740 -0.530722
O14   O     O_R   0.328230 0.136680 0.674260 -0.530725
O15   O     O_R   0.828230 0.363320 0.174260 -0.532673
O16   O     O_R   0.171770 0.636680 0.825740 -0.532674
C5    C     C_R   0.637899 0.520699 0.131475 0.668260
C6    C     C_R   0.362096 0.479303 0.868531 0.668258
C7    C     C_R   0.861228 0.024939 0.370160 0.665904
C8    C     C_R   0.138775 0.975060 0.629837 0.665908
O17   O     O_3   0.752910 0.528800 0.305860 -0.374809
O18   O     O_3   0.247090 0.471200 0.694140 -0.374813
O19   O     O_3   0.747090 0.028800 0.194140 -0.372167
O20   O     O_3   0.252910 0.971200 0.805860 -0.372172
V1    V     V_3+5 0.749460 0.803010 0.239640 1.409830
V2    V     V_3+5 0.250540 0.196990 0.760360 1.409860
V3    V     V_3+5 0.750540 0.303010 0.260360 1.390853
V4    V     V_3+5 0.249460 0.696990 0.739640 1.390834
C9    C     C_1   0.469782 0.994204 0.531270 -0.005203
C10   C     C_1   0.530224 0.005796 0.468738 -0.005189
C11   C     C_1   0.030536 0.495013 0.969081 -0.021086
C12   C     C_1   0.969471 0.504989 0.030928 -0.020993
H1    H     H_    0.787824 0.921588 0.690090 0.127040
H2    H     H_    0.212180 0.078198 0.309872 0.127009
H3    H     H_    0.705677 0.703359 0.822058 0.108939
H4    H     H_    0.294301 0.296827 0.177969 0.108936
C13   C     C_R   0.015720 0.096576 0.319398 -0.170722
C14   C     C_R   0.984285 0.903291 0.680573 -0.170731
C15   C     C_R   0.488182 0.401108 0.180847 -0.175994
C16   C     C_R   0.511812 0.598889 0.819156 -0.175971
C17   C     C_R   0.089291 0.115885 0.285998 0.075047
C18   C     C_R   0.910712 0.883882 0.713954 0.075040
C19   C     C_R   0.417435 0.338897 0.210749 0.087252
C20   C     C_R   0.582551 0.661157 0.789260 0.087278
C21   C     C_R   0.156214 0.069629 0.339357 -0.119863
C22   C     C_R   0.843790 0.930193 0.660607 -0.119886
C23   C     C_R   0.349361 0.342458 0.153219 -0.120856
C24   C     C_R   0.650621 0.657667 0.846798 -0.120927
C25   C     C_R   0.150983 0.002105 0.426323 0.099486
C26   C     C_R   0.849025 0.997818 0.573662 0.099494
C27   C     C_R   0.349556 0.425234 0.069238 0.112035
C28   C     C_R   0.650435 0.574858 0.930773 0.112111
C29   C     C_R   0.076997 0.008817 0.466744 0.008184
C30   C     C_R   0.923010 0.991144 0.533243 0.008196
C31   C     C_R   0.423680 0.458578 0.031198 0.019446
C32   C     C_R   0.576314 0.541456 0.968809 0.019467
C33   C     C_R   0.007566 0.043656 0.409032 0.041420
C34   C     C_R   0.992441 0.956289 0.590951 0.041432
C35   C     C_R   0.494115 0.453509 0.090736 0.033075
C36   C     C_R   0.505879 0.546500 0.909269 0.033071
C37   C     C_R   0.069168 0.975785 0.560296 -0.151604
C38   C     C_R   0.930839 0.024205 0.439694 -0.151602
C39   C     C_R   0.430659 0.497194 0.938369 -0.147551
C40   C     C_R   0.569337 0.502812 0.061637 -0.147545
C41   C     C_1   0.418130 0.985353 0.584001 -0.208349
C42   C     C_1   0.581875 0.014648 0.416005 -0.208353
C43   C     C_1   0.082607 0.486147 0.916877 -0.210739
C44   C     C_1   0.917398 0.513854 0.083129 -0.210775
H5    H     H_    0.965075 0.125884 0.273685 0.125617
H6    H     H_    0.034930 0.874000 0.726289 0.125625
H7    H     H_    0.538639 0.404352 0.229607 0.125341
H8    H     H_    0.461358 0.595597 0.770391 0.125335
C45   C     C_3   0.222179 0.908489 0.471052 -0.337463
C46   C     C_3   0.282658 0.835742 0.409312 -0.817194
H9    H     H_    0.253659 0.743606 0.355908 0.234161
H10   H     H_    0.314622 0.948797 0.379156 0.221361
H11   H     H_    0.327665 0.758518 0.450024 0.233902
H12   H     H_    0.251543 0.008509 0.519320 0.165807
H13   H     H_    0.201724 0.784548 0.504980 0.201482
C47   C     C_3   0.777831 0.091484 0.528957 -0.337473
C48   C     C_3   0.717379 0.164264 0.590722 -0.817160
H14   H     H_    0.685413 0.051230 0.620893 0.221357
H15   H     H_    0.746400 0.256393 0.644116 0.234153
H16   H     H_    0.672367 0.241505 0.550025 0.233889
H17   H     H_    0.798289 0.215417 0.495025 0.201474
H18   H     H_    0.748446 0.991487 0.480692 0.165805
C49   C     C_3   0.270041 0.493560 0.031263 -0.355812
C50   C     C_3   0.228528 0.610602 0.099102 -0.785525
H19   H     H_    0.208942 0.528051 0.155104 0.214011
H20   H     H_    0.268059 0.724915 0.126576 0.235526
H21   H     H_    0.175107 0.669934 0.064395 0.231422
H22   H     H_    0.275378 0.587148 0.975366 0.189326
H23   H     H_    0.231801 0.373395 0.009232 0.177321
C51   C     C_3   0.729960 0.506564 0.968729 -0.355773
C52   C     C_3   0.771425 0.389401 0.900900 -0.785552
H24   H     H_    0.731923 0.274871 0.873619 0.235525
H25   H     H_    0.790860 0.471763 0.844761 0.213976
H26   H     H_    0.824937 0.330384 0.935559 0.231399
H27   H     H_    0.768216 0.626743 0.990695 0.177289
H28   H     H_    0.724661 0.413074 0.024669 0.189305
C53   C     C_3   0.095852 0.163773 0.189180 -0.371093
C54   C     C_3   0.080029 0.991778 0.129227 -0.304164
C55   C     C_3   0.102738 0.023635 0.033950 -0.748909
H29   H     H_    0.069788 0.140820 0.004617 0.242673
H30   H     H_    0.167197 0.052537 0.034137 0.225494
H31   H     H_    0.087726 0.899355 0.991342 0.223011
H32   H     H_    0.114775 0.875746 0.157842 0.203136
H33   H     H_    0.016420 0.952459 0.127369 0.197457
H34   H     H_    0.053118 0.272472 0.169015 0.181797
H35   H     H_    0.155917 0.219800 0.180434 0.168244
C56   C     C_3   0.904145 0.835964 0.810763 -0.371019
C57   C     C_3   0.919622 0.008123 0.870683 -0.304298
C58   C     C_3   0.896878 0.976114 0.965932 -0.748814
H36   H     H_    0.832438 0.946904 0.965676 0.225435
H37   H     H_    0.929911 0.859074 0.995295 0.242669
H38   H     H_    0.911750 0.100440 0.008558 0.222973
H39   H     H_    0.983171 0.048033 0.872606 0.197494
H40   H     H_    0.884703 0.123823 0.841994 0.203126
H41   H     H_    0.844160 0.779372 0.819432 0.168274
H42   H     H_    0.947052 0.727673 0.831015 0.181762
C59   C     C_3   0.413639 0.279720 0.306377 -0.364758
C60   C     C_3   0.366208 0.416064 0.359187 -0.330264
C61   C     C_3   0.366737 0.365692 0.457832 -0.725356
H43   H     H_    0.342673 0.224698 0.463464 0.236270
H44   H     H_    0.427794 0.375306 0.490523 0.230241
H45   H     H_    0.328758 0.459796 0.493836 0.218869
H46   H     H_    0.392645 0.556020 0.354600 0.207900
H47   H     H_    0.303908 0.417681 0.330106 0.193033
H48   H     H_    0.386450 0.140432 0.305785 0.165623
H49   H     H_    0.474035 0.271341 0.340314 0.184455
C62   C     C_3   0.586348 0.720306 0.693627 -0.364752
C63   C     C_3   0.633806 0.583982 0.640838 -0.330255
C64   C     C_3   0.633274 0.634309 0.542187 -0.725364
H50   H     H_    0.572219 0.624652 0.509494 0.230240
H51   H     H_    0.657325 0.775312 0.536542 0.236273
H52   H     H_    0.671264 0.540208 0.506196 0.218866
H53   H     H_    0.696106 0.582429 0.669926 0.192998
H54   H     H_    0.607391 0.444007 0.645440 0.207904
H55   H     H_    0.525953 0.728621 0.659681 0.184451
H56   H     H_    0.613515 0.859617 0.694207 0.165633

loop_
_geom_bond_atom_site_label_1
_geom_bond_atom_site_label_2
_ccdc_geom_bond_type
C59   H49   S    
O17   V3    S    
C4    C41   S    
O1    C5    A    
C60   C61   S    
C27   C31   A    
O19   V1    S    
O13   V1    S    
C20   C62   S    
O3    C7    A    
C11   C12   S    
C1    C44   S    
C28   C51   S    
O15   V3    S    
C26   C47   S    
C3    C42   S    
C15   C35   A    
C62   C63   S    
H2    C21   S    
C54   H33   S    
C45   C46   S    
C16   C36   A    
O7    C3    A    
C64   H51   S    
C30   C38   A    
C22   C26   A    
C57   H40   S    
C18   C56   S    
C60   H46   S    
C7    C38   S    
O9    V1    S    
C58   H37   S    
O16   V4    S    
O4    C8    A    
C46   H10   S    
C54   C55   S    
C45   H13   S    
C12   C44   T    
C56   C57   S    
O1    V3    S    
C57   C58   S    
O2    V4    S    
C14   C18   A    
C16   H8    S    
C27   C49   S    
C31   C39   A    
C49   H22   S    
C33   C38   A    
C1    O15   A    
C2    O16   A    
C51   H27   S    
O2    C6    A    
C63   H54   S    
C55   H29   S    
C53   C54   S    
O14   V2    S    
C13   C33   A    
C10   C42   T    
C9    C41   T    
C2    C43   S    
O11   C7    A    
H3    C24   S    
C11   C43   T    
O12   C8    A    
C55   H30   S    
C47   H18   S    
O10   V2    S    
C17   C53   S    
C19   C59   S    
O5    V1    S    
C54   H32   S    
C48   H15   S    
C15   H7    S    
C64   H52   S    
C14   H6    S    
C56   H41   S    
C57   H39   S    
O8    V4    S    
C36   C39   A    
C53   H35   S    
O7    V3    S    
C47   C48   S    
C58   H38   S    
C49   C50   S    
C25   C29   A    
C46   H9    S    
C19   C23   A    
C48   H14   S    
C50   H21   S    
C28   C32   A    
C25   C45   S    
C61   H44   S    
O5    C1    A    
C63   H53   S    
C52   H24   S    
C60   H47   S    
O8    C4    A    
C50   H20   S    
C17   C21   A    
C53   H34   S    
O9    C5    A    
C49   H23   S    
O11   V3    S    
C30   C34   A    
C8    C37   S    
C62   H56   S    
C52   H25   S    
C5    C40   S    
C59   C60   S    
C55   H31   S    
C47   H17   S    
C61   H43   S    
C26   C30   A    
C48   H16   S    
C59   H48   S    
C14   C34   A    
C35   C40   A    
C3    O13   A    
C56   H42   S    
C34   C37   A    
O6    V2    S    
C29   C37   A    
C63   C64   S    
O6    C2    A    
C29   C33   A    
O18   V4    S    
O12   V4    S    
H4    C23   S    
C64   H50   S    
C18   C22   A    
C31   C35   A    
C32   C36   A    
O10   C6    A    
O20   V2    S    
C61   H45   S    
C58   H36   S    
H1    C22   S    
C46   H11   S    
O3    V1    S    
C45   H12   S    
C21   C25   A    
C62   H55   S    
C50   H19   S    
C9    C10   S    
C23   C27   A    
C6    C39   S    
C13   H5    S    
C24   C28   A    
C20   C24   A    
C52   H26   S    
C32   C40   A    
C51   C52   S    
C4    O14   A    
C13   C17   A    
C15   C19   A    
C51   H28   S    
O4    V2    S    
C16   C20   A    
