data_mof_unit_20275.cif
_audit_creation_date              2012-12-10T16:39:28-0500
_audit_creation_method            fapswitch 2.2
_symmetry_space_group_name_H-M    P1
_symmetry_Int_Tables_number       1
_space_group_crystal_system       triclinic
_cell_length_a                    16.85021
_cell_length_b                    16.841084
_cell_length_c                    16.995285
_cell_angle_alpha                 65.549493
_cell_angle_beta                  65.121982
_cell_angle_gamma                 65.358019
_cell_volume                      3806.87712696

loop_
_atom_site_label
_atom_site_type_symbol
_atom_type_description
_atom_site_fract_x
_atom_site_fract_y
_atom_site_fract_z
_atom_type_partial_charge
C1    C     C_R   0.327325 0.948179 0.460321 -0.036278
C2    C     C_R   0.316186 0.432691 0.997568 0.007520
C3    C     C_R   0.552023 0.425032 0.965045 -0.020660
C4    C     C_R   0.036741 0.443184 0.580777 -0.040855
C5    C     C_R   0.966016 0.542991 0.431454 -0.024097
C6    C     C_R   0.002486 0.681442 0.568642 -0.017090
C7    C     C_R   0.014449 0.305212 0.435619 -0.014103
C8    C     C_R   0.451866 0.992729 0.454651 0.069779
C9    C     C_R   0.548097 0.014832 0.543101 0.073163
C10   C     C_R   0.994925 0.447202 0.456798 0.071332
C11   C     C_R   0.011589 0.539287 0.552946 0.068933
C12   C     C_R   0.455887 0.451180 0.990228 0.069844
C13   C     C_R   0.543132 0.549051 0.011793 0.070207
C14   C     C_R   0.990200 0.171618 0.428195 0.926940
C15   C     C_R   0.672211 0.058810 0.538524 -0.025427
C16   C     C_R   0.024125 0.822152 0.568241 0.923262
C17   C     C_R   0.178575 0.432782 0.972713 0.940393
C18   C     C_R   0.822136 0.568563 0.024229 0.909109
C19   C     C_R   0.431459 0.976289 0.177703 0.867570
C20   C     C_R   0.568627 0.024197 0.822252 0.933406
C21   C     C_R   0.561067 0.820543 0.038778 0.838561
C22   C     C_R   0.438861 0.179551 0.961600 0.919922
C23   C     C_R   0.037836 0.561753 0.820578 0.840080
C24   C     C_R   0.970752 0.434053 0.178699 0.951394
C25   C     C_R   0.820546 0.039737 0.560991 0.870033
C26   C     C_R   0.961559 0.447688 0.328062 -0.027396
C27   C     C_R   0.179648 0.962598 0.438161 0.961869
C28   C     C_R   0.405494 0.978876 0.410319 0.069681
C29   C     C_R   0.594667 0.027504 0.587929 0.073143
C30   C     C_R   0.989984 0.400493 0.406949 0.074847
C31   C     C_R   0.024477 0.585630 0.597828 0.073363
C32   C     C_R   0.411908 0.404413 0.976563 0.056204
C33   C     C_R   0.587415 0.595840 0.025084 0.071692
C34   C     C_R   0.279874 0.940432 0.411814 -0.192160
C35   C     C_R   0.720233 0.064570 0.587520 -0.204937
C36   C     C_R   0.976771 0.394704 0.270687 -0.238834
C37   C     C_R   0.055130 0.537059 0.674917 -0.026867
C38   C     C_R   0.060944 0.587778 0.721382 -0.211513
C39   C     C_R   0.413618 0.279448 0.937922 -0.188546
C40   C     C_R   0.586372 0.720674 0.063611 -0.208474
C41   C     C_R   0.604392 0.032782 0.725641 -0.247924
C42   C     C_R   0.396567 0.969144 0.274051 -0.214169
C43   C     C_R   0.725279 0.604844 0.032229 -0.258897
C44   C     C_R   0.275341 0.396793 0.965654 -0.215377
C45   C     C_R   0.031834 0.724990 0.604357 -0.243147
C46   C     C_R   0.005361 0.260018 0.387406 -0.220778
C47   C     C_R   0.501079 0.956547 0.731520 -0.083432
C48   C     C_R   0.462550 0.326649 0.945678 -0.026981
C49   C     C_R   0.501624 0.046431 0.266078 -0.108415
C50   C     C_R   0.954261 0.729271 0.503888 -0.082530
C51   C     C_R   0.051130 0.257288 0.508368 -0.069825
C52   C     C_R   0.733184 0.502732 0.954430 -0.097688
C53   C     C_R   0.265949 0.498270 0.045656 -0.050904
C54   C     C_R   0.302337 0.922194 0.555904 -0.003451
C55   C     C_R   0.697124 0.085937 0.443093 0.009199
C56   C     C_R   0.558944 0.301741 0.919897 0.014452
C57   C     C_R   0.440358 0.698728 0.081621 0.004150
C58   C     C_R   0.924163 0.544026 0.309227 -0.010101
C59   C     C_R   0.536973 0.673285 0.056474 -0.028165
C60   C     C_R   0.081050 0.440663 0.701179 0.004404
C61   C     C_R   0.327294 0.927775 0.328112 0.320270
C62   C     C_R   0.673832 0.073990 0.672846 0.335720
C63   C     C_R   0.013031 0.300027 0.298083 0.343357
C64   C     C_R   0.071575 0.672907 0.674162 0.290710
C65   C     C_R   0.329769 0.327218 0.924875 0.271459
C66   C     C_R   0.671833 0.674041 0.073630 0.350219
C67   C     C_R   0.647184 0.080570 0.396690 -0.055829
C68   C     C_R   0.352859 0.927520 0.601655 -0.066153
C69   C     C_R   0.074717 0.392721 0.653479 -0.070537
C70   C     C_R   0.566993 0.004256 0.683098 -0.013730
C71   C     C_R   0.924707 0.592123 0.361204 -0.062418
C72   C     C_R   0.394297 0.648524 0.075399 -0.073106
C73   C     C_R   0.604593 0.352527 0.925610 -0.064604
C74   C     C_R   0.553126 0.054861 0.308231 -0.120456
C75   C     C_R   0.448321 0.951062 0.689404 -0.076779
C76   C     C_R   0.307482 0.551705 0.051394 -0.113486
C77   C     C_R   0.691492 0.449271 0.949162 -0.081219
C78   C     C_R   0.052215 0.301598 0.561158 -0.108050
C79   C     C_R   0.946038 0.685181 0.454236 -0.067988
C80   C     C_R   0.669493 0.111907 0.300678 0.356693
C81   C     C_R   0.434340 0.999570 0.315218 -0.014129
C82   C     C_R   0.332175 0.895128 0.697733 0.280354
C83   C     C_R   0.103470 0.295556 0.677705 0.339791
C84   C     C_R   0.886481 0.688368 0.343936 0.310106
C85   C     C_R   0.297059 0.670438 0.105080 0.346514
C86   C     C_R   0.701498 0.332051 0.894027 0.288540
C87   C     C_R   0.630334 0.088371 0.256850 0.334495
C88   C     C_R   0.371633 0.917878 0.741227 0.323873
C89   C     C_R   0.254496 0.629766 0.082166 0.345660
C90   C     C_R   0.744382 0.372169 0.916924 0.317589
C91   C     C_R   0.080273 0.251168 0.639643 0.350395
C92   C     C_R   0.683317 0.568220 0.002489 -0.021411
C93   C     C_R   0.908119 0.735238 0.381298 0.304699
C94   C     C_R   0.526558 0.029577 0.403483 -0.004862
C95   C     C_R   0.473709 0.977878 0.594133 -0.007785
C96   C     C_R   0.027869 0.397445 0.533020 -0.026878
C97   C     C_R   0.974546 0.589167 0.479446 -0.011756
C98   C     C_R   0.403470 0.526189 0.026172 -0.025629
C99   C     C_R   0.595476 0.474295 0.975462 -0.006840
C100  C     C_R   0.574627 0.040800 0.447626 -0.014880
C101  C     C_R   0.425199 0.967325 0.550163 -0.020968
C102  C     C_R   0.446904 0.575385 0.036814 -0.038860
H1    H     H_    0.433731 0.802136 0.201320 0.342089
H2    H     H_    0.050060 0.046818 0.832815 0.404047
H3    H     H_    0.945709 0.177550 0.950493 0.402984
H4    H     H_    0.055647 0.825345 0.040607 0.386483
H5    H     H_    0.357807 0.711724 0.845139 0.344234
H6    H     H_    0.754589 0.297229 0.260782 0.394730
H7    H     H_    0.850926 0.360188 0.713370 0.341684
H8    H     H_    0.152178 0.879360 0.154664 0.409077
H9    H     H_    0.677229 0.863706 0.297732 0.383740
H10   H     H_    0.150917 0.152677 0.883321 0.408131
H11   H     H_    0.492634 0.919404 0.802014 0.197564
H12   H     H_    0.806928 0.209529 0.618221 0.404860
H13   H     H_    0.511899 0.080962 0.194929 0.217331
H14   H     H_    0.918304 0.800657 0.494993 0.202992
H15   H     H_    0.086173 0.185205 0.519816 0.204621
H16   H     H_    0.804547 0.494707 0.917424 0.200408
H17   H     H_    0.194475 0.506548 0.082328 0.206378
H18   H     H_    0.244743 0.895528 0.594934 0.250164
H19   H     H_    0.754795 0.112742 0.405220 0.216619
H20   H     H_    0.598455 0.244125 0.893252 0.238105
H21   H     H_    0.400925 0.756752 0.107553 0.222586
H22   H     H_    0.896317 0.582351 0.253218 0.238034
H23   H     H_    0.219670 0.247040 0.114766 0.373303
H24   H     H_    0.107458 0.402646 0.758179 0.223565
H25   H     H_    0.250601 0.712708 0.565396 0.390183
H26   H     H_    0.203737 0.434295 0.802462 0.332605
H27   H     H_    0.623791 0.805909 0.211412 0.391326
H28   H     H_    0.177525 0.945503 0.945259 0.393424
H29   H     H_    0.824732 0.063711 0.051317 0.402750
H30   H     H_    0.954416 0.859563 0.188590 0.379968
O1    O     O_R   0.982940 0.138950 0.510160 -0.637819
O2    O     O_R   0.982940 0.510160 0.138950 -0.620240
O3    O     O_R   0.861050 0.017060 0.489840 -0.632561
O4    O     O_R   0.138950 0.982940 0.510160 -0.640139
O5    O     O_R   0.867700 0.025880 0.612340 -0.580401
O6    O     O_R   0.132300 0.974120 0.387660 -0.530091
O7    O     O_R   0.025880 0.612340 0.867700 -0.555914
O8    O     O_R   0.974120 0.387660 0.132300 -0.545418
O9    O     O_R   0.612340 0.867700 0.025880 -0.569047
O10   O     O_R   0.387660 0.132300 0.974120 -0.564698
O11   O     O_R   0.387660 0.974120 0.132300 -0.579193
O12   O     O_R   0.017060 0.861050 0.489840 -0.595355
O13   O     O_R   0.612340 0.025880 0.867700 -0.567815
O14   O     O_R   0.132300 0.387660 0.974120 -0.565807
O15   O     O_R   0.867700 0.612340 0.025880 -0.561208
O16   O     O_R   0.974120 0.132300 0.387660 -0.568089
O17   O     O_R   0.025880 0.867700 0.612340 -0.557131
O18   O     O_2   0.250784 0.793483 0.385885 -0.239843
O19   O     O_2   0.258805 0.894451 0.232310 -0.220372
O20   O     O_3   0.408804 0.771611 0.265858 -0.469886
O21   O     O_2   0.607738 0.204576 0.754513 -0.243816
O22   O     O_2   0.757211 0.093334 0.764147 -0.229684
O23   O     O_R   0.138950 0.510160 0.982940 -0.597391
O24   O     O_3   0.747927 0.219569 0.610774 -0.504169
O25   O     O_2   0.152853 0.147385 0.273446 -0.348086
O26   O     O_2   0.049146 0.207956 0.182195 -0.214039
O27   O     O_3   0.166057 0.292876 0.141486 -0.599077
O28   O     O_2   0.091286 0.766012 0.755751 -0.174977
O29   O     O_2   0.209816 0.621652 0.741965 -0.241215
O30   O     O_3   0.209398 0.759914 0.596927 -0.537377
O31   O     O_2   0.388430 0.249471 0.792640 -0.191810
O32   O     O_2   0.232787 0.258387 0.894085 -0.228386
O33   O     O_3   0.267991 0.407391 0.770727 -0.474095
O34   O     O_R   0.861050 0.489840 0.017060 -0.607759
O35   O     O_2   0.756348 0.611550 0.199640 -0.261625
O36   O     O_2   0.765073 0.760101 0.087070 -0.236015
O37   O     O_3   0.611495 0.751193 0.216266 -0.498664
O38   O     O_2   0.364704 0.835275 0.916586 -0.323350
O39   O     O_2   0.321779 0.001929 0.866891 -0.266948
O40   O     O_3   0.205686 0.926056 0.889451 -0.435938
O41   O     O_2   0.680177 0.004654 0.130710 -0.297996
O42   O     O_2   0.640106 0.171359 0.081389 -0.316231
O43   O     O_3   0.797876 0.077175 0.110264 -0.409409
O44   O     O_2   0.814779 0.907536 0.386251 -0.288015
O45   O     O_R   0.510160 0.982940 0.138950 -0.624577
O46   O     O_2   0.981117 0.872019 0.326300 -0.275970
O47   O     O_3   0.893568 0.890825 0.223660 -0.410453
O48   O     O_2   0.992699 0.128116 0.687155 -0.246408
O49   O     O_2   0.159314 0.072569 0.652484 -0.319442
O50   O     O_3   0.061693 0.106934 0.806803 -0.461579
O51   O     O_2   0.921876 0.365134 0.838638 -0.326629
O52   O     O_2   0.866848 0.322142 0.004056 -0.250692
O53   O     O_3   0.892962 0.206637 0.926088 -0.425595
O54   O     O_2   0.133052 0.675530 0.994733 -0.232747
O55   O     O_2   0.075187 0.642628 0.159779 -0.322294
O56   O     O_R   0.489840 0.017060 0.861050 -0.585747
O57   O     O_3   0.109763 0.797623 0.062838 -0.492177
O58   O     O_2   0.171327 0.860261 0.778366 -0.160502
O59   O     O_2   0.301209 0.747772 0.707791 -0.239669
O60   O     O_3   0.293518 0.750377 0.861021 -0.434658
O61   O     O_2   0.835858 0.137949 0.220895 -0.213405
O62   O     O_2   0.716988 0.246404 0.148244 -0.204972
O63   O     O_3   0.709440 0.262295 0.295779 -0.568279
O64   O     O_2   0.784498 0.171956 0.857530 -0.166437
O65   O     O_2   0.713816 0.301344 0.746879 -0.263062
O66   O     O_3   0.867259 0.295655 0.750239 -0.453758
O67   O     O_R   0.489840 0.861050 0.017060 -0.637751
O68   O     O_2   0.138388 0.718860 0.234870 -0.247501
O69   O     O_2   0.279212 0.709739 0.249613 -0.202812
O70   O     O_3   0.215346 0.847237 0.124236 -0.482773
O71   O     O_2   0.840136 0.769427 0.191436 -0.212001
O72   O     O_2   0.740049 0.684978 0.323043 -0.249334
O73   O     O_3   0.729126 0.842575 0.321848 -0.476067
O74   O     O_2   0.234649 0.138917 0.724245 -0.226103
O75   O     O_2   0.249631 0.280511 0.712823 -0.202122
O76   O     O_3   0.122946 0.216672 0.851841 -0.476359
O77   O     O_R   0.510160 0.138950 0.982940 -0.629245
O78   O     O_R   0.017060 0.489840 0.861050 -0.642948
S1    S     S_3+6 0.308350 0.846377 0.302532 0.119167
S2    S     S_3+6 0.073770 0.136634 0.695935 0.118972
S3    S     S_3+6 0.859570 0.317173 0.921119 0.109921
S4    S     S_3+6 0.140026 0.685524 0.075311 0.101885
S5    S     S_3+6 0.272070 0.812373 0.761340 0.141241
S6    S     S_3+6 0.735931 0.190235 0.237316 0.097672
S7    S     S_3+6 0.766892 0.272625 0.811161 0.115437
S8    S     S_3+6 0.229929 0.736153 0.182675 0.119774
S9    S     S_3+6 0.797697 0.746502 0.292341 0.092863
S10   S     S_3+6 0.181961 0.230386 0.741339 0.128331
S11   S     S_3+6 0.696156 0.148764 0.704288 0.124681
S12   S     S_3+6 0.095593 0.233245 0.223150 0.053263
S13   S     S_3+6 0.146738 0.704723 0.695469 0.121743
S14   S     S_3+6 0.304272 0.307593 0.844985 0.130767
S15   S     S_3+6 0.704770 0.698808 0.145159 0.116990
S16   S     S_3+6 0.316669 0.919860 0.856579 0.096253
S17   S     S_3+6 0.686407 0.085736 0.141840 0.102264
S18   S     S_3+6 0.899243 0.854015 0.329907 0.107044
Zn1   Zn    Zn3+2 0.004880 0.004880 0.583590 1.184706
Zn2   Zn    Zn3+2 0.995120 0.995120 0.416410 1.223396
Zn3   Zn    Zn3+2 0.004880 0.583590 0.004880 1.222516
Zn4   Zn    Zn3+2 0.995120 0.416410 0.995120 1.213880
Zn5   Zn    Zn3+2 0.583590 0.004880 0.004880 1.180218
Zn6   Zn    Zn3+2 0.416410 0.995120 0.995120 1.196682

loop_
_geom_bond_atom_site_label_1
_geom_bond_atom_site_label_2
_ccdc_geom_bond_type
H23   O27   S    
O76   S10   S    
O77   Zn5   S    
H2    O50   S    
C55   H19   S    
O51   S3    D    
H27   O37   S    
C6    C45   A    
O13   Zn5   S    
O68   S8    D    
C74   C94   A    
C48   C56   A    
C85   S8    S    
C50   C79   A    
C72   C85   A    
C44   C65   A    
C75   C95   A    
C14   C46   S    
O14   Zn4   S    
O31   S14   D    
C24   O8    A    
O21   S11   D    
O75   S10   D    
C24   C36   S    
O19   S1    D    
O49   S2    D    
C27   O4    A    
O11   Zn6   S    
C23   O7    A    
C16   O12   A    
O69   S8    D    
C79   C93   A    
C80   C87   A    
C54   H18   S    
O62   S6    D    
C58   C71   A    
C57   C59   A    
C57   H21   S    
C76   C98   A    
C22   O77   A    
C14   O16   A    
C26   C36   A    
O43   S17   S    
C2    C32   A    
C61   S1    S    
C62   S11   S    
H3    O53   S    
O47   S18   S    
O48   S2    D    
O32   S14   D    
O12   Zn2   S    
C3    C12   A    
O59   S5    D    
C4    C96   A    
C3    C73   A    
O15   Zn3   S    
C88   S16   S    
C78   C96   A    
O3    Zn2   S    
H5    O60   S    
C1    C28   A    
O34   Zn4   S    
C15   C55   A    
C15   C29   A    
C16   O17   A    
C10   C96   A    
C74   C87   A    
C35   C62   A    
C36   C63   A    
C8    C101  A    
H9    O73   S    
O60   S5    S    
C12   C98   A    
C19   C42   S    
C9    C29   A    
C76   C89   A    
C89   S4    S    
C6    C31   A    
O55   S4    D    
C11   C31   A    
C33   C59   A    
C40   C59   A    
C40   C66   A    
C12   C32   A    
H8    O70   S    
C32   C48   A    
C63   S12   S    
H7    O66   S    
C42   C81   A    
O40   S16   S    
C41   C62   A    
C21   O67   A    
O9    Zn5   S    
O65   S7    D    
H12   O24   S    
C4    C69   A    
C1    C34   A    
O64   S7    D    
C38   C64   A    
C27   C34   S    
C18   O34   A    
O44   S18   D    
C77   C90   A    
C27   O6    A    
O72   S9    D    
C7    C46   A    
O6    Zn2   S    
C8    C94   A    
C68   C101  A    
H10   O76   S    
C80   S6    S    
C18   O15   A    
O41   S17   D    
C33   C92   A    
H28   O40   S    
O36   S15   D    
C85   C89   A    
O45   Zn5   S    
O74   S10   D    
C98   C102  A    
C34   C61   A    
C31   C37   A    
C64   S13   S    
O24   S11   S    
C4    C11   A    
C86   S7    S    
C56   H20   S    
C13   C99   A    
C25   O5    A    
C1    C54   A    
C47   C70   A    
C13   C33   A    
C37   C38   A    
C69   C83   A    
C84   S9    S    
C68   C82   A    
C20   O56   A    
C14   O1    A    
C10   C30   A    
O39   S16   D    
C94   C100  A    
C22   O10   A    
C50   H14   S    
O50   S2    S    
O2    Zn3   S    
C6    C50   A    
H6    O63   S    
C26   C58   A    
C42   C61   A    
O63   S6    S    
H1    O20   S    
C25   C35   S    
C67   C100  A    
O5    Zn1   S    
C49   H13   S    
O20   S1    S    
C5    C97   A    
C26   C30   A    
C9    C100  A    
C87   S17   S    
O38   S16   D    
C86   C90   A    
O25   S12   D    
C8    C28   A    
O37   S15   S    
O67   Zn6   S    
O66   S7    S    
O16   Zn2   S    
C52   C77   A    
C17   O23   A    
C19   O45   A    
O56   Zn6   S    
C2    C44   A    
H29   O43   S    
O61   S6    D    
C71   C84   A    
O58   S5    D    
C24   O2    A    
C47   H11   S    
C9    C95   A    
O73   S9    S    
C19   O11   A    
C56   C73   A    
C28   C81   A    
C49   C74   A    
O46   S18   D    
C79   C97   A    
C67   C80   A    
C91   S2    S    
C47   C75   A    
C2    C53   A    
C16   C45   S    
C55   C67   A    
C53   H17   S    
O42   S17   D    
O8    Zn4   S    
C23   O78   A    
C78   C91   A    
H25   O30   S    
O27   S12   S    
C83   C91   A    
O4    Zn1   S    
C39   C65   A    
C45   C64   A    
C58   H22   S    
C43   C92   A    
C23   C38   S    
O71   S9    D    
C46   C63   A    
C11   C97   A    
O17   Zn1   S    
O18   S1    D    
O70   S8    S    
O22   S11   D    
C60   H24   S    
C17   O14   A    
C51   C78   A    
C21   O9    A    
C5    C10   A    
C5    C71   A    
C18   C43   S    
C83   S10   S    
C93   S18   S    
O52   S3    D    
H26   O33   S    
C21   C40   S    
C72   C102  A    
C60   C69   A    
C43   C66   A    
C82   C88   A    
C22   C39   S    
O54   S4    D    
C66   S15   S    
O23   Zn3   S    
C51   H15   S    
O35   S15   D    
O53   S3    S    
C77   C99   A    
C29   C70   A    
C49   C81   A    
C84   C93   A    
C90   S3    S    
C57   C72   A    
C25   O3    A    
O1    Zn1   S    
C73   C86   A    
C15   C35   A    
C37   C60   A    
C52   C92   A    
O57   S4    S    
H30   O47   S    
C7    C51   A    
C82   S5    S    
C53   C76   A    
C3    C99   A    
C75   C88   A    
O10   Zn6   S    
O28   S13   D    
C54   C68   A    
O30   S13   S    
O26   S12   D    
C7    C30   A    
O78   Zn4   S    
C20   O13   A    
C41   C70   A    
O7    Zn3   S    
H4    O57   S    
C13   C102  A    
O29   S13   D    
C65   S14   S    
C17   C44   S    
C95   C101  A    
O33   S14   S    
C20   C41   S    
C39   C48   A    
C52   H16   S    
