data_mof_unit_47917.cif
_audit_creation_date              2012-10-26T20:37:05-0400
_audit_creation_method            fapswitch 2.2
_symmetry_space_group_name_H-M    P1
_symmetry_Int_Tables_number       1
_space_group_crystal_system       triclinic
_cell_length_a                    10.864304
_cell_length_b                    19.296745
_cell_length_c                    18.025158
_cell_angle_alpha                 90.112823
_cell_angle_beta                  91.222496
_cell_angle_gamma                 90.135288
_cell_volume                      3778.01855881

loop_
_atom_site_label
_atom_site_type_symbol
_atom_type_description
_atom_site_fract_x
_atom_site_fract_y
_atom_site_fract_z
_atom_type_partial_charge
C1    C     C_R   0.498720 0.367090 0.499925 0.585213
C2    C     C_R   0.540702 0.817751 0.437505 0.154421
C3    C     C_R   0.494757 0.145496 0.500364 0.003313
C4    C     C_R   0.500406 0.854155 0.500585 0.005368
C5    C     C_R   0.518038 0.181779 0.433975 0.206317
C6    C     C_R   0.461581 0.817474 0.563733 0.222547
C7    C     C_R   0.517611 0.254160 0.434370 -0.083005
C8    C     C_R   0.463756 0.745132 0.563185 -0.093132
C9    C     C_R   0.495783 0.290973 0.499750 -0.051510
C10   C     C_R   0.502140 0.708861 0.500502 -0.041147
C11   C     C_R   0.498818 0.929880 0.500579 0.408425
C12   C     C_R   0.500829 0.632852 0.500094 0.581956
C13   C     C_R   0.495777 0.069682 0.500804 0.412676
C14   C     C_R   0.558303 0.552867 0.281163 0.091920
C15   C     C_R   0.442996 0.446703 0.718901 0.081061
C16   C     C_R   0.261797 0.499660 0.499017 0.584710
C17   C     C_R   0.738202 0.500397 0.500974 0.593009
C18   C     C_R   0.564573 0.555491 0.203044 0.229119
C19   C     C_R   0.436879 0.444021 0.797033 0.218286
C20   C     C_R   0.508300 0.502012 0.159799 0.001539
C21   C     C_R   0.492108 0.497885 0.840249 -0.000193
C22   C     C_R   0.452805 0.447081 0.198174 -0.140198
C23   C     C_R   0.871906 0.501040 0.502678 0.039897
C24   C     C_R   0.546170 0.553237 0.801800 -0.137562
C25   C     C_R   0.448169 0.447413 0.276048 0.033197
C26   C     C_R   0.550713 0.552937 0.723928 0.034030
C27   C     C_R   0.495076 0.498655 0.923918 0.382847
C28   C     C_R   0.505648 0.501254 0.076154 0.391132
C29   C     C_R   0.200535 0.609148 0.266398 0.218109
C30   C     C_R   0.802170 0.387885 0.732381 0.203150
C31   C     C_R   0.157522 0.600100 0.340120 0.270791
C32   C     C_R   0.844700 0.398145 0.658722 0.249362
C33   C     C_R   0.111765 0.533775 0.360534 -0.046720
C34   C     C_R   0.128094 0.499177 0.497297 0.038652
C35   C     C_R   0.888163 0.465164 0.639034 -0.049568
C36   C     C_R   0.105956 0.479912 0.308287 -0.130565
C37   C     C_R   0.892249 0.518562 0.691835 -0.125126
C38   C     C_R   0.144676 0.489909 0.236074 0.172836
C39   C     C_R   0.854041 0.507406 0.763942 0.207590
C40   C     C_R   0.193800 0.553694 0.215895 -0.126901
C41   C     C_R   0.807114 0.442919 0.783467 -0.100497
C42   C     C_R   0.930940 0.519494 0.437405 -0.099893
C43   C     C_R   0.069058 0.480797 0.562582 -0.122978
C44   C     C_R   0.941853 0.481211 0.566204 0.010123
C45   C     C_R   0.058153 0.518837 0.433685 0.033558
C46   C     C_R   0.471683 0.254879 0.565153 -0.061190
C47   C     C_R   0.540700 0.745349 0.438082 -0.069241
C48   C     C_R   0.471188 0.182519 0.566328 0.221477
Cu1   Cu    Cu3+1 0.499990 0.499980 0.573360 1.000104
Cu2   Cu    Cu3+1 0.500010 0.500020 0.426640 1.010330
H1    H     H_    0.225312 0.560392 0.159872 0.185211
H2    H     H_    0.433384 0.716824 0.611272 0.193673
H3    H     H_    0.602394 0.592905 0.314272 0.173234
H4    H     H_    0.399805 0.406333 0.685849 0.170587
H5    H     H_    0.788427 0.630451 0.078205 0.388056
H6    H     H_    0.397081 0.281595 0.896280 0.403887
H7    H     H_    0.411145 0.404285 0.167899 0.217176
H8    H     H_    0.586823 0.596369 0.832011 0.201473
H9    H     H_    0.433625 0.743682 0.249768 0.402613
H10   H     H_    0.791013 0.199596 0.753236 0.404691
H11   H     H_    0.133635 0.691612 0.520340 0.384373
H12   H     H_    0.776309 0.435326 0.839529 0.217209
H13   H     H_    0.953905 0.344304 0.492872 0.359176
H14   H     H_    0.141440 0.474691 0.064466 0.380345
H15   H     H_    0.793382 0.596987 0.937040 0.391912
H16   H     H_    0.453412 0.283300 0.615530 0.201090
H17   H     H_    0.571466 0.717190 0.389925 0.195119
H18   H     H_    0.341258 0.048331 0.683642 0.410280
H19   H     H_    0.407204 0.865744 0.310450 0.365992
H20   H     H_    0.619246 0.166588 0.242275 0.404266
H21   H     H_    0.323977 0.831550 0.746787 0.400011
H22   H     H_    0.402865 0.405273 0.304087 0.163359
H23   H     H_    0.595038 0.595402 0.695880 0.166752
H24   H     H_    0.067630 0.430138 0.323577 0.174854
H25   H     H_    0.929114 0.568840 0.677108 0.182108
H26   H     H_    0.877808 0.534317 0.388327 0.156095
H27   H     H_    0.122160 0.465881 0.611638 0.158893
H28   H     H_    0.535914 0.282000 0.383692 0.196843
N1    N     N_R   0.586615 0.034975 0.537537 -0.107451
N2    N     N_R   0.492652 0.560635 0.036170 -0.106524
N3    N     N_R   0.407944 0.964534 0.463873 -0.110617
N4    N     N_R   0.588085 0.966062 0.537450 -0.114989
N5    N     N_R   0.406463 0.033450 0.463981 -0.103105
N6    N     N_R   0.500010 0.500050 0.316380 -0.271256
N7    N     N_R   0.499990 0.499950 0.683620 -0.273426
N8    N     N_R   0.512500 0.440454 0.038090 -0.151167
N9    N     N_R   0.488285 0.559459 0.961989 -0.177675
N10   N     N_R   0.508176 0.439283 0.963910 -0.090785
O1    O     O_R   0.500010 0.400130 0.561970 -0.502161
O2    O     O_2   0.731218 0.657973 0.221571 -0.238708
O3    O     O_3   0.742420 0.590142 0.097387 -0.486161
O4    O     O_2   0.270054 0.403730 0.895961 -0.211407
O5    O     O_2   0.273520 0.339822 0.778488 -0.232874
O6    O     O_3   0.450125 0.317794 0.874637 -0.410381
O7    O     O_2   0.277649 0.685028 0.150573 -0.224250
O8    O     O_2   0.178556 0.747667 0.250887 -0.145709
O9    O     O_3   0.400982 0.701612 0.273870 -0.505912
O10   O     O_2   0.730393 0.309662 0.847768 -0.200199
O11   O     O_2   0.619125 0.295100 0.729546 -0.231844
O12   O     O_R   0.499990 0.599870 0.438030 -0.490845
O13   O     O_3   0.838694 0.242347 0.743634 -0.386763
O14   O     O_2   0.262267 0.715917 0.398927 -0.234024
O15   O     O_2   0.038852 0.714795 0.380138 -0.182783
O16   O     O_3   0.132282 0.647813 0.491584 -0.550208
O17   O     O_2   0.969446 0.286289 0.616321 -0.201636
O18   O     O_2   0.746449 0.280331 0.599690 -0.192014
O19   O     O_3   0.867050 0.352183 0.506195 -0.528998
O20   O     O_2   0.177798 0.356873 0.201713 -0.224250
O21   O     O_2   0.990476 0.412382 0.154355 -0.192897
O22   O     O_3   0.197013 0.441969 0.090916 -0.480700
O23   O     O_R   0.500020 0.400160 0.438070 -0.505764
O24   O     O_2   0.006523 0.582691 0.848772 -0.191253
O25   O     O_2   0.821880 0.640233 0.799230 -0.275694
O26   O     O_3   0.797206 0.553174 0.908499 -0.510510
O27   O     O_2   0.559881 0.112530 0.683158 -0.197449
O28   O     O_2   0.385751 0.189700 0.705540 -0.186191
O29   O     O_3   0.342552 0.073853 0.636040 -0.455560
O30   O     O_2   0.686712 0.914716 0.379464 -0.148000
O31   O     O_2   0.647499 0.811507 0.303459 -0.200787
O32   O     O_3   0.471998 0.901733 0.315651 -0.408254
O33   O     O_2   0.645535 0.082910 0.364430 -0.177132
O34   O     O_R   0.499980 0.599840 0.561930 -0.510274
O35   O     O_2   0.435179 0.105799 0.319250 -0.185744
O36   O     O_3   0.605968 0.194652 0.287463 -0.491684
O37   O     O_2   0.509871 0.901231 0.679179 -0.205249
O38   O     O_2   0.304952 0.909289 0.620391 -0.219355
O39   O     O_3   0.352238 0.803118 0.704653 -0.498896
O40   O     O_R   0.319640 0.499990 0.561950 -0.503838
O41   O     O_R   0.680360 0.500010 0.438050 -0.502995
O42   O     O_R   0.319650 0.500020 0.438050 -0.503709
O43   O     O_R   0.680350 0.499980 0.561950 -0.501108
O44   O     O_2   0.566060 0.675514 0.129025 -0.180166
S1    S     S_3+6 0.651834 0.622989 0.163226 0.074512
S2    S     S_3+6 0.591737 0.861416 0.357292 0.111422
S3    S     S_3+6 0.551256 0.138431 0.349969 0.099182
S4    S     S_3+6 0.406517 0.860557 0.643274 0.066223
S5    S     S_3+6 0.351802 0.375570 0.836830 0.091425
S6    S     S_3+6 0.262279 0.688282 0.233222 0.108524
S7    S     S_3+6 0.743638 0.307733 0.764932 0.129196
S8    S     S_3+6 0.148556 0.671876 0.402782 0.083412
S9    S     S_3+6 0.856415 0.327175 0.595195 0.091105
S10   S     S_3+6 0.125612 0.422896 0.170293 0.055385
S11   S     S_3+6 0.871794 0.573628 0.830663 0.034801
S12   S     S_3+6 0.440888 0.140073 0.651164 0.109230

loop_
_geom_bond_atom_site_label_1
_geom_bond_atom_site_label_2
_ccdc_geom_bond_type
C38   C40   A    
C13   N1    A    
C17   O43   A    
C33   C45   S    
H15   O26   S    
C14   C18   A    
C2    C4    A    
C14   N6    A    
O11   S7    D    
C26   H23   S    
C22   H7    S    
O20   S10   D    
O13   S7    S    
Cu2   N6    S    
C39   C41   A    
C11   N3    A    
C15   C19   A    
C29   S6    S    
Cu1   O43   S    
C2    S2    S    
C23   C42   A    
O24   S11   D    
C19   C21   A    
C24   C26   A    
C46   H16   S    
N2    N9    A    
O17   S9    D    
N8    N10   A    
C3    C48   A    
C33   C36   A    
C48   S12   S    
C18   S1    S    
C5    S3    S    
O22   S10   S    
C6    S4    S    
Cu2   O42   S    
C16   C34   S    
O28   S12   D    
O44   S1    D    
C22   C25   A    
C25   N6    A    
H5    O3    S    
C31   C33   A    
C30   C41   A    
O21   S10   D    
O19   S9    S    
C16   O42   A    
C8    H2    S    
O32   S2    S    
C3    C13   S    
C15   N7    A    
C37   H25   S    
O38   S4    D    
C9    C46   A    
C38   S10   S    
H21   O39   S    
C41   H12   S    
O4    S5    D    
C47   H17   S    
N3    N5    A    
C11   N4    A    
C37   C39   A    
C46   C48   A    
O31   S2    D    
C17   O41   A    
C15   H4    S    
Cu1   N7    S    
O29   S12   S    
C1    C9    S    
O39   S4    S    
C4    C6    A    
Cu1   O1    S    
C5    C7    A    
O2    S1    D    
O8    S6    D    
C6    C8    A    
C20   C28   S    
C23   C44   A    
O16   S8    S    
O35   S3    D    
C42   C45   A    
H6    O6    S    
C43   C44   A    
C32   C35   A    
Cu2   O41   S    
H20   O36   S    
H18   O29   S    
H14   O22   S    
O3    S1    S    
C19   S5    S    
H11   O16   S    
C34   C45   A    
C17   C23   S    
O33   S3    D    
C4    C11   S    
C27   N9    A    
C35   C44   S    
C16   O40   A    
C32   S9    S    
C10   C12   S    
C7    H28   S    
O37   S4    D    
C8    C10   A    
C39   S11   S    
O14   S8    D    
C28   N8    A    
H9    O9    S    
H13   O19   S    
H10   O13   S    
O9    S6    S    
O18   S9    D    
C7    C9    A    
Cu1   O40   S    
O27   S12   D    
C36   H24   S    
O7    S6    D    
C1    O1    A    
C30   S7    S    
O36   S3    S    
C35   C37   A    
C42   H26   S    
C34   C43   A    
C20   C22   A    
C3    C5    A    
O30   S2    D    
N1    N4    A    
C2    C47   A    
C43   H27   S    
C40   H1    S    
C13   N5    A    
H19   O32   S    
Cu2   O12   S    
O10   S7    D    
O26   S11   S    
C36   C38   A    
C29   C31   A    
O15   S8    D    
C1    O23   A    
C30   C32   A    
C25   H22   S    
C26   N7    A    
Cu1   O34   S    
C29   C40   A    
Cu2   O23   S    
C18   C20   A    
C21   C27   S    
C27   N10   A    
C28   N2    A    
C12   O12   A    
O5    S5    D    
O25   S11   D    
C14   H3    S    
C12   O34   A    
C24   H8    S    
Cu1   Cu2   S    
C21   C24   A    
C10   C47   A    
O6    S5    S    
C31   S8    S    
