data_mof_unit_60760.cif
_audit_creation_date              2012-12-10T20:06:22-0500
_audit_creation_method            fapswitch 2.2
_symmetry_space_group_name_H-M    P1
_symmetry_Int_Tables_number       1
_space_group_crystal_system       monoclinic
_cell_length_a                    22.441685
_cell_length_b                    25.977592
_cell_length_c                    22.444352
_cell_angle_alpha                 90.087155
_cell_angle_beta                  90.0
_cell_angle_gamma                 90.0
_cell_volume                      13084.614215

loop_
_atom_site_label
_atom_site_type_symbol
_atom_type_description
_atom_site_fract_x
_atom_site_fract_y
_atom_site_fract_z
_atom_type_partial_charge
C1    C     C_R   0.497851 0.391353 0.748108 0.504026
C2    C     C_R   0.998896 0.391362 0.751160 0.496256
C3    C     C_3   0.443126 0.969578 0.714088 0.069369
C4    C     C_3   0.446916 0.529204 0.209099 0.053518
C5    C     C_3   0.443125 0.530422 0.785912 0.069369
C6    C     C_3   0.446916 0.470796 0.790901 0.053518
C7    C     C_3   0.443125 0.469578 0.214088 0.069369
C8    C     C_3   0.946916 0.029204 0.209099 0.053518
C9    C     C_3   0.943125 0.030422 0.785912 0.069369
C10   C     C_3   0.946916 0.970796 0.790901 0.053518
C11   C     C_3   0.943125 0.969578 0.214088 0.069369
C12   C     C_3   0.946916 0.529204 0.709099 0.053518
C13   C     C_R   0.997851 0.608647 0.751892 0.504026
C14   C     C_3   0.943125 0.530422 0.285912 0.069370
C15   C     C_3   0.946916 0.470796 0.290901 0.053518
C16   C     C_3   0.943125 0.469578 0.714088 0.069369
C17   C     C_3   0.556597 0.029868 0.733928 -0.279960
C18   C     C_3   0.554582 0.029253 0.273704 -0.291035
C19   C     C_3   0.556597 0.970132 0.266072 -0.279960
C20   C     C_3   0.554582 0.970747 0.726296 -0.291035
C21   C     C_3   0.556597 0.529868 0.233928 -0.279960
C22   C     C_3   0.554582 0.529253 0.773704 -0.291035
C23   C     C_3   0.556597 0.470132 0.766072 -0.279960
C24   C     C_R   0.998896 0.608638 0.248840 0.496256
C25   C     C_3   0.554582 0.470747 0.226296 -0.291035
C26   C     C_3   0.056597 0.029868 0.233928 -0.279960
C27   C     C_3   0.054582 0.029253 0.773704 -0.291035
C28   C     C_3   0.056597 0.970132 0.766072 -0.279960
C29   C     C_3   0.054582 0.970747 0.226296 -0.291035
C30   C     C_3   0.056597 0.529868 0.733928 -0.279960
C31   C     C_3   0.054582 0.529253 0.273704 -0.291035
C32   C     C_3   0.056597 0.470132 0.266072 -0.279960
C33   C     C_3   0.054582 0.470747 0.726296 -0.291035
C34   C     C_3   0.481783 0.029287 0.818671 -0.123901
C35   C     C_R   0.997851 0.891353 0.748108 0.504026
C36   C     C_3   0.492118 0.030396 0.180192 -0.109124
C37   C     C_3   0.481783 0.970713 0.181329 -0.123901
C38   C     C_3   0.492118 0.969604 0.819808 -0.109124
C39   C     C_3   0.481783 0.529287 0.318671 -0.123902
C40   C     C_3   0.492118 0.530396 0.680192 -0.109124
C41   C     C_3   0.481783 0.470713 0.681329 -0.123902
C42   C     C_3   0.492118 0.469604 0.319808 -0.109123
C43   C     C_3   0.981783 0.029287 0.318671 -0.123902
C44   C     C_3   0.992118 0.030396 0.680191 -0.109124
C45   C     C_3   0.981783 0.970713 0.681329 -0.123902
C46   C     C_R   0.998896 0.891362 0.251160 0.496256
C47   C     C_3   0.992118 0.969604 0.319808 -0.109124
C48   C     C_3   0.981783 0.529287 0.818671 -0.123901
C49   C     C_3   0.992118 0.530396 0.180192 -0.109123
C50   C     C_3   0.981783 0.470713 0.181329 -0.123902
C51   C     C_3   0.992118 0.469604 0.819808 -0.109123
C52   C     C_3   0.355474 0.070748 0.758807 -0.264434
C53   C     C_3   0.362468 0.071224 0.217501 -0.268034
C54   C     C_3   0.355475 0.929252 0.241193 -0.264434
C55   C     C_3   0.362468 0.928776 0.782499 -0.268034
C56   C     C_3   0.355474 0.570748 0.258807 -0.264434
C57   C     C_R   0.997851 0.108647 0.251892 0.504026
C58   C     C_3   0.362468 0.571224 0.717501 -0.268034
C59   C     C_3   0.355474 0.429252 0.741193 -0.264434
C60   C     C_3   0.362468 0.428776 0.282499 -0.268035
C61   C     C_3   0.855475 0.070748 0.258807 -0.264434
C62   C     C_3   0.862468 0.071224 0.717501 -0.268034
C63   C     C_3   0.855474 0.929252 0.741193 -0.264433
C64   C     C_3   0.862468 0.928776 0.282499 -0.268035
C65   C     C_3   0.855475 0.570748 0.758807 -0.264434
C66   C     C_3   0.862468 0.571224 0.217501 -0.268034
C67   C     C_3   0.855475 0.429252 0.241193 -0.264434
C68   C     C_R   0.998896 0.108638 0.748840 0.496256
C69   C     C_3   0.862468 0.428776 0.782499 -0.268034
C70   C     C_1   0.513955 0.056770 0.866945 0.204746
C71   C     C_1   0.545248 0.045360 0.144545 0.229164
C72   C     C_1   0.513955 0.943230 0.133055 0.204746
C73   C     C_1   0.545248 0.954640 0.855455 0.229164
C74   C     C_1   0.513955 0.556770 0.366945 0.204747
C75   C     C_1   0.545248 0.545360 0.644545 0.229164
C76   C     C_1   0.513955 0.443230 0.633055 0.204747
C77   C     C_1   0.545248 0.454640 0.355455 0.229164
C78   C     C_1   0.013955 0.056770 0.366945 0.204747
C79   C     C_3   0.494762 0.051042 0.754318 0.043291
C80   C     C_1   0.045248 0.045360 0.644545 0.229164
C81   C     C_1   0.013955 0.943230 0.633055 0.204747
C82   C     C_1   0.045248 0.954640 0.355455 0.229164
C83   C     C_1   0.013955 0.556770 0.866945 0.204746
C84   C     C_1   0.045248 0.545360 0.144545 0.229164
C85   C     C_1   0.013955 0.443230 0.133055 0.204746
C86   C     C_1   0.045248 0.454640 0.855455 0.229164
C87   C     C_3   0.496130 0.051208 0.246091 0.039021
C88   C     C_3   0.494762 0.948958 0.245682 0.043291
C89   C     C_R   0.498896 0.391362 0.251160 0.496256
C90   C     C_3   0.496130 0.948792 0.753909 0.039021
C91   C     C_3   0.494762 0.551042 0.254318 0.043291
C92   C     C_3   0.496130 0.551208 0.746091 0.039021
C93   C     C_3   0.494762 0.448958 0.745682 0.043291
C94   C     C_3   0.496130 0.448792 0.253909 0.039021
C95   C     C_3   0.994762 0.051042 0.254318 0.043291
C96   C     C_3   0.996130 0.051208 0.746091 0.039020
C97   C     C_3   0.994762 0.948958 0.745682 0.043291
C98   C     C_3   0.996130 0.948792 0.253909 0.039021
C99   C     C_3   0.994762 0.551042 0.754318 0.043291
C100  C     C_R   0.497851 0.608647 0.251892 0.504026
C101  C     C_3   0.996130 0.551208 0.246091 0.039020
C102  C     C_3   0.994762 0.448958 0.245682 0.043291
C103  C     C_3   0.996130 0.448792 0.753909 0.039021
C104  C     C_1   0.499948 0.249976 0.973315 -0.013923
C105  C     C_1   0.499987 0.249944 0.026683 -0.015158
C106  C     C_1   0.499948 0.750024 0.026685 -0.013923
C107  C     C_1   0.499987 0.750056 0.973317 -0.015158
C108  C     C_1   0.499948 0.749976 0.473315 -0.013923
C109  C     C_1   0.499987 0.749944 0.526683 -0.015158
C110  C     C_1   0.499948 0.250024 0.526685 -0.013923
C111  C     C_R   0.498896 0.608638 0.748840 0.496256
C112  C     C_1   0.499987 0.250056 0.473317 -0.015158
C113  C     C_1   0.999948 0.249976 0.473315 -0.013923
C114  C     C_1   0.999987 0.249944 0.526683 -0.015158
C115  C     C_1   0.999948 0.750024 0.526685 -0.013923
C116  C     C_1   0.999987 0.750056 0.473317 -0.015158
C117  C     C_1   0.999948 0.749976 0.973315 -0.013923
C118  C     C_1   0.999987 0.749944 0.026683 -0.015158
C119  C     C_1   0.999948 0.250024 0.026685 -0.013923
C120  C     C_1   0.999987 0.250056 0.973317 -0.015158
C121  C     C_R   0.499961 0.250012 0.590019 0.508168
C122  C     C_R   0.497851 0.891353 0.248108 0.504026
C123  C     C_R   0.499994 0.250033 0.409981 0.504703
C124  C     C_R   0.499961 0.749988 0.409981 0.508168
C125  C     C_R   0.499994 0.749967 0.590019 0.504703
C126  C     C_R   0.499961 0.750012 0.090019 0.508168
C127  C     C_R   0.499994 0.750033 0.909981 0.504703
C128  C     C_R   0.499961 0.249988 0.909981 0.508168
C129  C     C_R   0.499994 0.249967 0.090019 0.504703
C130  C     C_R   0.999961 0.250012 0.090019 0.508168
C131  C     C_R   0.999994 0.250033 0.909981 0.504703
C132  C     C_R   0.999961 0.749988 0.909981 0.508168
C133  C     C_R   0.498896 0.891362 0.751160 0.496256
C134  C     C_R   0.999994 0.749967 0.090019 0.504703
C135  C     C_R   0.999961 0.750012 0.590019 0.508168
C136  C     C_R   0.999994 0.750033 0.409981 0.504703
C137  C     C_R   0.999961 0.249988 0.409981 0.508168
C138  C     C_R   0.999994 0.249967 0.590019 0.504703
C139  C     C_R   0.659982 0.250000 0.750000 0.502622
C140  C     C_R   0.660002 0.250000 0.250000 0.504073
C141  C     C_R   0.659982 0.750000 0.250000 0.502622
C142  C     C_R   0.660002 0.750000 0.750000 0.504073
C143  C     C_R   0.159982 0.250000 0.250000 0.502622
C144  C     C_R   0.497851 0.108647 0.751892 0.504026
C145  C     C_R   0.160002 0.250000 0.750000 0.504073
C146  C     C_R   0.159982 0.750000 0.750000 0.502622
C147  C     C_R   0.160002 0.750000 0.250000 0.504073
C148  C     C_R   0.340011 0.250000 0.750000 0.500940
C149  C     C_R   0.340031 0.250000 0.250000 0.499026
C150  C     C_R   0.340011 0.750000 0.250000 0.500940
C151  C     C_R   0.340031 0.750000 0.750000 0.499026
C152  C     C_R   0.840011 0.250000 0.250000 0.500940
C153  C     C_R   0.840031 0.250000 0.750000 0.499026
C154  C     C_R   0.840011 0.750000 0.750000 0.500940
C155  C     C_R   0.498896 0.108638 0.248840 0.496256
C156  C     C_R   0.840031 0.750000 0.250000 0.499026
C157  C     C_1   0.276692 0.250000 0.750000 -0.027629
C158  C     C_1   0.276696 0.250000 0.250000 -0.023905
C159  C     C_1   0.276692 0.750000 0.250000 -0.027629
C160  C     C_1   0.276696 0.750000 0.750000 -0.023905
C161  C     C_1   0.776692 0.250000 0.250000 -0.027629
C162  C     C_1   0.776696 0.250000 0.750000 -0.023905
C163  C     C_1   0.776692 0.750000 0.750000 -0.027629
C164  C     C_1   0.776696 0.750000 0.250000 -0.023905
C165  C     C_1   0.223329 0.250000 0.750000 -0.023859
C166  C     C_R   0.997851 0.391353 0.248108 0.504026
C167  C     C_1   0.223324 0.250000 0.250000 -0.022423
C168  C     C_1   0.223329 0.750000 0.250000 -0.023859
C169  C     C_1   0.223324 0.750000 0.750000 -0.022423
C170  C     C_1   0.723329 0.250000 0.250000 -0.023859
C171  C     C_1   0.723324 0.250000 0.750000 -0.022423
C172  C     C_1   0.723329 0.750000 0.750000 -0.023859
C173  C     C_1   0.723324 0.750000 0.250000 -0.022423
C174  C     C_3   0.446916 0.029204 0.709099 0.053518
C175  C     C_3   0.443125 0.030422 0.285912 0.069369
C176  C     C_3   0.446916 0.970796 0.290901 0.053518
H1    H     H_    0.466860 0.036449 0.664240 0.100168
H2    H     H_    0.952539 0.044902 0.831803 0.125642
H3    H     H_    0.844482 0.037656 0.287381 0.145309
H4    H     H_    0.849804 0.038408 0.802659 0.274381
H5    H     H_    0.816641 0.086543 0.723389 0.135301
H6    H     H_    0.860502 0.041571 0.682179 0.114227
H7    H     H_    0.890563 0.104031 0.703489 0.154300
H8    H     H_    0.882147 0.921738 0.829855 0.270956
H9    H     H_    0.812441 0.912027 0.755294 0.140932
H10   H     H_    0.880192 0.899497 0.715818 0.145088
H11   H     H_    0.844482 0.962344 0.712619 0.145309
H12   H     H_    0.849804 0.961592 0.197342 0.274381
H13   H     H_    0.966860 0.963551 0.835760 0.100168
H14   H     H_    0.816641 0.913457 0.276611 0.135300
H15   H     H_    0.860502 0.958429 0.317821 0.114227
H16   H     H_    0.890563 0.895969 0.296511 0.154300
H17   H     H_    0.882147 0.578262 0.670145 0.270956
H18   H     H_    0.812441 0.587973 0.744706 0.140932
H19   H     H_    0.880192 0.600503 0.784182 0.145089
H20   H     H_    0.844482 0.537656 0.787381 0.145309
H21   H     H_    0.849804 0.538408 0.302658 0.274381
H22   H     H_    0.816641 0.586543 0.223389 0.135300
H23   H     H_    0.860502 0.541571 0.182179 0.114227
H24   H     H_    0.952539 0.955098 0.168197 0.125642
H25   H     H_    0.890563 0.604031 0.203489 0.154301
H26   H     H_    0.882147 0.421738 0.329855 0.270956
H27   H     H_    0.812441 0.412027 0.255294 0.140933
H28   H     H_    0.880192 0.399497 0.215818 0.145089
H29   H     H_    0.844482 0.462344 0.212619 0.145309
H30   H     H_    0.849804 0.461592 0.697341 0.274381
H31   H     H_    0.816641 0.413457 0.776611 0.135300
H32   H     H_    0.860502 0.458429 0.817821 0.114227
H33   H     H_    0.890563 0.395969 0.796511 0.154300
H34   H     H_    0.966860 0.536449 0.664240 0.100168
H35   H     H_    0.952539 0.544902 0.331803 0.125642
H36   H     H_    0.966860 0.463551 0.335760 0.100168
H37   H     H_    0.952539 0.455098 0.668197 0.125642
H38   H     H_    0.570311 0.047689 0.690974 0.108074
H39   H     H_    0.557021 0.039119 0.321928 0.101426
H40   H     H_    0.570311 0.952311 0.309026 0.108074
H41   H     H_    0.452539 0.044902 0.331803 0.125642
H42   H     H_    0.557021 0.960881 0.678072 0.101426
H43   H     H_    0.570311 0.547689 0.190974 0.108074
H44   H     H_    0.557021 0.539119 0.821928 0.101426
H45   H     H_    0.570311 0.452311 0.809026 0.108074
H46   H     H_    0.557021 0.460881 0.178072 0.101426
H47   H     H_    0.070311 0.047689 0.190974 0.108074
H48   H     H_    0.057021 0.039119 0.821928 0.101426
H49   H     H_    0.070311 0.952311 0.809026 0.108074
H50   H     H_    0.057021 0.960881 0.178071 0.101426
H51   H     H_    0.070311 0.547689 0.690974 0.108074
H52   H     H_    0.466860 0.963551 0.335760 0.100168
H53   H     H_    0.057021 0.539119 0.321928 0.101426
H54   H     H_    0.070311 0.452311 0.309026 0.108074
H55   H     H_    0.057021 0.460881 0.678072 0.101426
H56   H     H_    0.434523 0.035476 0.829630 0.090546
H57   H     H_    0.454805 0.048492 0.156117 0.083905
H58   H     H_    0.434523 0.964524 0.170370 0.090546
H59   H     H_    0.454805 0.951508 0.843883 0.083905
H60   H     H_    0.434523 0.535476 0.329630 0.090546
H61   H     H_    0.454805 0.548492 0.656117 0.083905
H62   H     H_    0.434523 0.464524 0.670370 0.090546
H63   H     H_    0.452539 0.955098 0.668197 0.125642
H64   H     H_    0.454805 0.451508 0.343883 0.083905
H65   H     H_    0.934523 0.035476 0.329630 0.090546
H66   H     H_    0.954805 0.048492 0.656117 0.083905
H67   H     H_    0.934523 0.964524 0.670370 0.090546
H68   H     H_    0.954805 0.951508 0.343883 0.083905
H69   H     H_    0.934523 0.535476 0.829630 0.090546
H70   H     H_    0.954805 0.548492 0.156117 0.083905
H71   H     H_    0.934523 0.464524 0.170370 0.090546
H72   H     H_    0.954805 0.451508 0.843883 0.083905
H73   H     H_    0.591335 0.040066 0.767315 0.163135
H74   H     H_    0.466860 0.536449 0.164240 0.100168
H75   H     H_    0.594794 0.046555 0.252765 0.155148
H76   H     H_    0.591335 0.959933 0.232685 0.163135
H77   H     H_    0.594794 0.953445 0.747235 0.155148
H78   H     H_    0.591335 0.540067 0.267315 0.163135
H79   H     H_    0.594794 0.546555 0.752765 0.155148
H80   H     H_    0.591335 0.459933 0.732685 0.163135
H81   H     H_    0.594794 0.453445 0.247235 0.155148
H82   H     H_    0.091335 0.040067 0.267315 0.163135
H83   H     H_    0.094794 0.046555 0.752765 0.155148
H84   H     H_    0.091335 0.959933 0.732685 0.163135
H85   H     H_    0.452539 0.544902 0.831803 0.125642
H86   H     H_    0.094794 0.953445 0.247235 0.155148
H87   H     H_    0.091335 0.540067 0.767315 0.163135
H88   H     H_    0.094794 0.546555 0.252765 0.155148
H89   H     H_    0.091335 0.459933 0.232684 0.163135
H90   H     H_    0.094794 0.453444 0.747235 0.155148
H91   H     H_    0.382147 0.078262 0.670145 0.270956
H92   H     H_    0.312441 0.087973 0.744706 0.140932
H93   H     H_    0.380192 0.100503 0.784182 0.145089
H94   H     H_    0.344482 0.037656 0.787381 0.145309
H95   H     H_    0.349804 0.038408 0.302658 0.274381
H96   H     H_    0.466860 0.463551 0.835760 0.100168
H97   H     H_    0.316641 0.086543 0.223389 0.135300
H98   H     H_    0.360502 0.041571 0.182179 0.114227
H99   H     H_    0.390564 0.104031 0.203489 0.154300
H100  H     H_    0.382147 0.921738 0.329855 0.270956
H101  H     H_    0.312441 0.912026 0.255294 0.140932
H102  H     H_    0.380192 0.899497 0.215818 0.145089
H103  H     H_    0.344482 0.962344 0.212619 0.145309
H104  H     H_    0.349804 0.961592 0.697341 0.274381
H105  H     H_    0.316641 0.913457 0.776611 0.135300
H106  H     H_    0.360502 0.958429 0.817821 0.114227
H107  H     H_    0.452539 0.455098 0.168197 0.125642
H108  H     H_    0.390564 0.895969 0.796511 0.154300
H109  H     H_    0.382147 0.578262 0.170145 0.270956
H110  H     H_    0.312441 0.587973 0.244706 0.140932
H111  H     H_    0.380192 0.600503 0.284181 0.145089
H112  H     H_    0.344482 0.537656 0.287381 0.145309
H113  H     H_    0.349804 0.538408 0.802659 0.274381
H114  H     H_    0.316641 0.586543 0.723389 0.135300
H115  H     H_    0.360502 0.541571 0.682179 0.114227
H116  H     H_    0.390564 0.604031 0.703489 0.154300
H117  H     H_    0.382147 0.421738 0.829855 0.270956
H118  H     H_    0.966860 0.036449 0.164240 0.100168
H119  H     H_    0.312441 0.412027 0.755294 0.140932
H120  H     H_    0.380192 0.399497 0.715818 0.145089
H121  H     H_    0.344482 0.462344 0.712619 0.145309
H122  H     H_    0.349804 0.461592 0.197341 0.274381
H123  H     H_    0.316641 0.413457 0.276611 0.135300
H124  H     H_    0.360502 0.458429 0.317821 0.114227
H125  H     H_    0.390563 0.395969 0.296511 0.154300
H126  H     H_    0.882147 0.078262 0.170145 0.270956
H127  H     H_    0.812441 0.087973 0.244706 0.140932
H128  H     H_    0.880192 0.100503 0.284182 0.145089
N1    N     N_2   0.388340 0.054554 0.706496 -0.499554
N2    N     N_2   0.882796 0.049543 0.773385 -0.481886
N3    N     N_2   0.888340 0.945446 0.793504 -0.499554
N4    N     N_2   0.882796 0.950457 0.226615 -0.481886
N5    N     N_2   0.888340 0.554554 0.706496 -0.499554
N6    N     N_2   0.882796 0.549543 0.273385 -0.481886
N7    N     N_2   0.888340 0.445446 0.293504 -0.499554
N8    N     N_2   0.882796 0.450457 0.726615 -0.481886
N9    N     N_1   0.538928 0.078122 0.904744 -0.241097
N10   N     N_1   0.586546 0.057004 0.116762 -0.247914
N11   N     N_1   0.538928 0.921878 0.095256 -0.241097
N12   N     N_2   0.382796 0.049543 0.273385 -0.481886
N13   N     N_1   0.586546 0.942996 0.883238 -0.247914
N14   N     N_1   0.538927 0.578122 0.404744 -0.241098
N15   N     N_1   0.586546 0.557004 0.616762 -0.247914
N16   N     N_1   0.538928 0.421878 0.595256 -0.241098
N17   N     N_1   0.586546 0.442996 0.383238 -0.247914
N18   N     N_1   0.038928 0.078122 0.404743 -0.241098
N19   N     N_1   0.086546 0.057004 0.616762 -0.247914
N20   N     N_1   0.038928 0.921878 0.595256 -0.241098
N21   N     N_1   0.086546 0.942996 0.383238 -0.247914
N22   N     N_1   0.038928 0.578122 0.904744 -0.241097
N23   N     N_2   0.388340 0.945446 0.293504 -0.499554
N24   N     N_1   0.086546 0.557004 0.116762 -0.247914
N25   N     N_1   0.038927 0.421878 0.095256 -0.241098
N26   N     N_1   0.086546 0.442996 0.883238 -0.247914
N27   N     N_2   0.382797 0.950457 0.726615 -0.481886
N28   N     N_2   0.388340 0.554554 0.206496 -0.499554
N29   N     N_2   0.382796 0.549543 0.773385 -0.481886
N30   N     N_2   0.388340 0.445446 0.793504 -0.499554
N31   N     N_2   0.382796 0.450457 0.226615 -0.481886
N32   N     N_2   0.888340 0.054554 0.206496 -0.499554
O1    O     O_3   0.500000 0.250000 0.750000 -0.445712
O2    O     O_R   0.465380 0.366870 0.215380 -0.532123
O3    O     O_R   0.034610 0.633130 0.215390 -0.537577
O4    O     O_R   0.034610 0.866870 0.715390 -0.530919
O5    O     O_R   0.034610 0.866870 0.284610 -0.537577
O6    O     O_R   0.034610 0.133130 0.284610 -0.530919
O7    O     O_R   0.034610 0.133130 0.715390 -0.537577
O8    O     O_R   0.465380 0.633130 0.215380 -0.546717
O9    O     O_R   0.465380 0.633130 0.784620 -0.532123
O10   O     O_R   0.465380 0.866870 0.284620 -0.546717
O11   O     O_R   0.465380 0.866870 0.715380 -0.532123
O12   O     O_R   0.465380 0.133130 0.715380 -0.546717
O13   O     O_R   0.465380 0.133130 0.284620 -0.532123
O14   O     O_R   0.965380 0.366870 0.284620 -0.546717
O15   O     O_R   0.965380 0.366870 0.715380 -0.532123
O16   O     O_R   0.965380 0.633130 0.715380 -0.546717
O17   O     O_3   0.500000 0.250000 0.250000 -0.448835
O18   O     O_R   0.965380 0.633130 0.284620 -0.532123
O19   O     O_R   0.965380 0.866870 0.784620 -0.546717
O20   O     O_R   0.965380 0.866870 0.215380 -0.532123
O21   O     O_R   0.965380 0.133130 0.215380 -0.546717
O22   O     O_R   0.965380 0.133130 0.784620 -0.532123
O23   O     O_R   0.534610 0.280640 0.617980 -0.518710
O24   O     O_R   0.534610 0.280640 0.382020 -0.525205
O25   O     O_R   0.534610 0.719360 0.382020 -0.518710
O26   O     O_R   0.534610 0.719360 0.617980 -0.525205
O27   O     O_R   0.534610 0.780640 0.117980 -0.518710
O28   O     O_3   0.500000 0.750000 0.250000 -0.445712
O29   O     O_R   0.534610 0.780640 0.882020 -0.525205
O30   O     O_R   0.534610 0.219360 0.882020 -0.518710
O31   O     O_R   0.534610 0.219360 0.117980 -0.525205
O32   O     O_R   0.034610 0.280640 0.117980 -0.518710
O33   O     O_R   0.034610 0.280640 0.882020 -0.525205
O34   O     O_R   0.034610 0.719360 0.882020 -0.518710
O35   O     O_R   0.034610 0.719360 0.117980 -0.525205
O36   O     O_R   0.034610 0.780640 0.617980 -0.518710
O37   O     O_R   0.034610 0.780640 0.382020 -0.525205
O38   O     O_R   0.034610 0.219360 0.382020 -0.518710
O39   O     O_3   0.500000 0.750000 0.750000 -0.448835
O40   O     O_R   0.034610 0.219360 0.617980 -0.525205
O41   O     O_R   0.632030 0.280640 0.715400 -0.532720
O42   O     O_R   0.632030 0.280640 0.284600 -0.531438
O43   O     O_R   0.632030 0.719360 0.284600 -0.532720
O44   O     O_R   0.632030 0.719360 0.715400 -0.531438
O45   O     O_R   0.632030 0.780640 0.215400 -0.532720
O46   O     O_R   0.632030 0.780640 0.784600 -0.531438
O47   O     O_R   0.632030 0.219360 0.784600 -0.532720
O48   O     O_R   0.632030 0.219360 0.215400 -0.531438
O49   O     O_R   0.132030 0.280640 0.215400 -0.532720
O50   O     O_3   1.000000 0.250000 0.250000 -0.445712
O51   O     O_R   0.132030 0.280640 0.784600 -0.531438
O52   O     O_R   0.132030 0.719360 0.784600 -0.532720
O53   O     O_R   0.132030 0.719360 0.215400 -0.531438
O54   O     O_R   0.132030 0.780640 0.715400 -0.532720
O55   O     O_R   0.132030 0.780640 0.284600 -0.531438
O56   O     O_R   0.132030 0.219360 0.284600 -0.532720
O57   O     O_R   0.132030 0.219360 0.715400 -0.531438
O58   O     O_R   0.367970 0.280650 0.784620 -0.539202
O59   O     O_R   0.367970 0.280650 0.215380 -0.533693
O60   O     O_R   0.367970 0.719350 0.215380 -0.539201
O61   O     O_3   0.000000 0.250000 0.750000 -0.448835
O62   O     O_R   0.367970 0.719350 0.784620 -0.533693
O63   O     O_R   0.367970 0.780650 0.284620 -0.539202
O64   O     O_R   0.367970 0.780650 0.715380 -0.533693
O65   O     O_R   0.367970 0.219350 0.715380 -0.539201
O66   O     O_R   0.367970 0.219350 0.284620 -0.533693
O67   O     O_R   0.867970 0.280650 0.284620 -0.539202
O68   O     O_R   0.867970 0.280650 0.715380 -0.533693
O69   O     O_R   0.867970 0.719350 0.715380 -0.539201
O70   O     O_R   0.867970 0.719350 0.284620 -0.533693
O71   O     O_R   0.867970 0.780650 0.784620 -0.539202
O72   O     O_3   1.000000 0.750000 0.750000 -0.445712
O73   O     O_R   0.867970 0.780650 0.215380 -0.533693
O74   O     O_R   0.867970 0.219350 0.215380 -0.539201
O75   O     O_R   0.867970 0.219350 0.784620 -0.533693
O76   O     O_R   0.465380 0.219370 0.617980 -0.541051
O77   O     O_R   0.465380 0.219370 0.382020 -0.537841
O78   O     O_R   0.465380 0.780630 0.382020 -0.541051
O79   O     O_R   0.465380 0.780630 0.617980 -0.537841
O80   O     O_R   0.465380 0.719370 0.117980 -0.541051
O81   O     O_R   0.465380 0.719370 0.882020 -0.537841
O82   O     O_R   0.465380 0.280630 0.882020 -0.541051
O83   O     O_3   1.000000 0.750000 0.250000 -0.448835
O84   O     O_R   0.465380 0.280630 0.117980 -0.537841
O85   O     O_R   0.965380 0.219370 0.117980 -0.541051
O86   O     O_R   0.965380 0.219370 0.882020 -0.537841
O87   O     O_R   0.965380 0.780630 0.882020 -0.541051
O88   O     O_R   0.965380 0.780630 0.117980 -0.537841
O89   O     O_R   0.965380 0.719370 0.617980 -0.541051
O90   O     O_R   0.965380 0.719370 0.382020 -0.537841
O91   O     O_R   0.965380 0.280630 0.382020 -0.541051
O92   O     O_R   0.965380 0.280630 0.617980 -0.537841
O93   O     O_R   0.534610 0.366870 0.715390 -0.530919
O94   O     O_R   0.465380 0.366870 0.784620 -0.546717
O95   O     O_R   0.534610 0.366870 0.284610 -0.537577
O96   O     O_R   0.534610 0.633130 0.284610 -0.530919
O97   O     O_R   0.534610 0.633130 0.715390 -0.537577
O98   O     O_R   0.534610 0.866870 0.215390 -0.530919
O99   O     O_R   0.534610 0.866870 0.784610 -0.537577
O100  O     O_R   0.534610 0.133130 0.784610 -0.530919
O101  O     O_R   0.534610 0.133130 0.215390 -0.537577
O102  O     O_R   0.034610 0.366870 0.215390 -0.530919
O103  O     O_R   0.034610 0.366870 0.784610 -0.537577
O104  O     O_R   0.034610 0.633130 0.784610 -0.530919
Zn1   Zn    Zn3+2 0.450550 0.206230 0.700550 0.924222
Zn2   Zn    Zn3+2 0.950550 0.206230 0.799450 0.937126
Zn3   Zn    Zn3+2 0.950550 0.793770 0.799450 0.924222
Zn4   Zn    Zn3+2 0.950550 0.793770 0.200550 0.937127
Zn5   Zn    Zn3+2 0.950550 0.706230 0.700550 0.924222
Zn6   Zn    Zn3+2 0.950550 0.706230 0.299450 0.937126
Zn7   Zn    Zn3+2 0.950550 0.293770 0.299450 0.924222
Zn8   Zn    Zn3+2 0.950550 0.293770 0.700550 0.937127
Zn9   Zn    Zn3+2 0.549450 0.293780 0.700550 0.959898
Zn10  Zn    Zn3+2 0.549450 0.293780 0.299450 0.954020
Zn11  Zn    Zn3+2 0.549450 0.706220 0.299450 0.959898
Zn12  Zn    Zn3+2 0.450550 0.206230 0.299450 0.937127
Zn13  Zn    Zn3+2 0.549450 0.706220 0.700550 0.954020
Zn14  Zn    Zn3+2 0.549450 0.793780 0.200550 0.959898
Zn15  Zn    Zn3+2 0.549450 0.793780 0.799450 0.954020
Zn16  Zn    Zn3+2 0.549450 0.206220 0.799450 0.959898
Zn17  Zn    Zn3+2 0.549450 0.206220 0.200550 0.954020
Zn18  Zn    Zn3+2 0.049450 0.293780 0.200550 0.959898
Zn19  Zn    Zn3+2 0.049450 0.293780 0.799450 0.954020
Zn20  Zn    Zn3+2 0.049450 0.706220 0.799450 0.959898
Zn21  Zn    Zn3+2 0.049450 0.706220 0.200550 0.954020
Zn22  Zn    Zn3+2 0.049450 0.793780 0.700550 0.959898
Zn23  Zn    Zn3+2 0.450550 0.793770 0.299450 0.924222
Zn24  Zn    Zn3+2 0.049450 0.793780 0.299450 0.954020
Zn25  Zn    Zn3+2 0.049450 0.206220 0.299450 0.959898
Zn26  Zn    Zn3+2 0.049450 0.206220 0.700550 0.954020
Zn27  Zn    Zn3+2 0.450550 0.793770 0.700550 0.937127
Zn28  Zn    Zn3+2 0.450550 0.706230 0.200550 0.924222
Zn29  Zn    Zn3+2 0.450550 0.706230 0.799450 0.937127
Zn30  Zn    Zn3+2 0.450550 0.293770 0.799450 0.924222
Zn31  Zn    Zn3+2 0.450550 0.293770 0.200550 0.937126
Zn32  Zn    Zn3+2 0.950550 0.206230 0.200550 0.924222

loop_
_geom_bond_atom_site_label_1
_geom_bond_atom_site_label_2
_ccdc_geom_bond_type
O68   Zn8   S    
C140  O48   A    
C20   H77   S    
C47   C98   S    
C11   C98   S    
O39   Zn15  S    
C31   C101  S    
O17   Zn12  S    
C136  O90   A    
C4    C7    S    
C131  O33   A    
C5    C6    S    
C134  O88   A    
C19   H76   S    
C106  C107  T    
C60   H124  S    
C119  C130  S    
C108  C109  T    
C82   N21   T    
C39   C74   S    
C89   C94   S    
C7    C94   S    
C117  C132  S    
O14   Zn7   S    
C143  O56   A    
C21   H78   S    
C66   H25   S    
C52   H94   S    
C162  C171  T    
C12   C16   S    
O59   Zn31  S    
C145  O57   A    
C125  O79   A    
C139  C171  S    
C126  O80   A    
C91   C100  S    
C57   O21   A    
C45   H67   S    
O95   Zn10  S    
C49   H70   S    
C67   H29   S    
C36   C71   S    
O98   Zn14  S    
C54   H102  S    
O39   Zn13  S    
C83   N22   T    
C5    H85   S    
C175  H41   S    
C42   C94   S    
C108  C124  S    
O28   Zn23  S    
C141  O43   A    
C124  O25   A    
O1    Zn1   S    
C104  C105  T    
C64   H16   S    
C158  C167  T    
C41   H62   S    
H104  N27   S    
O80   Zn28  S    
C32   H54   S    
O52   Zn20  S    
C150  C159  S    
C88   C122  S    
C142  C172  S    
C38   H59   S    
C42   H64   S    
C125  O26   A    
C6    H96   S    
O94   Zn30  S    
O16   Zn5   S    
C147  O53   A    
O1    Zn30  S    
C104  C128  S    
C63   H10   S    
O87   Zn3   S    
C164  C173  T    
C72   N11   T    
C68   C96   S    
C163  C172  T    
C174  H1    S    
C58   H115  S    
C2    O15   A    
O99   Zn15  S    
C61   H3    S    
C153  O68   A    
O38   Zn25  S    
O93   Zn9   S    
C113  C137  S    
O82   Zn30  S    
C69   N8    S    
O66   Zn12  S    
C7    H107  S    
O50   Zn7   S    
O60   Zn28  S    
C65   H18   S    
O25   Zn11  S    
O81   Zn29  S    
O58   Zn30  S    
C69   H32   S    
O20   Zn4   S    
O102  Zn18  S    
C73   N13   T    
C54   N23   S    
C147  O55   A    
C139  O47   A    
C92   C111  S    
C156  O70   A    
C153  O75   A    
C38   C90   S    
C61   H127  S    
C33   H90   S    
C46   O5    A    
C36   H57   S    
C107  C127  S    
C127  O81   A    
C65   N5    S    
C41   C76   S    
C133  O11   A    
C35   O19   A    
C31   H53   S    
C64   N4    S    
C1    O94   A    
C67   H27   S    
O10   Zn23  S    
C150  O60   A    
C1    C93   S    
C55   H105  S    
C77   N17   T    
C22   C23   S    
C133  O99   A    
C56   H110  S    
O23   Zn9   S    
C70   N9    T    
C43   C47   S    
O61   Zn26  S    
C152  O67   A    
O55   Zn24  S    
C62   H5    S    
O46   Zn15  S    
O104  Zn20  S    
O77   Zn12  S    
C86   N26   T    
C142  O46   A    
O32   Zn18  S    
O18   Zn6   S    
O19   Zn3   S    
C141  O45   A    
C44   H66   S    
C40   H61   S    
C4    N28   S    
C14   H35   S    
C3    C90   S    
C44   C96   S    
C49   C84   S    
C36   C37   S    
C30   H87   S    
C110  C121  S    
C47   H68   S    
C89   O95   A    
O21   Zn32  S    
O53   Zn21  S    
C115  C116  T    
O79   Zn27  S    
C24   C101  S    
C122  O98   A    
C11   H24   S    
C12   C99   S    
C59   H120  S    
H100  N23   S    
C121  O23   A    
H12   N4    S    
C9    C10   S    
C152  C161  S    
C143  O49   A    
C65   H20   S    
C25   H81   S    
C62   H7    S    
C34   H56   S    
C102  C166  S    
C84   N24   T    
C174  N1    S    
C130  O32   A    
C8    C95   S    
C29   H50   S    
O42   Zn10  S    
O72   Zn3   S    
C132  O34   A    
C135  O89   A    
C176  H52   S    
H4    N2    S    
C151  O64   A    
C10   H13   S    
C149  O59   A    
C33   H55   S    
C25   H46   S    
C157  C165  T    
C8    N32   S    
O12   Zn1   S    
C63   H9    S    
O44   Zn13  S    
O83   Zn21  S    
C23   C93   S    
C13   C99   S    
C10   C97   S    
C60   N31   S    
C15   H36   S    
C56   N28   S    
C34   C79   S    
O70   Zn6   S    
C3    C174  S    
C31   C32   S    
C18   H75   S    
C35   O4    A    
C149  O66   A    
C29   H86   S    
C32   H89   S    
C56   H112  S    
O28   Zn11  S    
C137  O38   A    
C143  C167  S    
C22   H79   S    
C66   H22   S    
O26   Zn13  S    
C24   O18   A    
C53   H98   S    
C136  O37   A    
O39   Zn29  S    
C63   H11   S    
O7    Zn26  S    
C142  O44   A    
C61   N32   S    
C17   H38   S    
O51   Zn19  S    
C57   O6    A    
C21   C25   S    
O61   Zn19  S    
O62   Zn29  S    
C23   H80   S    
O75   Zn2   S    
C135  O36   A    
O27   Zn14  S    
C145  O51   A    
C87   C175  S    
H117  N30   S    
C146  O52   A    
C88   C176  S    
C48   C83   S    
O57   Zn26  S    
O103  Zn19  S    
C117  C118  T    
C126  O27   A    
C115  C135  S    
C10   N3    S    
C17   H73   S    
C154  O71   A    
C32   C102  S    
C148  C157  S    
C114  C138  S    
C46   C98   S    
C110  C112  T    
C123  O24   A    
O1    Zn9   S    
O2    Zn31  S    
C42   C77   S    
C49   C50   S    
C21   H43   S    
C146  C169  S    
C80   N19   T    
C22   C92   S    
C52   N1    S    
C74   N14   T    
O64   Zn27  S    
O36   Zn22  S    
O5    Zn24  S    
C150  O63   A    
C28   C97   S    
C151  O62   A    
C54   H103  S    
C120  C131  S    
H95   N12   S    
C37   C88   S    
C130  O85   A    
O89   Zn5   S    
O47   Zn16  S    
O1    Zn16  S    
C128  O82   A    
C66   N6    S    
C145  C165  S    
O76   Zn1   S    
C43   C78   S    
O22   Zn2   S    
C29   C98   S    
O78   Zn23  S    
O72   Zn22  S    
C14   N6    S    
C152  O74   A    
C49   C101  S    
C39   H60   S    
C138  O40   A    
O90   Zn6   S    
C51   C103  S    
C17   C20   S    
C140  O42   A    
C18   C19   S    
C39   C91   S    
C46   O20   A    
C50   C85   S    
C41   C93   S    
C23   H45   S    
C28   H84   S    
C43   C95   S    
C160  C169  T    
O50   Zn32  S    
C34   C70   S    
O50   Zn18  S    
C58   H116  S    
O37   Zn24  S    
C25   C94   S    
O97   Zn13  S    
C79   C174  S    
C27   C96   S    
C51   C86   S    
O28   Zn28  S    
C39   C42   S    
C2    O103  A    
O84   Zn31  S    
O40   Zn26  S    
C69   H31   S    
C137  O91   A    
C44   C80   S    
C63   N3    S    
C131  O86   A    
C112  C123  S    
O74   Zn32  S    
C19   C88   S    
C111  O97   A    
C90   C133  S    
C14   C101  S    
C60   H123  S    
C154  O69   A    
O92   Zn8   S    
O65   Zn1   S    
C31   H88   S    
C34   C38   S    
C28   H49   S    
C48   H69   S    
H91   N1    S    
C62   H6    S    
O85   Zn32  S    
C64   H14   S    
C52   H93   S    
C166  O102  A    
C6    C93   S    
H17   N5    S    
C9    C96   S    
C33   C103  S    
C139  O41   A    
O11   Zn27  S    
C50   C102  S    
C54   H101  S    
C55   H108  S    
O34   Zn20  S    
O29   Zn15  S    
C50   H71   S    
C64   H15   S    
C44   C45   S    
C113  C114  T    
C21   C91   S    
C48   C99   S    
C22   H44   S    
C140  C170  S    
C111  O9    A    
C58   N29   S    
O86   Zn2   S    
C20   H42   S    
C30   H51   S    
O101  Zn17  S    
C12   N5    S    
O17   Zn17  S    
C124  O78   A    
C119  C120  T    
C116  C136  S    
C3    N27   S    
H21   N6    S    
O69   Zn5   S    
C40   C75   S    
C153  C162  S    
C166  O14   A    
C51   H72   S    
C12   H34   S    
O3    Zn21  S    
H126  N32   S    
C2    C103  S    
C59   N30   S    
C53   N12   S    
C144  O12   A    
O83   Zn6   S    
C45   C81   S    
O96   Zn11  S    
C147  C168  S    
C71   N10   T    
C128  O30   A    
C58   H114  S    
O4    Zn22  S    
C59   H119  S    
C78   N18   T    
C37   C72   S    
C148  O58   A    
C26   H47   S    
O24   Zn10  S    
C100  O8    A    
H26   N7    S    
C122  O10   A    
C9    H2    S    
C129  O84   A    
C3    H63   S    
C65   H19   S    
C62   N2    S    
C16   N8    S    
C89   O2    A    
O88   Zn4   S    
C18   H39   S    
O6    Zn25  S    
C85   N25   T    
C13   O104  A    
O31   Zn17  S    
C37   H58   S    
H109  N28   S    
C43   H65   S    
C81   N20   T    
O71   Zn3   S    
C60   H125  S    
C27   H48   S    
C61   H128  S    
C8    H118  S    
C129  O31   A    
C134  O35   A    
O54   Zn22  S    
C5    N29   S    
O83   Zn24  S    
C17   C79   S    
C159  C168  T    
C7    N31   S    
C19   H40   S    
C47   C82   S    
C67   H28   S    
C16   C103  S    
C59   H121  S    
C48   C51   S    
O63   Zn23  S    
C175  C176  S    
O67   Zn7   S    
C26   H82   S    
C55   H106  S    
C155  O101  A    
C66   H23   S    
O48   Zn17  S    
O33   Zn19  S    
H122  N31   S    
C141  C173  S    
O43   Zn11  S    
O61   Zn8   S    
O41   Zn9   S    
C127  O29   A    
H30   N8    S    
C36   C87   S    
C156  O73   A    
C9    N2    S    
O30   Zn16  S    
C154  C163  S    
C68   O7    A    
C105  C129  S    
C176  N23   S    
C175  N12   S    
C20   C90   S    
C30   C99   S    
O83   Zn4   S    
H8    N3    S    
O17   Zn10  S    
O72   Zn5   S    
O100  Zn16  S    
C121  O76   A    
C79   C144  S    
C132  O87   A    
C1    O93   A    
O91   Zn7   S    
C40   C92   S    
C106  C126  S    
O15   Zn8   S    
C161  C170  T    
C109  C125  S    
C40   C41   S    
C52   H92   S    
C24   O3    A    
C68   O22   A    
O45   Zn14  S    
C146  O54   A    
O8    Zn28  S    
C87   C155  S    
C6    N30   S    
O13   Zn12  S    
C69   H33   S    
O49   Zn18  S    
O9    Zn29  S    
C149  C158  S    
C57   C95   S    
C26   C95   S    
C148  O65   A    
C11   N4    S    
C30   C33   S    
C14   C15   S    
C144  O100  A    
C118  C134  S    
C100  O96   A    
C75   N15   T    
C76   N16   T    
O73   Zn4   S    
C27   H83   S    
O39   Zn27  S    
C18   C87   S    
C55   N27   S    
C151  C160  S    
C4    C91   S    
O35   Zn21  S    
C4    H74   S    
C45   C97   S    
H113  N29   S    
C67   N7    S    
C8    C11   S    
C53   H97   S    
C56   H111  S    
C15   C102  S    
O28   Zn14  S    
C16   H37   S    
C155  O13   A    
C5    C92   S    
C13   O16   A    
C138  O92   A    
O56   Zn25  S    
C53   H99   S    
C156  C164  S    
C26   C29   S    
O17   Zn31  S    
C27   C28   S    
O72   Zn20  S    
O50   Zn25  S    
O61   Zn2   S    
C123  O77   A    
C35   C97   S    
C38   C73   S    
C15   N7    S    
