data_mof_unit_34381.cif
_audit_creation_date              2012-10-26T17:10:29-0400
_audit_creation_method            fapswitch 2.2
_symmetry_space_group_name_H-M    P1
_symmetry_Int_Tables_number       1
_space_group_crystal_system       triclinic
_cell_length_a                    16.843744
_cell_length_b                    16.794881
_cell_length_c                    16.731994
_cell_angle_alpha                 68.310347
_cell_angle_beta                  68.453778
_cell_angle_gamma                 67.780572
_cell_volume                      3926.60516876

loop_
_atom_site_label
_atom_site_type_symbol
_atom_type_description
_atom_site_fract_x
_atom_site_fract_y
_atom_site_fract_z
_atom_type_partial_charge
C1    C     C_R   0.587050 0.064297 0.583364 0.079490
C2    C     C_R   0.170793 0.433363 0.976024 0.569277
C3    C     C_R   0.566996 0.021585 0.829479 0.570389
C4    C     C_R   0.434957 0.973740 0.171323 0.557324
C5    C     C_R   0.434163 0.171317 0.974476 0.580844
C6    C     C_R   0.565298 0.828987 0.027571 0.570376
C7    C     C_R   0.975349 0.433745 0.171564 0.571675
C8    C     C_R   0.021741 0.566942 0.829259 0.570390
C9    C     C_R   0.170123 0.978929 0.432192 0.592053
C10   C     C_R   0.829594 0.022778 0.566467 0.589255
C11   C     C_R   0.536963 0.057892 0.530047 0.058543
C12   C     C_R   0.386558 0.025639 0.388346 0.076101
C13   C     C_R   0.432584 0.037980 0.442892 0.018579
C14   C     C_R   0.934634 0.580880 0.561923 -0.027016
C15   C     C_R   0.912001 0.481564 0.474466 -0.024361
C16   C     C_R   0.562148 0.561675 0.965438 -0.042993
C17   C     C_R   0.464934 0.474141 0.938295 -0.032506
C18   C     C_R   0.550470 0.973855 0.520089 0.242465
C19   C     C_R   0.417984 0.122260 0.454943 0.226481
C20   C     C_R   0.890687 0.513437 0.612978 0.243556
C21   C     C_R   0.900452 0.574619 0.435259 0.245525
C22   C     C_R   0.481633 0.611226 0.939399 0.239044
C23   C     C_R   0.979438 0.613904 0.603800 0.009759
C24   C     C_R   0.558804 0.443032 0.916007 0.242153
C25   C     C_R   0.500568 0.964171 0.473944 0.247258
C26   C     C_R   0.477162 0.133288 0.490202 0.231917
C27   C     C_R   0.429239 0.566510 0.931725 0.249360
C28   C     C_R   0.607425 0.480805 0.938606 0.231720
C29   C     C_R   0.884258 0.458213 0.569145 0.248918
C30   C     C_R   0.917998 0.624503 0.476466 0.250277
C31   C     C_R   0.548675 0.058456 0.675006 0.179921
C32   C     C_R   0.436868 0.998274 0.309800 0.226336
C33   C     C_R   0.013049 0.688823 0.557015 0.244412
C34   C     C_R   0.937540 0.417223 0.417632 0.010197
C35   C     C_R   0.949565 0.323381 0.454245 0.231877
C36   C     C_R   0.684288 0.556288 0.028142 0.252791
C37   C     C_R   0.314968 0.442668 0.978323 0.249323
C38   C     C_R   0.295111 0.032976 0.416305 0.220683
C39   C     C_R   0.677346 0.060252 0.546249 0.237521
C40   C     C_R   0.444748 0.319202 0.971692 0.234892
C41   C     C_R   0.556536 0.683338 0.029014 0.238782
C42   C     C_R   0.963603 0.446401 0.322452 0.227635
C43   C     C_R   0.996526 0.566843 0.689112 0.229967
C44   C     C_R   0.604304 0.032217 0.732125 -0.021610
C45   C     C_R   0.602240 0.601323 0.005710 0.006021
C46   C     C_R   0.397100 0.970067 0.267405 -0.017757
C47   C     C_R   0.029733 0.733312 0.603396 -0.000945
C48   C     C_R   0.953770 0.271063 0.401616 -0.012474
C49   C     C_R   0.733011 0.604408 0.035802 -0.005016
C50   C     C_R   0.268188 0.397142 0.963666 -0.021193
C51   C     C_R   0.262769 0.983287 0.389197 -0.002222
C52   C     C_R   0.733058 0.033776 0.602797 0.004143
C53   C     C_R   0.398659 0.269679 0.961010 -0.009915
C54   C     C_R   0.603896 0.732379 0.037316 -0.038360
C55   C     C_R   0.959550 0.398111 0.270740 -0.024174
C56   C     C_R   0.408710 0.413136 0.957287 0.009676
C57   C     C_R   0.022727 0.606929 0.733635 -0.028616
C58   C     C_R   0.697407 0.011962 0.695632 0.037008
C59   C     C_R   0.315252 0.949991 0.314255 0.035639
C60   C     C_R   0.042006 0.689420 0.688565 0.013143
C61   C     C_R   0.943212 0.313918 0.314875 0.017746
C62   C     C_R   0.690963 0.691059 0.046565 0.013713
C63   C     C_R   0.315387 0.314786 0.942538 0.018213
C64   C     C_3   0.498814 0.268115 0.397099 -0.132401
C65   C     C_3   0.599092 0.842722 0.420872 -0.030931
C66   C     C_3   0.926304 0.751306 0.355644 0.002021
C67   C     C_R   0.025779 0.828853 0.565435 0.600315
C68   C     C_3   0.838419 0.350437 0.699117 -0.029879
C69   C     C_3   0.731340 0.357590 0.951867 0.007595
C70   C     C_3   0.295654 0.681421 0.938619 -0.014151
C71   C     C_3   0.289988 0.228719 0.496887 -0.093971
C72   C     C_3   0.587480 0.850558 0.630797 -0.133076
C73   C     C_3   0.593966 0.415975 0.781636 -0.108907
C74   C     C_3   0.510946 0.732527 0.828149 -0.115062
C75   C     C_3   0.773463 0.616827 0.392050 -0.105266
C76   C     C_3   0.767342 0.585488 0.702799 -0.095770
C77   C     C_3   0.412239 0.152559 0.715862 -0.105363
C78   C     C_R   0.971446 0.171900 0.435436 0.568889
C79   C     C_3   0.536708 0.079736 0.234049 -0.108163
C80   C     C_3   0.123521 0.658842 0.435149 -0.141524
C81   C     C_3   0.038634 0.274023 0.548710 -0.114469
C82   C     C_3   0.656306 0.435442 0.142057 -0.154925
C83   C     C_3   0.280329 0.477697 0.108583 -0.128639
C84   C     C_3   0.205928 0.172810 0.381018 -0.092100
C85   C     C_3   0.715690 0.162095 0.416102 -0.120916
C86   C     C_3   0.504422 0.284496 0.087213 -0.120842
C87   C     C_3   0.432947 0.661578 0.140538 -0.123673
C88   C     C_3   0.081298 0.498385 0.290499 -0.112019
C89   C     C_R   0.829110 0.565517 0.027119 0.595009
C90   C     C_3   0.073469 0.422890 0.689821 -0.115154
C91   C     C_3   0.763403 0.863927 0.781443 -0.284682
C92   C     C_3   0.233474 0.922572 0.235025 -0.232006
C93   C     C_3   0.174199 0.682495 0.721768 -0.268937
C94   C     C_3   0.827952 0.313353 0.260677 -0.288001
C95   C     C_3   0.784752 0.782252 0.034416 -0.209005
C96   C     C_3   0.269474 0.323125 0.817430 -0.300216
Cu1   Cu    Cu3+1 0.995180 0.995180 0.424630 0.954944
Cu2   Cu    Cu3+1 0.004820 0.004820 0.575370 0.970586
Cu3   Cu    Cu3+1 0.995180 0.424630 0.995180 0.942982
Cu4   Cu    Cu3+1 0.004820 0.575370 0.004820 0.941475
Cu5   Cu    Cu3+1 0.424630 0.995180 0.995180 0.953863
Cu6   Cu    Cu3+1 0.575370 0.004820 0.004820 0.917172
H1    H     H_    0.438409 0.303244 0.372349 0.157759
H2    H     H_    0.830972 0.283451 0.712644 0.138653
H3    H     H_    0.903186 0.340277 0.710197 0.136744
H4    H     H_    0.782925 0.383660 0.747519 0.181119
H5    H     H_    0.795238 0.342856 0.966707 0.151195
H6    H     H_    0.685183 0.330207 0.015127 0.115266
H7    H     H_    0.746256 0.321857 0.901882 0.135850
H8    H     H_    0.306847 0.747009 0.896506 0.149779
H9    H     H_    0.298644 0.668900 0.007851 0.136775
H10   H     H_    0.226926 0.685753 0.942793 0.138785
H11   H     H_    0.318454 0.260321 0.523255 0.143498
H12   H     H_    0.525621 0.320429 0.394177 0.103659
H13   H     H_    0.262314 0.176087 0.551794 0.148117
H14   H     H_    0.234140 0.282249 0.472865 0.093013
H15   H     H_    0.534045 0.826242 0.631795 0.139525
H16   H     H_    0.563492 0.887723 0.681774 0.132778
H17   H     H_    0.642727 0.791219 0.648565 0.114693
H18   H     H_    0.616802 0.477400 0.747784 0.113154
H19   H     H_    0.524151 0.430401 0.780768 0.117245
H20   H     H_    0.635971 0.366558 0.742732 0.149468
H21   H     H_    0.507937 0.704102 0.779139 0.103253
H22   H     H_    0.580931 0.716822 0.829306 0.091906
H23   H     H_    0.550521 0.227748 0.351688 0.100474
H24   H     H_    0.484580 0.805990 0.806319 0.150650
H25   H     H_    0.736020 0.640069 0.453487 0.097631
H26   H     H_    0.769376 0.548936 0.402829 0.127757
H27   H     H_    0.740704 0.662781 0.338586 0.124917
H28   H     H_    0.725314 0.588065 0.663251 0.094152
H29   H     H_    0.786132 0.648772 0.678890 0.114729
H30   H     H_    0.726421 0.580115 0.772639 0.172190
H31   H     H_    0.422788 0.202168 0.649976 0.148988
H32   H     H_    0.430764 0.169728 0.763495 0.141292
H33   H     H_    0.340235 0.157690 0.740907 0.129782
H34   H     H_    0.634924 0.791299 0.469956 0.147304
H35   H     H_    0.495249 0.116963 0.186140 0.139395
H36   H     H_    0.607201 0.073724 0.195617 0.134062
H37   H     H_    0.521017 0.117783 0.282350 0.099634
H38   H     H_    0.122324 0.588398 0.453564 0.084855
H39   H     H_    0.173436 0.662993 0.461303 0.108713
H40   H     H_    0.144963 0.681603 0.361312 0.117955
H41   H     H_    0.068980 0.328224 0.501013 0.052784
H42   H     H_    0.084068 0.207674 0.541933 0.175196
H43   H     H_    0.031355 0.275762 0.616576 0.106981
H44   H     H_    0.587204 0.449425 0.139320 0.092087
H45   H     H_    0.637510 0.892039 0.378079 0.169899
H46   H     H_    0.656509 0.466163 0.190640 0.094417
H47   H     H_    0.682158 0.362065 0.166782 0.109616
H48   H     H_    0.349975 0.467249 0.107046 0.084213
H49   H     H_    0.260326 0.415119 0.146633 0.093543
H50   H     H_    0.238388 0.529548 0.144262 0.115650
H51   H     H_    0.157509 0.158215 0.361739 0.103793
H52   H     H_    0.261659 0.187359 0.321218 0.119026
H53   H     H_    0.171817 0.235265 0.401609 0.110803
H54   H     H_    0.775689 0.169617 0.422301 0.151985
H55   H     H_    0.655835 0.210979 0.445364 0.114942
H56   H     H_    0.596815 0.808336 0.376811 0.123912
H57   H     H_    0.720389 0.179180 0.344202 0.118874
H58   H     H_    0.442450 0.267531 0.133657 0.079415
H59   H     H_    0.500367 0.352734 0.084673 0.086312
H60   H     H_    0.561451 0.239450 0.114799 0.108269
H61   H     H_    0.461073 0.666205 0.188889 0.090194
H62   H     H_    0.447395 0.590616 0.142584 0.085147
H63   H     H_    0.359661 0.688846 0.161865 0.123752
H64   H     H_    0.107093 0.557423 0.254376 0.123267
H65   H     H_    0.127690 0.441477 0.262779 0.090639
H66   H     H_    0.079676 0.482644 0.361617 0.073891
H67   H     H_    0.872508 0.771230 0.322963 0.146301
H68   H     H_    0.131298 0.430968 0.700232 0.091390
H69   H     H_    0.082558 0.434405 0.617504 0.073804
H70   H     H_    0.071833 0.352679 0.723369 0.122755
H71   H     H_    0.762560 0.985702 0.793068 0.279710
H72   H     H_    0.704409 0.851344 0.837084 0.145227
H73   H     H_    0.824372 0.826531 0.804983 0.134426
H74   H     H_    0.768498 0.838929 0.726279 0.149832
H75   H     H_    0.344775 0.833884 0.278421 0.241557
H76   H     H_    0.268247 0.900637 0.172821 0.139490
H77   H     H_    0.209625 0.996763 0.217139 0.163046
H78   H     H_    0.986987 0.704335 0.324363 0.127585
H79   H     H_    0.175551 0.894885 0.268820 0.152529
H80   H     H_    0.041817 0.750901 0.777960 0.277931
H81   H     H_    0.182969 0.614071 0.767491 0.153123
H82   H     H_    0.199508 0.721582 0.742941 0.151949
H83   H     H_    0.213863 0.678802 0.652878 0.139201
H84   H     H_    0.964498 0.245644 0.223124 0.278805
H85   H     H_    0.823158 0.380335 0.212594 0.175516
H86   H     H_    0.778260 0.320853 0.324977 0.118803
H87   H     H_    0.811926 0.271463 0.234049 0.120389
H88   H     H_    0.682388 0.745006 0.145001 0.247441
H89   H     H_    0.944125 0.812901 0.342936 0.144316
H90   H     H_    0.754918 0.849818 0.045609 0.135124
H91   H     H_    0.799744 0.788091 0.962462 0.147073
H92   H     H_    0.847684 0.754373 0.054776 0.153254
H93   H     H_    0.227872 0.249661 0.950245 0.280834
H94   H     H_    0.243384 0.285890 0.794883 0.111229
H95   H     H_    0.334843 0.329784 0.770562 0.129256
H96   H     H_    0.222156 0.390649 0.815678 0.152692
N1    N     N_2   0.756918 0.958233 0.750343 -0.481578
N2    N     N_2   0.292084 0.887819 0.293107 -0.498658
N3    N     N_2   0.081391 0.726107 0.723909 -0.484766
N4    N     N_2   0.916367 0.271174 0.273832 -0.480299
N5    N     N_2   0.726248 0.725511 0.089060 -0.480817
N6    N     N_2   0.279589 0.275270 0.906570 -0.482568
O1    O     O_R   0.124540 0.978640 0.385460 -0.523352
O2    O     O_R   0.124540 0.385460 0.978640 -0.535064
O3    O     O_R   0.021360 0.875460 0.614540 -0.496915
O4    O     O_R   0.978640 0.124540 0.385460 -0.512667
O5    O     O_R   0.013780 0.867370 0.487190 -0.461054
O6    O     O_R   0.986220 0.132630 0.512810 -0.470759
O7    O     O_R   0.867370 0.487190 0.013780 -0.455184
O8    O     O_R   0.132630 0.512810 0.986220 -0.455454
O9    O     O_R   0.487190 0.013780 0.867370 -0.463618
O10   O     O_R   0.512810 0.986220 0.132630 -0.476963
O11   O     O_R   0.512810 0.132630 0.986220 -0.460307
O12   O     O_R   0.875460 0.021360 0.614540 -0.497775
O13   O     O_R   0.487190 0.867370 0.013780 -0.448975
O14   O     O_R   0.986220 0.512810 0.132630 -0.444152
O15   O     O_R   0.013780 0.487190 0.867370 -0.455623
O16   O     O_R   0.132630 0.986220 0.512810 -0.480308
O17   O     O_R   0.867370 0.013780 0.487190 -0.467816
O18   O     O_3   0.477622 0.216961 0.486752 -0.597663
O19   O     O_3   0.510788 0.881131 0.465646 -0.566367
O20   O     O_3   0.894800 0.717506 0.448938 -0.509761
O21   O     O_3   0.831674 0.399411 0.611546 -0.535743
O22   O     O_3   0.699897 0.451192 0.916815 -0.510861
O23   O     O_R   0.978640 0.385460 0.124540 -0.535713
O24   O     O_3   0.355385 0.613132 0.897400 -0.533826
O25   O     O_3   0.351805 0.194843 0.424566 -0.565294
O26   O     O_3   0.620338 0.903536 0.546067 -0.547193
O27   O     O_3   0.603762 0.378830 0.869301 -0.530285
O28   O     O_3   0.457187 0.703284 0.913589 -0.511613
O29   O     O_3   0.862772 0.618753 0.364003 -0.523019
O30   O     O_3   0.843120 0.510679 0.700908 -0.506869
O31   O     O_3   0.459001 0.064559 0.709822 -0.561084
O32   O     O_3   0.526568 0.993265 0.277274 -0.558620
O33   O     O_3   0.038381 0.714740 0.465019 -0.517380
O34   O     O_R   0.021360 0.614540 0.875460 -0.537224
O35   O     O_3   0.954656 0.282472 0.541429 -0.507702
O36   O     O_3   0.711659 0.464230 0.056737 -0.517721
O37   O     O_3   0.268024 0.508994 0.022022 -0.516755
O38   O     O_3   0.236043 0.102257 0.452155 -0.545134
O39   O     O_3   0.711758 0.073052 0.455117 -0.528045
O40   O     O_3   0.520855 0.274666 0.001651 -0.494389
O41   O     O_3   0.464543 0.712334 0.053442 -0.486461
O42   O     O_3   0.995953 0.520147 0.279078 -0.488978
O43   O     O_3   0.992626 0.479556 0.727611 -0.483900
O44   O     O_R   0.385460 0.124540 0.978640 -0.504824
O45   O     O_R   0.614540 0.875460 0.021360 -0.527950
O46   O     O_R   0.614540 0.021360 0.875460 -0.526513
O47   O     O_R   0.385460 0.978640 0.124540 -0.524846
O48   O     O_R   0.875460 0.614540 0.021360 -0.511524

loop_
_geom_bond_atom_site_label_1
_geom_bond_atom_site_label_2
_ccdc_geom_bond_type
C36   O36   S    
C64   H1    S    
C74   H22   S    
C11   C18   A    
C16   C28   A    
Cu5   Cu6   S    
C65   O19   S    
C89   O48   A    
Cu2   O16   S    
C46   C59   A    
H71   N1    S    
Cu6   O45   S    
C93   H81   S    
C66   H67   S    
C87   H61   S    
C34   C42   A    
C3    O46   A    
C7    C55   S    
C24   O27   S    
C10   C52   S    
C69   O22   S    
Cu1   Cu2   S    
C69   H5    S    
C89   O7    A    
C4    C46   S    
C49   C89   S    
C96   H96   S    
Cu2   O6    S    
C71   H11   S    
C90   H70   S    
C81   H41   S    
Cu1   O5    S    
C5    C53   S    
C70   O24   S    
C79   O32   S    
C34   C35   A    
C84   H52   S    
C92   H79   S    
C61   N4    S    
C93   H82   S    
H88   N5    S    
C95   N5    S    
H80   N3    S    
C77   O31   S    
C23   C43   A    
H84   N4    S    
C75   H26   S    
C48   C78   S    
C19   C26   A    
C92   H76   S    
C2    C50   S    
C10   O17   A    
C47   C60   A    
C7    O14   A    
C76   H28   S    
Cu6   O10   S    
C81   H42   S    
C21   O29   S    
C62   N5    S    
C44   C58   A    
C23   C33   A    
H75   N2    S    
C82   O36   S    
C90   H69   S    
C26   O18   S    
C52   C58   A    
C15   C29   A    
C2    O2    A    
C29   O21   S    
C65   H45   S    
C93   N3    S    
C78   O6    A    
C15   C34   S    
C83   H49   S    
C83   H48   S    
C91   N1    S    
C87   H62   S    
C33   O33   S    
Cu4   O14   S    
C95   H91   S    
C73   H18   S    
C40   C56   A    
C12   C32   A    
C50   C63   A    
C37   C56   A    
C13   C25   A    
Cu5   O47   S    
C18   C25   A    
C77   H31   S    
C6    C54   S    
C35   C48   A    
C69   H7    S    
C96   N6    S    
C47   C67   S    
C82   H44   S    
C69   H6    S    
C87   O41   S    
C39   O39   S    
C20   C29   A    
C1    C31   A    
C96   H95   S    
C38   O38   S    
C3    C44   S    
C17   C24   A    
C64   H12   S    
C31   C44   A    
C13   C19   A    
Cu3   O2    S    
C91   H73   S    
C17   C27   A    
C14   C20   A    
C4    O10   A    
C94   H85   S    
C70   H8    S    
C79   H37   S    
C63   N6    S    
C43   O43   S    
C85   O39   S    
C1    C39   A    
C68   O21   S    
C57   C60   A    
Cu3   O7    S    
H93   N6    S    
C54   C62   A    
C11   C26   A    
C88   H66   S    
C14   C30   A    
C66   H78   S    
Cu4   O8    S    
C81   O35   S    
C91   H72   S    
C39   C52   A    
C85   H54   S    
C80   O33   S    
C72   H15   S    
C68   H4    S    
C74   H24   S    
C92   H77   S    
C42   C55   A    
C6    O13   A    
C84   H51   S    
Cu6   O11   S    
C82   H46   S    
Cu3   Cu4   S    
C9    O1    A    
C7    O23   A    
C96   H94   S    
C59   N2    S    
C88   H65   S    
C90   O43   S    
C90   H68   S    
C27   O24   S    
C71   O25   S    
C71   H13   S    
C36   C45   A    
C86   H59   S    
C81   H43   S    
Cu4   O34   S    
C19   O25   S    
C17   C56   S    
C40   O40   S    
C72   O26   S    
C95   H90   S    
C35   O35   S    
C86   H60   S    
C64   O18   S    
C9    O16   A    
C74   O28   S    
C79   H35   S    
Cu3   O15   S    
C40   C53   A    
C95   H92   S    
C88   H64   S    
C58   N1    S    
C66   H89   S    
C18   O26   S    
C33   C47   A    
Cu5   O9    S    
Cu2   O3    S    
C51   C59   A    
C68   H3    S    
C5    O44   A    
C28   O22   S    
C73   O27   S    
C67   O3    A    
C82   H47   S    
C66   O20   S    
C83   H50   S    
C32   O32   S    
C75   O29   S    
Cu2   O12   S    
C42   O42   S    
C80   H40   S    
C16   C22   A    
C49   C62   A    
C6    O45   A    
C41   O41   S    
Cu6   O46   S    
C32   C46   A    
C73   H20   S    
C24   C28   A    
C4    O47   A    
C94   H86   S    
C65   H56   S    
Cu4   O48   S    
C16   C45   S    
C30   O20   S    
C38   C51   A    
C8    O34   A    
C14   C23   S    
C3    O9    A    
C77   H33   S    
C21   C30   A    
C83   O37   S    
C20   O30   S    
C93   H83   S    
C22   C27   A    
C9    C51   S    
C68   H2    S    
C25   O19   S    
C71   H14   S    
C8    O15   A    
C80   H38   S    
C76   H30   S    
C2    O8    A    
C53   C63   A    
C10   O12   A    
C48   C61   A    
C87   H63   S    
C67   O5    A    
C31   O31   S    
C94   N4    S    
C55   C61   A    
C72   H17   S    
C37   C50   A    
C76   H29   S    
Cu1   O17   S    
C91   H74   S    
C74   H21   S    
C75   H25   S    
C84   O38   S    
Cu1   O4    S    
C12   C38   A    
C70   H10   S    
C78   O4    A    
C41   C54   A    
C94   H87   S    
C65   H34   S    
C37   O37   S    
C70   H9    S    
C43   C57   A    
C88   O42   S    
Cu5   O13   S    
C60   N3    S    
C15   C21   A    
C79   H36   S    
C22   O28   S    
C12   C13   S    
C86   O40   S    
C64   H23   S    
C77   H32   S    
C72   H16   S    
C84   H53   S    
C85   H55   S    
C41   C45   A    
C76   O30   S    
C1    C11   S    
C85   H57   S    
Cu1   O1    S    
C92   N2    S    
Cu5   O44   S    
C86   H58   S    
C80   H39   S    
C8    C57   S    
Cu3   O23   S    
C36   C49   A    
C75   H27   S    
C73   H19   S    
C5    O11   A    
