data_mof_unit_67570.cif
_audit_creation_date              2013-03-05T15:41:22-0500
_audit_creation_method            fapswitch 2.2
_symmetry_space_group_name_H-M    P1
_symmetry_Int_Tables_number       1
_space_group_crystal_system       triclinic
_cell_length_a                    10.857742
_cell_length_b                    9.017882
_cell_length_c                    7.59144
_cell_angle_alpha                 102.631542
_cell_angle_beta                  95.527715
_cell_angle_gamma                 95.664191
_cell_volume                      716.434041361

loop_
_atom_site_label
_atom_site_type_symbol
_atom_site_description
_atom_site_fract_x
_atom_site_fract_y
_atom_site_fract_z
_atom_type_partial_charge
O1    O     O_R   0.509190 0.286130 0.619780 -0.553941
O2    O     O_R   0.490810 0.713870 0.380220 -0.552675
O3    O     O_R   0.485310 0.256770 0.308360 -0.552287
O4    O     O_R   0.514690 0.743230 0.691640 -0.510785
C1    C     C_R   0.490869 0.200398 0.454349 0.876778
C2    C     C_R   0.508734 0.799287 0.544795 0.860308
O5    O     O_R   0.328790 0.514640 0.655680 -0.593382
O6    O     O_R   0.671210 0.485360 0.344320 -0.608837
O7    O     O_R   0.304910 0.485280 0.344260 -0.562355
O8    O     O_R   0.695090 0.514720 0.655740 -0.580444
C3    C     C_R   0.260129 0.501161 0.500475 0.916504
C4    C     C_R   0.740749 0.502477 0.499531 0.920039
Cu1   Cu    Cu3+1 0.514140 0.517380 0.684380 1.075619
Cu2   Cu    Cu3+1 0.485860 0.482620 0.315620 1.056718
N1    N     N_2   0.464560 0.456420 0.038510 -0.216995
N2    N     N_2   0.535440 0.543580 0.961490 -0.187728
C5    C     C_3   0.050706 0.471214 0.656069 -0.475789
C6    C     C_3   0.951900 0.534575 0.340217 -0.461290
C7    C     C_3   0.951106 0.365722 0.510649 0.366755
C8    C     C_3   0.051676 0.640123 0.485696 0.437740
H1    H     H_    0.095250 0.461064 0.788093 0.170818
H2    H     H_    0.907664 0.548042 0.209569 0.166600
C9    C     C_3   0.878066 0.501257 0.495044 -0.243889
C10   C     C_3   0.124116 0.504984 0.502450 -0.229501
C11   C     C_3   0.977397 0.605968 0.636444 0.428567
C12   C     C_3   0.025898 0.399527 0.359782 0.392607
H3    H     H_    0.396946 0.382881 0.948745 0.232323
H4    H     H_    0.601230 0.618296 0.052883 0.233778
C13   C     C_2   0.478624 0.032861 0.429717 0.124289
C14   C     C_2   0.524436 0.966146 0.565739 0.164365
S1    S     S_3+6 0.878328 0.178778 0.499615 0.067415
O9    O     O_2   0.897284 0.139200 0.680981 -0.201735
O10   O     O_2   0.742260 0.168357 0.437395 -0.330793
O11   O     O_3   0.936931 0.053536 0.345990 -0.453292
H5    H     H_    0.906100 0.079506 0.231454 0.374607
S2    S     S_3+6 0.120101 0.829800 0.497839 0.054815
O12   O     O_2   0.052929 0.938809 0.619644 -0.193333
O13   O     O_2   0.253798 0.849340 0.578159 -0.347918
O14   O     O_3   0.109156 0.868297 0.291343 -0.491262
H6    H     H_    0.150287 0.974687 0.311792 0.421455
O15   O     O_3   0.950660 0.724665 0.773889 -0.519529
C15   C     C_3   0.926293 0.669723 0.927586 0.003949
H7    H     H_    0.015224 0.678519 0.016051 0.213415
H8    H     H_    0.880926 0.548892 0.895673 0.143413
C16   C     C_3   0.839180 0.770288 0.023980 -0.547225
H9    H     H_    0.745517 0.739293 0.946969 0.247922
H10   H     H_    0.835894 0.761326 0.166714 0.215795
H11   H     H_    0.870375 0.888708 0.018496 0.291812
O16   O     O_3   0.061483 0.282002 0.227495 -0.568064
C17   C     C_3   0.065447 0.326283 0.062285 0.005893
H12   H     H_    0.115779 0.443662 0.082073 0.156198
H13   H     H_    0.969046 0.321068 0.995169 0.197562
C18   C     C_3   0.135328 0.214464 0.943142 -0.550411
H14   H     H_    0.234655 0.236840 0.998139 0.241979
H15   H     H_    0.098287 0.095524 0.944344 0.299036
H16   H     H_    0.127940 0.227300 0.801150 0.223829
S3    S     S_3+6 0.406720 0.927706 0.206795 0.050320
O17   O     O_2   0.509068 0.880779 0.095172 -0.229856
O18   O     O_2   0.320112 0.787214 0.206757 -0.236869
O19   O     O_3   0.321773 0.036802 0.104994 -0.531471
H17   H     H_    0.287607 0.969642 0.985089 0.407541
S4    S     S_3+6 0.604967 0.070197 0.782293 0.078173
O20   O     O_2   0.681241 0.969653 0.868083 -0.266776
O21   O     O_2   0.690002 0.210442 0.777991 -0.234153
O22   O     O_3   0.497052 0.126485 0.914594 -0.491883
H18   H     H_    0.547493 0.195327 0.021458 0.405531

loop_
_geom_bond_atom_site_label_1
_geom_bond_atom_site_label_2
_geom_bond_distance
_ccdc_geom_bond_type
N2    H4    1.025028 S    
C7    C9    1.540587 S    
O7    Cu2   1.999311 S    
S1    O10   1.494441 D    
C13   C14   1.381106 D    
O15   C15   1.401171 S    
C18   H15   1.110005 S    
C17   H13   1.111056 S    
S1    O9    1.496747 D    
C6    C12   1.549197 S    
S4    O21   1.498798 D    
O6    C4    1.307017 A    
C5    C11   1.542645 S    
C18   H16   1.105211 S    
S4    O20   1.494885 D    
S2    O13   1.497362 D    
C17   H12   1.114507 S    
Cu1   N2    2.052514 S    
S1    O11   1.658100 S    
C7    S1    1.770874 S    
C6    H2    1.096150 S    
Cu1   Cu2   2.731465 S    
O5    C3    1.307300 A    
O7    C3    1.309129 A    
C4    C9    1.495687 S    
S3    O17   1.499820 D    
O2    C2    1.301834 A    
O3    Cu2   2.024751 S    
C15   H8    1.115461 S    
O1    C1    1.308181 A    
O8    C4    1.315674 A    
S2    O12   1.492379 D    
C5    C7    1.549456 S    
C13   S3    1.808336 S    
O16   C17   1.400109 S    
C1    C13   1.472154 S    
C16   H10   1.107737 S    
C14   S4    1.798347 S    
O11   H5    0.985593 S    
S3    O18   1.501341 D    
C5    C10   1.540953 S    
O1    Cu1   2.029219 S    
C15   H7    1.107393 S    
O14   H6    0.990428 S    
C6    C9    1.550115 S    
C17   C18   1.514896 S    
C16   H9    1.100913 S    
C3    C10   1.482038 S    
O5    Cu1   2.000380 S    
C9    C11   1.529610 S    
C6    C8    1.550961 S    
O4    C2    1.319646 A    
O22   H18   0.985141 S    
C8    C11   1.529017 S    
C12   O16   1.403970 S    
C11   O15   1.396397 S    
O4    Cu1   2.024751 S    
C7    C12   1.532037 S    
C8    C10   1.535476 S    
Cu2   N1    2.052514 S    
O2    Cu2   2.029221 S    
S3    O19   1.670381 S    
O6    Cu2   2.000382 S    
C16   H11   1.098913 S    
S4    O22   1.661453 S    
C2    C14   1.469022 S    
C18   H14   1.100720 S    
N1    H3    1.026148 S    
C15   C16   1.504984 S    
S2    O14   1.674005 S    
C5    H1    1.096478 S    
N1    N2    1.311572 D    
C10   C12   1.530188 S    
O19   H17   0.991197 S    
O3    C1    1.315260 A    
O8    Cu1   1.999310 S    
C8    S2    1.775731 S    
