data_mof_unit_60154.cif
_audit_creation_date              2012-12-10T18:26:46-0500
_audit_creation_method            fapswitch 2.2
_symmetry_space_group_name_H-M    P1
_symmetry_Int_Tables_number       1
_space_group_crystal_system       triclinic
_cell_length_a                    25.79385
_cell_length_b                    25.792934
_cell_length_c                    22.155583
_cell_angle_alpha                 89.999841
_cell_angle_beta                  54.401138
_cell_angle_gamma                 89.999859
_cell_volume                      11985.3478277

loop_
_atom_site_label
_atom_site_type_symbol
_atom_type_description
_atom_site_fract_x
_atom_site_fract_y
_atom_site_fract_z
_atom_type_partial_charge
C1    C     C_R   0.849463 0.750034 0.301069 0.502760
C2    C     C_3   0.551039 0.249760 0.499690 0.065973
C3    C     C_3   0.318980 0.970243 0.443128 -0.227574
C4    C     C_3   0.792963 0.529965 0.522184 -0.234909
C5    C     C_3   0.792962 0.470033 0.522185 -0.234979
C6    C     C_3   0.225522 0.029965 0.577804 -0.230242
C7    C     C_3   0.225522 0.970034 0.577804 -0.230218
C8    C     C_3   0.681047 0.529755 0.556874 -0.228827
C9    C     C_3   0.681047 0.470244 0.556873 -0.228737
C10   C     C_3   0.207062 0.029965 0.477822 -0.236001
C11   C     C_3   0.207063 0.970034 0.477821 -0.236018
C12   C     C_3   0.749627 0.550877 0.500319 0.061627
C13   C     C_3   0.050723 0.249783 0.500325 0.065940
C14   C     C_3   0.749627 0.449122 0.500319 0.061544
C15   C     C_3   0.250399 0.050877 0.499683 0.058699
C16   C     C_3   0.250399 0.949122 0.499683 0.058616
C17   C     C_R   0.750008 0.891424 0.499931 0.496898
C18   C     C_R   0.750008 0.108576 0.499931 0.497052
C19   C     C_R   0.250008 0.391424 0.499930 0.496897
C20   C     C_R   0.250008 0.608576 0.499930 0.497048
C21   C     C_R   0.891476 0.749958 0.499904 0.498002
C22   C     C_R   0.891407 0.249942 0.500043 0.497948
C23   C     C_R   0.391475 0.249957 0.499905 0.497909
C24   C     C_3   0.051040 0.749762 0.499688 0.065676
C25   C     C_R   0.391406 0.749942 0.500044 0.497856
C26   C     C_R   0.608554 0.749969 0.500091 0.496723
C27   C     C_R   0.608623 0.249931 0.499952 0.496798
C28   C     C_R   0.108554 0.249968 0.500090 0.496698
C29   C     C_R   0.108624 0.749932 0.499951 0.496795
C30   C     C_3   0.518878 0.804053 0.522180 -0.234884
C31   C     C_3   0.558196 0.209449 0.443140 -0.228686
C32   C     C_3   0.018862 0.304046 0.522211 -0.234897
C33   C     C_3   0.058204 0.709460 0.443125 -0.228669
C34   C     C_3   0.458959 0.804047 0.522162 -0.234273
C35   C     C_3   0.448992 0.749774 0.500298 0.064941
C36   C     C_3   0.498696 0.209455 0.443123 -0.227727
C37   C     C_3   0.958943 0.304040 0.522194 -0.234283
C38   C     C_3   0.998703 0.709466 0.443109 -0.227599
C39   C     C_3   0.568886 0.735596 0.422202 -0.233781
C40   C     C_3   0.541081 0.304030 0.477806 -0.234719
C41   C     C_3   0.068891 0.235618 0.422191 -0.233759
C42   C     C_3   0.041074 0.804035 0.477821 -0.234727
C43   C     C_2   0.538231 0.817053 0.072095 0.217702
C44   C     C_2   0.540898 0.186011 0.072098 0.217477
C45   C     C_2   0.042543 0.311977 0.072091 0.217269
C46   C     C_3   0.449309 0.249770 0.499661 0.064086
C47   C     C_2   0.044520 0.690599 0.072091 0.217056
C48   C     C_2   0.560449 0.652570 0.926612 0.220314
C49   C     C_2   0.556468 0.348301 0.926609 0.220241
C50   C     C_2   0.053986 0.151212 0.926597 0.220818
C51   C     C_2   0.050758 0.849285 0.926596 0.220768
C52   C     C_3   0.948993 0.249773 0.500297 0.064593
C53   C     C_3   0.949310 0.749771 0.499660 0.063635
C54   C     C_3   0.508967 0.735590 0.422185 -0.233787
C55   C     C_3   0.481164 0.304035 0.477786 -0.235344
C56   C     C_3   0.008972 0.235613 0.422174 -0.233710
C57   C     C_R   0.849465 0.249964 0.301069 0.502788
C58   C     C_3   0.981156 0.804041 0.477803 -0.235390
C59   C     C_3   0.441828 0.709473 0.556863 -0.228953
C60   C     C_3   0.431143 0.235596 0.577792 -0.232989
C61   C     C_3   0.941842 0.209454 0.556835 -0.228958
C62   C     C_3   0.931146 0.735584 0.577785 -0.232864
C63   C     C_3   0.466504 0.741819 0.957349 -0.232052
C64   C     C_3   0.466219 0.255929 0.957350 -0.232084
C65   C     C_3   0.966110 0.245465 0.957350 -0.232076
C66   C     C_3   0.965990 0.752719 0.957353 -0.232088
C67   C     C_3   0.543779 0.801795 0.955856 -0.242051
C68   C     C_R   0.349463 0.250034 0.301069 0.503028
C69   C     C_3   0.545871 0.199117 0.955858 -0.242016
C70   C     C_3   0.047187 0.300244 0.955858 -0.242009
C71   C     C_3   0.048810 0.700586 0.955859 -0.241992
C72   C     C_3   0.500156 0.802881 0.042351 -0.068095
C73   C     C_3   0.502292 0.198017 0.042352 -0.067933
C74   C     C_3   0.003641 0.301348 0.042352 -0.067922
C75   C     C_3   0.005301 0.699473 0.042353 -0.067782
C76   C     C_1   0.389332 0.749839 0.221723 0.014357
C77   C     C_1   0.389329 0.250162 0.221723 0.014379
C78   C     C_1   0.889341 0.249824 0.221723 0.014307
C79   C     C_R   0.349465 0.749964 0.301069 0.503096
C80   C     C_1   0.889337 0.750175 0.221723 0.014326
C81   C     C_3   0.537606 0.749107 0.926728 0.027606
C82   C     C_3   0.537572 0.250917 0.926728 0.027577
C83   C     C_3   0.037573 0.249045 0.926727 0.027598
C84   C     C_3   0.037541 0.750970 0.926727 0.027564
C85   C     C_R   0.650565 0.749999 0.698931 0.508154
C86   C     C_R   0.650564 0.250000 0.698931 0.508039
C87   C     C_R   0.150566 0.249998 0.698931 0.507782
C88   C     C_R   0.150564 0.750001 0.698931 0.507681
C89   C     C_3   0.423862 0.741264 0.043380 -0.240172
C90   C     C_3   0.501326 0.709480 0.556881 -0.228911
C91   C     C_3   0.423555 0.256501 0.043381 -0.240247
C92   C     C_3   0.923432 0.244887 0.043381 -0.240332
C93   C     C_3   0.923296 0.753310 0.043382 -0.240395
C94   C     C_3   0.464658 0.749909 0.073285 0.027577
C95   C     C_3   0.464657 0.250131 0.073285 0.027545
C96   C     C_3   0.964680 0.249819 0.073284 0.027640
C97   C     C_3   0.964675 0.750211 0.073285 0.027612
C98   C     C_3   0.513673 0.704905 0.043794 -0.233921
C99   C     C_3   0.511813 0.296492 0.043792 -0.233870
C100  C     C_3   0.010639 0.202644 0.043789 -0.233812
C101  C     C_3   0.491061 0.235591 0.577809 -0.234284
C102  C     C_3   0.009082 0.798376 0.043786 -0.233767
C103  C     C_3   0.558508 0.705439 0.957350 -0.068409
C104  C     C_3   0.556667 0.296023 0.957348 -0.068292
C105  C     C_3   0.055508 0.203075 0.957344 -0.068596
C106  C     C_3   0.053962 0.798000 0.957342 -0.068505
C107  C     C_1   0.423090 0.749812 0.154958 -0.046631
C108  C     C_1   0.423086 0.250201 0.154958 -0.046591
C109  C     C_1   0.923105 0.249770 0.154957 -0.046617
C110  C     C_1   0.923100 0.750238 0.154958 -0.046580
C111  C     C_1   0.577968 0.749564 0.845044 -0.046872
C112  C     C_3   0.001341 0.209460 0.556852 -0.228827
C113  C     C_1   0.577952 0.250441 0.845044 -0.046886
C114  C     C_1   0.077962 0.249536 0.845043 -0.046909
C115  C     C_1   0.077945 0.750465 0.845043 -0.046912
C116  C     C_1   0.611082 0.749818 0.778278 0.014771
C117  C     C_1   0.611076 0.250180 0.778278 0.014749
C118  C     C_1   0.111084 0.249809 0.778277 0.014740
C119  C     C_1   0.111077 0.750188 0.778278 0.014736
C120  C     C_3   0.737921 0.970247 0.443136 -0.228631
C121  C     C_3   0.737922 0.029753 0.443135 -0.228692
C122  C     C_3   0.237927 0.470247 0.443130 -0.228606
C123  C     C_3   0.991065 0.735580 0.577802 -0.234276
C124  C     C_3   0.237929 0.529753 0.443129 -0.228669
C125  C     C_3   0.696720 0.970036 0.577808 -0.233838
C126  C     C_3   0.696720 0.029963 0.577808 -0.233833
C127  C     C_3   0.196716 0.470036 0.577805 -0.233861
C128  C     C_3   0.196716 0.529963 0.577805 -0.233854
C129  C     C_3   0.815162 0.970035 0.477809 -0.234759
C130  C     C_3   0.815162 0.029963 0.477810 -0.234741
C131  C     C_3   0.315160 0.470035 0.477815 -0.234774
C132  C     C_3   0.315160 0.529963 0.477817 -0.234757
C133  C     C_R   0.749924 0.608598 0.500070 0.499089
C134  C     C_3   0.550722 0.749784 0.500328 0.066251
C135  C     C_R   0.749924 0.391401 0.500070 0.498949
C136  C     C_R   0.250093 0.108598 0.499931 0.499009
C137  C     C_R   0.250093 0.891401 0.499931 0.498886
C138  C     C_3   0.749957 0.949131 0.499684 0.066683
C139  C     C_3   0.749957 0.050869 0.499684 0.066716
C140  C     C_3   0.249957 0.449131 0.499683 0.066715
C141  C     C_3   0.249957 0.550869 0.499683 0.066749
C142  C     C_3   0.774507 0.529965 0.422199 -0.232925
C143  C     C_3   0.774507 0.470034 0.422199 -0.232853
C144  C     C_3   0.318980 0.029756 0.443127 -0.227650
H1    H     H_    0.553026 0.833852 0.482446 0.131526
H2    H     H_    0.535492 0.333832 0.517537 0.130029
H3    H     H_    0.256134 0.955571 0.594481 0.118603
H4    H     H_    0.661875 0.543963 0.613719 0.142823
H5    H     H_    0.661873 0.456035 0.613718 0.143161
H6    H     H_    0.157396 0.044243 0.517559 0.130822
H7    H     H_    0.157397 0.955754 0.517555 0.130959
H8    H     H_    0.648729 0.543966 0.542493 0.127134
H9    H     H_    0.648730 0.456035 0.542490 0.127274
H10   H     H_    0.224239 0.044428 0.421731 0.110669
H11   H     H_    0.224240 0.955572 0.421729 0.110758
H12   H     H_    0.775783 0.544428 0.578276 0.120073
H13   H     H_    0.091705 0.196670 0.405499 0.106779
H14   H     H_    0.775781 0.455570 0.578278 0.119986
H15   H     H_    0.176248 0.044242 0.619665 0.144966
H16   H     H_    0.176248 0.955756 0.619665 0.145274
H17   H     H_    0.464555 0.833842 0.482418 0.133328
H18   H     H_    0.512921 0.218699 0.386273 0.137251
H19   H     H_    0.964527 0.333847 0.482469 0.133753
H20   H     H_    0.012925 0.718718 0.386261 0.138055
H21   H     H_    0.604094 0.763940 0.380344 0.135150
H22   H     H_    0.583599 0.314887 0.421715 0.107275
H23   H     H_    0.104091 0.263974 0.380350 0.135567
H24   H     H_    0.035480 0.833832 0.517562 0.130408
H25   H     H_    0.083589 0.814902 0.421735 0.107544
H26   H     H_    0.515624 0.763933 0.380320 0.138775
H27   H     H_    0.494760 0.314895 0.421687 0.107593
H28   H     H_    0.015621 0.263969 0.380327 0.139654
H29   H     H_    0.994750 0.814910 0.421707 0.107882
H30   H     H_    0.522730 0.669971 0.542506 0.127694
H31   H     H_    0.484408 0.263942 0.619662 0.133928
H32   H     H_    0.022758 0.169957 0.542450 0.128057
H33   H     H_    0.984407 0.763924 0.619665 0.134291
H34   H     H_    0.487102 0.718733 0.613728 0.132052
H35   H     H_    0.502849 0.696636 0.405508 0.106502
H36   H     H_    0.497172 0.196640 0.594501 0.107783
H37   H     H_    0.987114 0.218696 0.613705 0.132418
H38   H     H_    0.997183 0.696626 0.594481 0.108053
H39   H     H_    0.399192 0.718722 0.613703 0.133774
H40   H     H_    0.408333 0.196647 0.594475 0.112098
H41   H     H_    0.899204 0.218686 0.613682 0.134174
H42   H     H_    0.908344 0.696632 0.594454 0.112698
H43   H     H_    0.579083 0.793923 0.057728 0.103606
H44   H     H_    0.580783 0.210490 0.057730 0.103293
H45   H     H_    0.081792 0.286669 0.057716 0.103349
H46   H     H_    0.447021 0.333843 0.517507 0.130000
H47   H     H_    0.082930 0.716935 0.057714 0.103130
H48   H     H_    0.516944 0.634631 0.939795 0.108498
H49   H     H_    0.512263 0.364723 0.939792 0.108121
H50   H     H_    0.009375 0.135751 0.939783 0.108592
H51   H     H_    0.005664 0.863500 0.939783 0.108287
H52   H     H_    0.002865 0.196664 0.405473 0.106712
H53   H     H_    0.947008 0.833841 0.517533 0.130196
H54   H     H_    0.386924 0.772081 0.064587 0.118106
H55   H     H_    0.387892 0.224638 0.064590 0.118048
H56   H     H_    0.888595 0.277382 0.064588 0.117806
H57   H     H_    0.600834 0.218688 0.386297 0.133257
H58   H     H_    0.889527 0.720044 0.064593 0.117793
H59   H     H_    0.451148 0.773996 0.937591 0.121325
H60   H     H_    0.452192 0.222750 0.937594 0.121342
H61   H     H_    0.952937 0.279241 0.937593 0.121308
H62   H     H_    0.953928 0.718210 0.937598 0.121372
H63   H     H_    0.594655 0.808613 0.933496 0.113848
H64   H     H_    0.596992 0.193920 0.933499 0.113712
H65   H     H_    0.098427 0.304422 0.933493 0.113620
H66   H     H_    0.100165 0.697714 0.933493 0.113487
H67   H     H_    0.529803 0.833952 0.934510 0.117792
H68   H     H_    0.053001 0.333856 0.482495 0.131769
H69   H     H_    0.533224 0.165983 0.934513 0.118052
H70   H     H_    0.035387 0.333963 0.934518 0.117922
H71   H     H_    0.038121 0.666153 0.934520 0.118127
H72   H     H_    0.463513 0.833644 0.060284 0.150726
H73   H     H_    0.466923 0.166154 0.060287 0.151049
H74   H     H_    0.969096 0.333878 0.060292 0.150800
H75   H     H_    0.971827 0.666129 0.060294 0.151068
H76   H     H_    0.505283 0.814925 0.578275 0.108041
H77   H     H_    0.565200 0.169940 0.457538 0.129158
H78   H     H_    0.005264 0.314900 0.578313 0.108310
H79   H     H_    0.100839 0.718709 0.386284 0.133638
H80   H     H_    0.065215 0.669948 0.457508 0.129379
H81   H     H_    0.607641 0.714608 0.940055 0.143178
H82   H     H_    0.606140 0.288509 0.940052 0.143143
H83   H     H_    0.105158 0.209546 0.940051 0.143076
H84   H     H_    0.103801 0.792868 0.940045 0.143072
H85   H     H_    0.487509 0.667429 0.065079 0.118024
H86   H     H_    0.484138 0.333306 0.065076 0.118081
H87   H     H_    0.982027 0.166278 0.065068 0.118319
H88   H     H_    0.979297 0.834138 0.065066 0.118364
H89   H     H_    0.459781 0.705242 0.936148 0.114012
H90   H     H_    0.434818 0.669961 0.542479 0.127481
H91   H     H_    0.458022 0.291769 0.936146 0.113951
H92   H     H_    0.957005 0.210114 0.936150 0.113959
H93   H     H_    0.955744 0.787409 0.936152 0.113923
H94   H     H_    0.398367 0.703488 0.063552 0.122359
H95   H     H_    0.396537 0.293619 0.063551 0.122310
H96   H     H_    0.895467 0.208216 0.063554 0.122212
H97   H     H_    0.894147 0.789379 0.063555 0.122143
H98   H     H_    0.542623 0.708129 0.066044 0.103661
H99   H     H_    0.540863 0.294900 0.066041 0.103630
H100  H     H_    0.039714 0.203203 0.066040 0.103720
H101  H     H_    0.395940 0.263948 0.619639 0.135567
H102  H     H_    0.038156 0.799126 0.066035 0.103725
H103  H     H_    0.691217 0.956038 0.457528 0.128613
H104  H     H_    0.691220 0.043963 0.457525 0.128496
H105  H     H_    0.191226 0.456038 0.457517 0.128772
H106  H     H_    0.191229 0.543963 0.457513 0.128652
H107  H     H_    0.775587 0.956038 0.386289 0.132155
H108  H     H_    0.775590 0.043960 0.386288 0.132071
H109  H     H_    0.275597 0.456038 0.386285 0.132073
H110  H     H_    0.275600 0.543960 0.386284 0.131986
H111  H     H_    0.649429 0.955573 0.594490 0.106707
H112  H     H_    0.934843 0.169947 0.542427 0.127622
H113  H     H_    0.649429 0.044426 0.594490 0.106763
H114  H     H_    0.149426 0.455573 0.594483 0.106802
H115  H     H_    0.149426 0.544426 0.594482 0.106865
H116  H     H_    0.825100 0.955755 0.517537 0.130023
H117  H     H_    0.825097 0.044242 0.517541 0.129899
H118  H     H_    0.325093 0.455755 0.517548 0.129904
H119  H     H_    0.325090 0.544241 0.517552 0.129780
H120  H     H_    0.854070 0.955572 0.421714 0.107188
H121  H     H_    0.854070 0.044427 0.421717 0.107204
H122  H     H_    0.354071 0.455572 0.421723 0.107045
H123  H     H_    0.895938 0.763929 0.619642 0.136003
H124  H     H_    0.354071 0.544427 0.421725 0.107059
H125  H     H_    0.416444 0.814916 0.578248 0.112052
H126  H     H_    0.477284 0.169950 0.457513 0.131227
H127  H     H_    0.916425 0.314892 0.578287 0.112568
H128  H     H_    0.977298 0.669958 0.457487 0.131645
H129  H     H_    0.704142 0.955758 0.619661 0.133886
H130  H     H_    0.704142 0.044240 0.619661 0.133804
H131  H     H_    0.204134 0.455758 0.619662 0.133758
H132  H     H_    0.204133 0.544241 0.619663 0.133677
H133  H     H_    0.823781 0.544242 0.380341 0.145193
H134  H     H_    0.591688 0.696644 0.405534 0.106543
H135  H     H_    0.823781 0.455757 0.380341 0.145488
H136  H     H_    0.351297 0.043967 0.457508 0.132058
H137  H     H_    0.351296 0.956033 0.457512 0.132133
H138  H     H_    0.743896 0.544427 0.405520 0.107951
H139  H     H_    0.743896 0.455572 0.405520 0.107996
H140  H     H_    0.338153 0.043964 0.386283 0.144523
H141  H     H_    0.338154 0.956034 0.386284 0.144853
H142  H     H_    0.842628 0.544244 0.482449 0.134504
H143  H     H_    0.842627 0.455752 0.482453 0.134602
H144  H     H_    0.256134 0.044428 0.594481 0.118726
O1    O     O_3   0.750010 0.750010 0.500000 -0.431974
O2    O     O_R   0.740870 0.133130 0.457020 -0.551913
O3    O     O_R   0.240870 0.366870 0.457020 -0.551856
O4    O     O_R   0.240870 0.633130 0.457020 -0.551927
O5    O     O_R   0.862620 0.719400 0.336030 -0.524824
O6    O     O_R   0.862620 0.280600 0.336030 -0.524788
O7    O     O_R   0.362620 0.219400 0.336030 -0.525007
O8    O     O_R   0.362620 0.780600 0.336030 -0.525041
O9    O     O_R   0.698690 0.780630 0.663960 -0.540886
O10   O     O_R   0.698690 0.219370 0.663960 -0.541263
O11   O     O_R   0.198690 0.280630 0.663960 -0.541459
O12   O     O_3   0.750010 0.249990 0.500000 -0.432003
O13   O     O_R   0.198690 0.719370 0.663960 -0.541770
O14   O     O_R   0.801340 0.780670 0.336040 -0.545760
O15   O     O_R   0.801340 0.219330 0.336040 -0.545842
O16   O     O_R   0.301340 0.280670 0.336040 -0.545628
O17   O     O_R   0.301340 0.719330 0.336040 -0.545693
O18   O     O_R   0.637410 0.719360 0.663970 -0.535405
O19   O     O_R   0.637410 0.280640 0.663970 -0.534872
O20   O     O_R   0.137410 0.219360 0.663970 -0.534592
O21   O     O_R   0.137410 0.780640 0.663970 -0.534130
O22   O     O_R   0.802130 0.633170 0.457010 -0.545586
O23   O     O_3   0.250010 0.250010 0.500000 -0.431980
O24   O     O_R   0.802130 0.366830 0.457010 -0.545444
O25   O     O_R   0.302130 0.133170 0.457010 -0.547620
O26   O     O_R   0.302130 0.866830 0.457010 -0.547484
O27   O     O_R   0.759170 0.866860 0.542980 -0.550618
O28   O     O_R   0.759170 0.133140 0.542980 -0.550681
O29   O     O_R   0.259170 0.366860 0.542980 -0.550622
O30   O     O_R   0.259170 0.633140 0.542980 -0.550686
O31   O     O_R   0.888360 0.719380 0.456990 -0.548517
O32   O     O_R   0.888360 0.280620 0.456990 -0.546430
O33   O     O_R   0.388360 0.219380 0.456990 -0.548959
O34   O     O_3   0.250010 0.749990 0.500000 -0.432000
O35   O     O_R   0.388360 0.780620 0.456990 -0.546936
O36   O     O_R   0.654640 0.780660 0.457030 -0.549829
O37   O     O_R   0.654640 0.219340 0.457030 -0.551901
O38   O     O_R   0.154640 0.280660 0.457030 -0.549747
O39   O     O_R   0.154640 0.719340 0.457030 -0.551830
O40   O     O_R   0.845390 0.780640 0.542970 -0.549193
O41   O     O_R   0.845390 0.219360 0.542970 -0.551329
O42   O     O_R   0.345390 0.280640 0.542970 -0.549322
O43   O     O_R   0.345390 0.719360 0.542970 -0.551428
O44   O     O_R   0.611660 0.719380 0.543010 -0.552956
O45   O     O_R   0.697880 0.633160 0.542990 -0.549482
O46   O     O_R   0.611660 0.280620 0.543010 -0.550857
O47   O     O_R   0.111660 0.219380 0.543010 -0.552700
O48   O     O_R   0.111660 0.780620 0.543010 -0.550572
O49   O     O_2   0.523706 0.854894 0.112041 -0.493899
O50   O     O_2   0.527906 0.148424 0.112047 -0.493967
O51   O     O_2   0.030513 0.349371 0.112043 -0.494240
O52   O     O_2   0.033701 0.653484 0.112044 -0.494417
O53   O     O_2   0.610896 0.629405 0.887121 -0.499380
O54   O     O_2   0.605946 0.372697 0.887117 -0.499287
O55   O     O_2   0.102837 0.126072 0.887094 -0.498484
O56   O     O_R   0.697880 0.366840 0.542990 -0.549335
O57   O     O_2   0.098775 0.875360 0.887094 -0.498378
O58   O     O_R   0.197880 0.133160 0.542990 -0.547198
O59   O     O_R   0.197880 0.866840 0.542990 -0.547049
O60   O     O_R   0.740870 0.866870 0.457020 -0.551851
Zn1   Zn    Zn3+2 0.675530 0.706240 0.561430 0.925806
Zn2   Zn    Zn3+2 0.763090 0.206230 0.561410 0.921911
Zn3   Zn    Zn3+2 0.263090 0.293770 0.561410 0.922370
Zn4   Zn    Zn3+2 0.263090 0.706230 0.561410 0.921344
Zn5   Zn    Zn3+2 0.736940 0.793790 0.438590 0.917664
Zn6   Zn    Zn3+2 0.736940 0.206210 0.438590 0.916862
Zn7   Zn    Zn3+2 0.236940 0.293790 0.438590 0.917933
Zn8   Zn    Zn3+2 0.236940 0.706210 0.438590 0.917143
Zn9   Zn    Zn3+2 0.675530 0.293760 0.561430 0.926943
Zn10  Zn    Zn3+2 0.175530 0.206240 0.561430 0.927305
Zn11  Zn    Zn3+2 0.175530 0.793760 0.561430 0.928435
Zn12  Zn    Zn3+2 0.824490 0.706250 0.438570 0.937652
Zn13  Zn    Zn3+2 0.824490 0.293750 0.438570 0.938404
Zn14  Zn    Zn3+2 0.324490 0.206250 0.438570 0.936486
Zn15  Zn    Zn3+2 0.324490 0.793750 0.438570 0.937171
Zn16  Zn    Zn3+2 0.763090 0.793770 0.561410 0.922991

loop_
_geom_bond_atom_site_label_1
_geom_bond_atom_site_label_2
_ccdc_geom_bond_type
C60   H40   S    
O9    Zn16  S    
C133  O22   A    
C102  H102  S    
C76   C79   S    
C34   H17   S    
C42   C58   S    
O56   Zn9   S    
O32   Zn13  S    
C125  H129  S    
C89   H54   S    
C29   O48   A    
O20   Zn10  S    
C13   C112  S    
C52   C61   S    
C90   C134  S    
C95   C99   S    
C23   O42   A    
C34   C35   S    
C89   C94   S    
C125  H111  S    
C131  C140  S    
C31   H77   S    
C49   O54   D    
C46   C55   S    
C70   C74   S    
O11   Zn3   S    
C67   H67   S    
C120  H103  S    
C4    C12   S    
C131  H118  S    
C72   C94   S    
C23   O33   A    
C64   H60   S    
C23   C46   S    
C51   O57   D    
C102  H88   S    
C83   C114  S    
C10   H10   S    
C89   H94   S    
C142  H133  S    
O43   Zn4   S    
C94   C107  S    
C3    C144  S    
C70   H70   S    
C64   H91   S    
O23   Zn3   S    
C83   C105  S    
C39   H21   S    
C79   O17   A    
C41   C56   S    
O44   Zn1   S    
C75   H75   S    
C40   C55   S    
C9    H5    S    
C127  H114  S    
O4    Zn8   S    
C88   C119  S    
C132  H119  S    
C76   C107  T    
C136  O25   A    
C103  H81   S    
C73   C95   S    
O33   Zn14  S    
C30   H76   S    
C68   C77   S    
C69   H64   S    
C46   C60   S    
O10   Zn2   S    
C57   C78   S    
C85   C116  S    
C33   C38   S    
C127  H131  S    
C4    C5    S    
O1    Zn1   S    
C26   O44   A    
C53   C58   S    
O29   Zn3   S    
C6    C7    S    
C125  C138  S    
O19   Zn9   S    
C96   C109  S    
C90   H30   S    
C143  H139  S    
C135  O56   A    
C51   H51   S    
C142  H138  S    
O17   Zn8   S    
C38   C53   S    
O21   Zn11  S    
O45   Zn1   S    
O2    Zn6   S    
C86   C117  S    
C66   H62   S    
C98   H98   S    
C130  H117  S    
C95   C108  S    
C33   H80   S    
C2    C40   S    
C5    H14   S    
C36   H126  S    
C31   C36   S    
C64   C91   S    
C39   C134  S    
C65   H92   S    
C122  H109  S    
C47   O52   D    
C18   O2    A    
O15   Zn6   S    
C63   H59   S    
C17   O27   A    
C18   O28   A    
C8    H8    S    
C39   C54   S    
C65   H61   S    
C14   C135  S    
C92   C96   S    
C67   C72   S    
O36   Zn5   S    
C124  H106  S    
C69   C82   S    
C130  H121  S    
C121  H104  S    
C85   O9    A    
C30   C134  S    
C50   C105  S    
O47   Zn10  S    
C36   C46   S    
C129  H120  S    
C100  H100  S    
C11   H11   S    
C62   H42   S    
C27   O46   A    
C126  H130  S    
C9    H9    S    
C60   H101  S    
C47   H47   S    
C63   C89   S    
O3    Zn7   S    
C7    H3    S    
C20   O30   A    
C126  C139  S    
C21   O31   A    
C30   C34   S    
O48   Zn11  S    
C22   O32   A    
C20   O4    A    
C74   C96   S    
C37   C52   S    
C15   C136  S    
C17   O60   A    
C87   O20   A    
C48   C103  S    
C24   C123  S    
C45   C74   S    
C26   C134  S    
C129  H116  S    
C25   O35   A    
C8    C12   S    
C74   H74   S    
C61   H41   S    
C32   C37   S    
C59   H39   S    
C2    C27   S    
C66   C93   S    
C113  C117  T    
C11   H7    S    
C112  H32   S    
C67   C81   S    
C115  C119  T    
O8    Zn15  S    
C124  C141  S    
C101  H31   S    
C127  C140  S    
C122  C124  S    
C93   C97   S    
C120  C121  S    
C30   H1    S    
C22   C52   S    
C129  C130  S    
C81   C103  S    
C132  C141  S    
C92   H96   S    
C82   C104  S    
C20   C141  S    
C100  H87   S    
C82   C113  S    
O59   Zn11  S    
O31   Zn12  S    
O5    Zn12  S    
O18   Zn1   S    
C112  H37   S    
C84   C115  S    
O27   Zn16  S    
C40   H2    S    
C121  C139  S    
C122  C140  S    
C101  H36   S    
C93   H97   S    
C39   H134  S    
O35   Zn15  S    
C71   H71   S    
C96   C100  S    
O25   Zn14  S    
C78   C109  T    
C105  H83   S    
C1    O14   A    
C10   C11   S    
C91   C95   S    
C37   H127  S    
C92   H56   S    
C61   C112  S    
C38   H128  S    
C3    C16   S    
C85   O18   A    
O46   Zn9   S    
C90   H34   S    
C58   H53   S    
C65   C92   S    
C24   C42   S    
C54   H26   S    
O34   Zn15  S    
C123  H33   S    
C13   C41   S    
C88   O21   A    
C19   O29   A    
C94   C98   S    
C98   C103  S    
C68   O7    A    
C75   C97   S    
C54   H35   S    
C35   C59   S    
O34   Zn8   S    
C28   O47   A    
C24   C29   S    
O58   Zn10  S    
C57   O6    A    
C13   C32   S    
C56   H52   S    
O40   Zn16  S    
C84   C106  S    
C13   C28   S    
C69   C73   S    
C111  C116  T    
C128  C141  S    
C97   C102  S    
C26   O36   A    
O37   Zn6   S    
C99   C104  S    
C68   O16   A    
C19   O3    A    
C56   H28   S    
C35   C54   S    
C36   H18   S    
C8    H4    S    
C49   C104  S    
C130  C139  S    
O34   Zn11  S    
C55   H27   S    
C42   H24   S    
C77   C108  T    
C128  H115  S    
C69   H69   S    
C124  H110  S    
C137  O26   A    
C48   O53   D    
C121  H108  S    
C7    H16   S    
C22   O41   A    
C86   O10   A    
C4    H142  S    
C5    H143  S    
C6    H144  S    
C9    C14   S    
C42   H25   S    
C79   O8    A    
C11   C16   S    
C93   H58   S    
C5    C14   S    
C135  O24   A    
C87   C118  S    
C41   H13   S    
C33   H79   S    
C86   O19   A    
C72   H72   S    
C125  C126  S    
C106  H84   S    
C58   H29   S    
C127  C128  S    
C3    H141  S    
C14   C143  S    
C126  H113  S    
C88   O13   A    
O12   Zn9   S    
C1    O5    A    
C24   C33   S    
C27   O37   A    
O6    Zn13  S    
C10   H6    S    
C50   H50   S    
C45   O51   D    
C43   O49   D    
C12   C142  S    
O1    Zn5   S    
C99   H99   S    
C44   C73   S    
C48   H48   S    
O12   Zn2   S    
C21   O40   A    
C47   C75   S    
O23   Zn7   S    
C1    C80   S    
C142  C143  S    
C57   O15   A    
O7    Zn14  S    
C71   C75   S    
C43   C72   S    
O30   Zn4   S    
O1    Zn12  S    
C16   C137  S    
C120  H107  S    
C6    H15   S    
C131  H122  S    
O12   Zn13  S    
O23   Zn10  S    
C100  C105  S    
C50   O55   D    
C63   C81   S    
O22   Zn12  S    
C123  H38   S    
C10   C15   S    
C32   H68   S    
C65   C83   S    
O26   Zn15  S    
C128  H132  S    
C6    C15   S    
O12   Zn6   S    
C28   O38   A    
C129  C138  S    
C81   C111  S    
C19   C140  S    
C144  H140  S    
C34   H125  S    
C17   C138  S    
C43   H43   S    
C40   H22   S    
C37   H19   S    
C91   H55   S    
C137  O59   A    
C38   H20   S    
O1    Zn16  S    
O41   Zn2   S    
C62   C123  S    
O60   Zn5   S    
O23   Zn14  S    
C55   H46   S    
C8    C9    S    
C2    C101  S    
C133  O45   A    
C2    C31   S    
C29   O39   A    
C59   C90   S    
C132  H124  S    
C70   C83   S    
C62   H123  S    
C63   H89   S    
C98   H85   S    
C53   C62   S    
C71   H66   S    
C143  H135  S    
C73   H73   S    
C144  H136  S    
O42   Zn3   S    
C64   C82   S    
C114  C118  T    
C44   H44   S    
C45   H45   S    
O14   Zn5   S    
C25   C35   S    
C61   H112  S    
C44   O50   D    
C12   C133  S    
C66   H93   S    
C59   H90   S    
C80   C110  T    
C60   C101  S    
C99   H86   S    
C67   H63   S    
O38   Zn7   S    
O34   Zn4   S    
C71   C84   S    
O16   Zn7   S    
C7    C16   S    
C4    H12   S    
C32   H78   S    
C104  H82   S    
O39   Zn8   S    
C87   O11   A    
C122  H105  S    
C21   C53   S    
C97   C110  S    
O13   Zn4   S    
C49   H49   S    
C51   C106  S    
C41   H23   S    
C102  C106  S    
C18   C139  S    
O24   Zn13  S    
C31   H57   S    
C136  O58   A    
C66   C84   S    
C15   C144  S    
C52   C56   S    
C3    H137  S    
C120  C138  S    
C91   H95   S    
C70   H65   S    
C131  C132  S    
C25   O43   A    
O28   Zn2   S    
