data_mof_unit_58535.cif
_audit_creation_date              2012-12-11T14:28:14-0500
_audit_creation_method            fapswitch 2.2
_symmetry_space_group_name_H-M    P1
_symmetry_Int_Tables_number       1
_space_group_crystal_system       monoclinic
_cell_length_a                    10.994225
_cell_length_b                    19.028833
_cell_length_c                    18.720431
_cell_angle_alpha                 90.0
_cell_angle_beta                  89.821109
_cell_angle_gamma                 90.0
_cell_volume                      3916.43120114

loop_
_atom_site_label
_atom_site_type_symbol
_atom_type_description
_atom_site_fract_x
_atom_site_fract_y
_atom_site_fract_z
_atom_type_partial_charge
C1    C     C_R   0.317700 0.965632 0.645392 0.579533
C2    C     C_R   0.317538 0.962989 0.856146 0.582041
C3    C     C_R   0.317538 0.037011 0.356146 0.582041
C4    C     C_R   0.317700 0.034368 0.145392 0.579534
C5    C     C_R   0.817700 0.465633 0.645393 0.579535
C6    C     C_R   0.817538 0.462989 0.856146 0.582040
C7    C     C_R   0.817538 0.537011 0.356146 0.582041
C8    C     C_R   0.817700 0.534368 0.145392 0.579534
C9    C     C_3   0.218215 0.757991 0.449564 -0.141500
C10   C     C_3   0.209380 0.726209 0.042764 -0.124188
C11   C     C_3   0.209380 0.273792 0.542763 -0.124188
C12   C     C_3   0.218215 0.242009 0.949564 -0.141500
C13   C     C_3   0.718215 0.257990 0.449564 -0.141499
C14   C     C_3   0.709380 0.226209 0.042764 -0.124188
C15   C     C_3   0.709380 0.773791 0.542763 -0.124188
C16   C     C_3   0.718215 0.742009 0.949564 -0.141500
C17   C     C_3   0.085859 0.748258 0.427135 0.053640
C18   C     C_3   0.086537 0.748058 0.074054 0.056378
C19   C     C_3   0.086537 0.251942 0.574055 0.056378
C20   C     C_3   0.085859 0.251742 0.927135 0.053640
C21   C     C_3   0.585859 0.248258 0.427135 0.053640
C22   C     C_3   0.586537 0.248058 0.074054 0.056378
C23   C     C_3   0.586537 0.751942 0.574055 0.056378
C24   C     C_3   0.585859 0.751742 0.927135 0.053640
C25   C     C_R   0.314932 0.015727 0.429482 0.008506
C26   C     C_R   0.314186 0.006640 0.074393 0.010583
C27   C     C_R   0.314186 0.993360 0.574392 0.010583
C28   C     C_R   0.314932 0.984273 0.929482 0.008506
C29   C     C_R   0.814932 0.515727 0.429482 0.008506
C30   C     C_R   0.814186 0.506640 0.074393 0.010583
C31   C     C_R   0.814186 0.493360 0.574393 0.010582
C32   C     C_R   0.814932 0.484273 0.929482 0.008506
C33   C     C_R   0.534084 0.981186 0.431784 0.150553
C34   C     C_R   0.532300 0.971008 0.072889 0.161273
C35   C     C_R   0.532300 0.028992 0.572889 0.161273
C36   C     C_R   0.534084 0.018814 0.931784 0.150554
C37   C     C_R   0.034084 0.481186 0.431784 0.150553
C38   C     C_R   0.032300 0.471008 0.072889 0.161273
C39   C     C_R   0.032300 0.528992 0.572889 0.161272
C40   C     C_R   0.034084 0.518814 0.931784 0.150553
C41   C     C_R   0.643271 0.992267 0.467742 0.343337
C42   C     C_R   0.642273 0.978816 0.036519 0.362565
C43   C     C_R   0.642273 0.021184 0.536520 0.362566
C44   C     C_R   0.643271 0.007733 0.967742 0.343338
C45   C     C_R   0.143272 0.492268 0.467742 0.343338
C46   C     C_R   0.142273 0.478816 0.036519 0.362565
C47   C     C_R   0.142273 0.521184 0.536519 0.362566
C48   C     C_R   0.143271 0.507733 0.967742 0.343338
C49   C     C_R   0.423325 0.009291 0.538906 -0.121016
C50   C     C_R   0.423898 0.999769 0.965280 -0.121678
C51   C     C_R   0.423899 0.000231 0.465280 -0.121678
C52   C     C_R   0.423325 0.990708 0.038906 -0.121016
C53   C     C_R   0.923326 0.509291 0.538906 -0.121016
C54   C     C_R   0.923898 0.499770 0.965280 -0.121678
C55   C     C_R   0.923899 0.500231 0.465280 -0.121677
C56   C     C_R   0.923325 0.490709 0.038906 -0.121016
C57   C     C_R   0.201279 0.992159 0.535675 -0.006131
C58   C     C_R   0.202856 0.978768 0.968799 0.000817
C59   C     C_R   0.202856 0.021232 0.468799 0.000817
C60   C     C_R   0.201279 0.007841 0.035676 -0.006131
C61   C     C_R   0.701279 0.492158 0.535675 -0.006130
C62   C     C_R   0.702856 0.478768 0.968799 0.000817
C63   C     C_R   0.702857 0.521232 0.468799 0.000817
C64   C     C_R   0.701279 0.507841 0.035675 -0.006131
C65   C     C_R   0.087481 0.961465 0.557530 -0.111081
C66   C     C_R   0.090539 0.949582 0.944604 -0.107935
C67   C     C_R   0.090539 0.050417 0.444604 -0.107935
C68   C     C_R   0.087481 0.038535 0.057530 -0.111082
C69   C     C_R   0.587481 0.461465 0.557530 -0.111081
C70   C     C_R   0.590539 0.449583 0.944604 -0.107934
C71   C     C_R   0.590539 0.550417 0.444604 -0.107935
C72   C     C_R   0.587481 0.538535 0.057530 -0.111081
C73   C     C_R   0.978859 0.980955 0.526682 -0.057530
C74   C     C_R   0.980361 0.968260 0.974502 -0.060155
C75   C     C_R   0.980362 0.031739 0.474502 -0.060155
C76   C     C_R   0.978859 0.019045 0.026682 -0.057530
C77   C     C_R   0.478859 0.480955 0.526682 -0.057531
C78   C     C_R   0.480361 0.468260 0.974502 -0.060155
C79   C     C_R   0.480362 0.531740 0.474502 -0.060155
C80   C     C_R   0.478859 0.519045 0.026682 -0.057530
C81   C     C_R   0.185742 0.771761 0.636148 0.548320
C82   C     C_R   0.182834 0.771494 0.864183 0.546873
C83   C     C_R   0.182834 0.228506 0.364183 0.546874
C84   C     C_R   0.185742 0.228239 0.136148 0.548320
C85   C     C_R   0.685742 0.271761 0.636148 0.548321
C86   C     C_R   0.682834 0.271494 0.864183 0.546873
C87   C     C_R   0.682834 0.728506 0.364183 0.546873
C88   C     C_R   0.685742 0.728239 0.136148 0.548320
C89   C     C_R   0.545047 0.768777 0.645855 0.536314
C90   C     C_R   0.542330 0.769670 0.855604 0.535270
C91   C     C_R   0.542330 0.230330 0.355604 0.535270
C92   C     C_R   0.545046 0.231223 0.145855 0.536315
C93   C     C_R   0.045047 0.268777 0.645855 0.536315
C94   C     C_R   0.042330 0.269670 0.855604 0.535270
C95   C     C_R   0.042330 0.730330 0.355604 0.535270
C96   C     C_R   0.045047 0.731223 0.145855 0.536315
C97   C     C_3   0.043548 0.808340 0.475386 -0.122856
C98   C     C_3   0.092570 0.819390 0.037505 -0.118848
C99   C     C_3   0.092571 0.180610 0.537505 -0.118847
C100  C     C_3   0.043547 0.191660 0.975386 -0.122856
C101  C     C_3   0.543549 0.308341 0.475386 -0.122856
C102  C     C_3   0.592570 0.319390 0.037505 -0.118848
C103  C     C_3   0.592570 0.680610 0.537505 -0.118848
C104  C     C_3   0.543548 0.691660 0.975386 -0.122856
C105  C     C_3   0.177501 0.818468 0.499258 -0.154120
C106  C     C_3   0.216844 0.798044 0.004235 -0.152927
C107  C     C_3   0.216845 0.201956 0.504235 -0.152926
C108  C     C_3   0.177500 0.181532 0.999258 -0.154120
C109  C     C_3   0.677502 0.318467 0.499258 -0.154119
C110  C     C_3   0.716844 0.298044 0.004235 -0.152927
C111  C     C_3   0.716844 0.701956 0.504235 -0.152927
C112  C     C_3   0.677500 0.681532 0.999258 -0.154120
C113  C     C_3   0.155972 0.765029 0.559419 0.033643
C114  C     C_3   0.148460 0.765822 0.940513 0.035413
C115  C     C_3   0.148459 0.234178 0.440513 0.035413
C116  C     C_3   0.155972 0.234971 0.059419 0.033643
C117  C     C_3   0.655972 0.265029 0.559419 0.033643
C118  C     C_3   0.648460 0.265822 0.940513 0.035413
C119  C     C_3   0.648459 0.734178 0.440513 0.035413
C120  C     C_3   0.655972 0.734971 0.059419 0.033643
C121  C     C_3   0.023989 0.754374 0.536252 -0.112037
C122  C     C_3   0.025137 0.787316 0.972521 -0.119011
C123  C     C_3   0.025137 0.212683 0.472521 -0.119011
C124  C     C_3   0.023989 0.245627 0.036252 -0.112038
C125  C     C_3   0.523989 0.254375 0.536251 -0.112038
C126  C     C_3   0.525137 0.287316 0.972521 -0.119011
C127  C     C_3   0.525137 0.712683 0.472521 -0.119011
C128  C     C_3   0.523989 0.745626 0.036252 -0.112038
C129  C     C_3   0.065952 0.694299 0.487163 -0.085049
C130  C     C_3   0.019052 0.715638 0.010582 -0.106588
C131  C     C_3   0.019052 0.284362 0.510582 -0.106588
C132  C     C_3   0.065953 0.305701 0.987163 -0.085048
C133  C     C_3   0.565951 0.194300 0.487163 -0.085050
C134  C     C_3   0.519053 0.215638 0.010582 -0.106588
C135  C     C_3   0.519052 0.784362 0.510582 -0.106588
C136  C     C_3   0.565952 0.805701 0.987163 -0.085049
C137  C     C_3   0.198727 0.704713 0.510817 -0.086438
C138  C     C_3   0.142498 0.694521 0.978482 -0.085150
C139  C     C_3   0.142497 0.305479 0.478482 -0.085150
C140  C     C_3   0.198727 0.295287 0.010817 -0.086438
C141  C     C_3   0.698726 0.204713 0.510818 -0.086439
C142  C     C_3   0.642498 0.194521 0.978482 -0.085150
C143  C     C_3   0.642497 0.805479 0.478482 -0.085150
C144  C     C_3   0.698727 0.795287 0.010817 -0.086438
Cr1   Cr    Cr6+3 0.488160 0.884660 0.750000 1.105735
Cr2   Cr    Cr6+3 0.488160 0.115340 0.250000 1.105734
Cr3   Cr    Cr6+3 0.988160 0.384660 0.750000 1.105734
Cr4   Cr    Cr6+3 0.988160 0.615340 0.250000 1.105734
Cr5   Cr    Cr6+3 0.173480 0.883120 0.750000 1.025035
Cr6   Cr    Cr6+3 0.173480 0.116880 0.250000 1.025035
Cr7   Cr    Cr6+3 0.673480 0.383120 0.750000 1.025035
Cr8   Cr    Cr6+3 0.673480 0.616880 0.250000 1.025035
Cr9   Cr    Cr6+3 0.333410 0.727260 0.750000 1.118786
Cr10  Cr    Cr6+3 0.333410 0.272740 0.250000 1.118786
Cr11  Cr    Cr6+3 0.833410 0.227260 0.750000 1.118787
Cr12  Cr    Cr6+3 0.833410 0.772740 0.250000 1.118786
H1    H     H_    0.234885 0.865647 0.502428 0.119787
H2    H     H_    0.297880 0.832516 0.000277 0.109800
H3    H     H_    0.297880 0.167484 0.500277 0.109799
H4    H     H_    0.234884 0.134353 0.002428 0.119788
H5    H     H_    0.734887 0.365646 0.502428 0.119787
H6    H     H_    0.797879 0.332517 0.000277 0.109800
H7    H     H_    0.797880 0.667484 0.500277 0.109799
H8    H     H_    0.734885 0.634353 0.002428 0.119787
H9    H     H_    0.895252 0.956799 0.544449 0.215098
H10   H     H_    0.898007 0.944034 0.955327 0.212262
H11   H     H_    0.898007 0.055965 0.455327 0.212261
H12   H     H_    0.895251 0.043201 0.044449 0.215097
H13   H     H_    0.395252 0.456799 0.544449 0.215096
H14   H     H_    0.398007 0.444034 0.955328 0.212262
H15   H     H_    0.398007 0.555966 0.455328 0.212262
H16   H     H_    0.395252 0.543201 0.044449 0.215097
H17   H     H_    0.978596 0.849852 0.458953 0.158602
H18   H     H_    0.071801 0.868672 0.066663 0.158825
H19   H     H_    0.071802 0.131327 0.566663 0.158825
H20   H     H_    0.978595 0.150149 0.958953 0.158602
H21   H     H_    0.478598 0.349852 0.458952 0.158602
H22   H     H_    0.571801 0.368672 0.066663 0.158825
H23   H     H_    0.571802 0.631328 0.566663 0.158825
H24   H     H_    0.478596 0.650149 0.958953 0.158602
H25   H     H_    0.950454 0.749251 0.576146 0.141625
H26   H     H_    0.951022 0.813256 0.942513 0.110277
H27   H     H_    0.951023 0.186743 0.442514 0.110276
H28   H     H_    0.950454 0.250750 0.076146 0.141625
H29   H     H_    0.450454 0.249253 0.576146 0.141625
H30   H     H_    0.451022 0.313256 0.942513 0.110277
H31   H     H_    0.451023 0.686744 0.442513 0.110277
H32   H     H_    0.450454 0.750749 0.076146 0.141625
H33   H     H_    0.017970 0.643695 0.479727 0.110052
H34   H     H_    0.939154 0.680387 0.014950 0.106011
H35   H     H_    0.939153 0.319612 0.514950 0.106012
H36   H     H_    0.017972 0.356305 0.979727 0.110053
H37   H     H_    0.517969 0.143695 0.479728 0.110052
H38   H     H_    0.439154 0.180387 0.014950 0.106012
H39   H     H_    0.439153 0.819612 0.514950 0.106011
H40   H     H_    0.517971 0.856305 0.979727 0.110053
H41   H     H_    0.264935 0.663511 0.525949 0.191726
H42   H     H_    0.169347 0.644458 0.954094 0.214854
H43   H     H_    0.169346 0.355542 0.454094 0.214854
H44   H     H_    0.264935 0.336488 0.025948 0.191725
H45   H     H_    0.764933 0.163511 0.525949 0.191726
H46   H     H_    0.669348 0.144458 0.954094 0.214854
H47   H     H_    0.669347 0.855542 0.454094 0.214856
H48   H     H_    0.764935 0.836489 0.025949 0.191726
H49   H     H_    0.294724 0.761242 0.410992 0.140376
H50   H     H_    0.277687 0.696704 0.074041 0.126905
H51   H     H_    0.277687 0.303296 0.574041 0.126905
H52   H     H_    0.294723 0.238758 0.910992 0.140376
H53   H     H_    0.794724 0.261241 0.410992 0.140376
H54   H     H_    0.777688 0.196705 0.074041 0.126905
H55   H     H_    0.777687 0.803296 0.574041 0.126905
H56   H     H_    0.794723 0.738758 0.910992 0.140376
H57   H     H_    0.083168 0.090349 0.405214 0.177144
H58   H     H_    0.077665 0.081354 0.094362 0.175755
H59   H     H_    0.077666 0.918645 0.594362 0.175755
H60   H     H_    0.083168 0.909651 0.905214 0.177144
H61   H     H_    0.583168 0.590349 0.405214 0.177144
H62   H     H_    0.577666 0.581355 0.094362 0.175755
H63   H     H_    0.577666 0.418645 0.594362 0.175756
H64   H     H_    0.583168 0.409651 0.905214 0.177144
O1    O     O_R   0.575450 0.828820 0.667950 -0.509405
O2    O     O_R   0.575450 0.828820 0.832050 -0.507306
O3    O     O_R   0.575450 0.171180 0.332050 -0.507307
O4    O     O_R   0.575450 0.171180 0.167950 -0.509405
O5    O     O_R   0.075450 0.328820 0.667950 -0.509405
O6    O     O_R   0.075450 0.328820 0.832050 -0.507306
O7    O     O_R   0.075450 0.671180 0.332050 -0.507306
O8    O     O_R   0.075450 0.671180 0.167950 -0.509405
O9    O     O_R   0.416860 0.942890 0.674680 -0.457718
O10   O     O_R   0.416860 0.942890 0.825320 -0.456078
O11   O     O_R   0.416860 0.057110 0.325320 -0.456078
O12   O     O_R   0.416860 0.057110 0.174680 -0.457718
O13   O     O_R   0.916860 0.442890 0.674680 -0.457718
O14   O     O_R   0.916860 0.442890 0.825320 -0.456078
O15   O     O_R   0.916860 0.557110 0.325320 -0.456078
O16   O     O_R   0.916860 0.557110 0.174680 -0.457718
O17   O     O_R   0.213790 0.953680 0.668330 -0.544070
O18   O     O_R   0.213790 0.953680 0.831670 -0.538695
O19   O     O_R   0.213790 0.046320 0.331670 -0.538695
O20   O     O_R   0.213790 0.046320 0.168330 -0.544070
O21   O     O_R   0.713790 0.453680 0.668330 -0.544070
O22   O     O_R   0.713790 0.453680 0.831670 -0.538695
O23   O     O_R   0.713790 0.546320 0.331670 -0.538695
O24   O     O_R   0.713790 0.546320 0.168330 -0.544070
O25   O     O_R   0.121360 0.817890 0.672660 -0.516543
O26   O     O_R   0.121360 0.817890 0.827340 -0.520146
O27   O     O_R   0.121360 0.182110 0.327340 -0.520146
O28   O     O_R   0.121360 0.182110 0.172660 -0.516543
O29   O     O_R   0.621360 0.317890 0.672660 -0.516543
O30   O     O_R   0.621360 0.317890 0.827340 -0.520146
O31   O     O_R   0.621360 0.682110 0.327340 -0.520146
O32   O     O_R   0.621360 0.682110 0.172660 -0.516543
O33   O     O_R   0.206850 0.711370 0.665820 -0.422943
O34   O     O_R   0.206850 0.711370 0.834180 -0.437386
O35   O     O_R   0.206850 0.288630 0.334180 -0.437386
O36   O     O_R   0.206850 0.288630 0.165820 -0.422944
O37   O     O_R   0.706850 0.211370 0.665820 -0.422944
O38   O     O_R   0.706850 0.211370 0.834180 -0.437386
O39   O     O_R   0.706850 0.788630 0.334180 -0.437386
O40   O     O_R   0.706850 0.788630 0.165820 -0.422944
O41   O     O_R   0.457710 0.733190 0.672630 -0.518966
O42   O     O_R   0.457710 0.733190 0.827370 -0.517396
O43   O     O_R   0.457710 0.266810 0.327370 -0.517396
O44   O     O_R   0.457710 0.266810 0.172630 -0.518966
O45   O     O_R   0.957710 0.233190 0.672630 -0.518966
O46   O     O_R   0.957710 0.233190 0.827370 -0.517396
O47   O     O_R   0.957710 0.766810 0.327370 -0.517396
O48   O     O_R   0.957710 0.766810 0.172630 -0.518966
O49   O     O_3   0.331690 0.831680 0.750000 -0.339321
O50   O     O_3   0.331690 0.168320 0.250000 -0.339321
O51   O     O_3   0.831690 0.331680 0.750000 -0.339320
O52   O     O_3   0.831690 0.668320 0.250000 -0.339321
F1    F     F_    0.748702 0.973906 0.435495 -0.652722
F2    F     F_    0.746597 0.959033 0.068835 -0.644467
F3    F     F_    0.746598 0.040966 0.568836 -0.644466
F4    F     F_    0.748701 0.026093 0.935495 -0.652721
F5    F     F_    0.248702 0.473907 0.435494 -0.652720
F6    F     F_    0.246597 0.459033 0.068835 -0.644467
F7    F     F_    0.246598 0.540967 0.568835 -0.644467
F8    F     F_    0.248701 0.526093 0.935494 -0.652721
Br1   Br    Br    0.537383 0.925082 0.346309 -0.351223
Br2   Br    Br    0.531197 0.917530 0.159657 -0.335096
Br3   Br    Br    0.531197 0.082470 0.659657 -0.335096
Br4   Br    Br    0.537383 0.074918 0.846309 -0.351222
Br5   Br    Br    0.037383 0.425082 0.346309 -0.351222
Br6   Br    Br    0.031197 0.417530 0.159657 -0.335096
Br7   Br    Br    0.031198 0.582469 0.659657 -0.335097
Br8   Br    Br    0.037383 0.574918 0.846309 -0.351223

loop_
_geom_bond_atom_site_label_1
_geom_bond_atom_site_label_2
_ccdc_geom_bond_type
C6    C32   S    
Cr1   O10   S    
C7    C29   S    
C119  C143  S    
Cr4   O52   S    
C120  C144  S    
C110  C118  S    
C36   C50   A    
C15   C111  S    
C4    O12   A    
C121  H25   S    
C16   C144  S    
Cr8   O24   S    
C57   C59   A    
Cr1   O1    S    
C8    O24   A    
C58   C60   A    
C62   C70   A    
C61   C63   A    
C62   C64   A    
Cr10  O43   S    
C144  H48   S    
C23   C103  S    
C49   C51   A    
C34   C42   A    
C84   O36   A    
C50   C52   A    
C23   C89   S    
C88   O32   A    
C97   C105  S    
C128  H32   S    
C73   C75   A    
C42   C44   A    
C20   C132  S    
C21   C133  S    
C116  C140  S    
Cr3   O6    S    
C47   F7    S    
C54   C56   A    
Cr10  O35   S    
C45   C47   A    
C112  H8    S    
C46   C48   A    
C115  C123  S    
Cr2   O50   S    
C27   C57   A    
C87   O39   A    
C112  C120  S    
Cr11  O38   S    
C19   C99   S    
C29   C55   A    
C39   Br7   S    
C30   C56   A    
C40   Br8   S    
C100  C124  S    
C83   C115  S    
Cr11  O51   S    
C104  C128  S    
C12   C20   S    
C13   C21   S    
C85   C117  S    
C82   C114  S    
C92   O44   A    
C44   F4    S    
C63   C71   A    
C45   F5    S    
C34   Br2   S    
C113  C137  S    
C36   C44   A    
C33   C51   A    
C80   H16   S    
C37   C45   A    
C130  C138  S    
C91   O43   A    
C39   C47   A    
C40   C48   A    
C20   C94   S    
C133  C141  S    
C24   C90   S    
C28   C58   A    
C72   H62   S    
C98   C106  S    
C140  H44   S    
C33   C41   A    
C111  H7    S    
C10   C18   S    
C76   H12   S    
C95   O7    A    
C2    C28   S    
C32   C62   A    
C42   F2    S    
C93   O5    A    
C134  H38   S    
C129  C137  S    
C126  C134  S    
Cr6   O19   S    
C83   O27   A    
C93   O45   A    
C10   C138  S    
C81   O33   A    
Cr10  O50   S    
C101  C109  S    
C130  H34   S    
C96   O48   A    
C143  H47   S    
C14   C142  S    
C85   O29   A    
Cr5   O26   S    
C69   C77   A    
Cr4   O8    S    
Cr6   O50   S    
C71   C79   A    
C110  H6    S    
Cr6   O28   S    
C74   C76   A    
C96   O8    A    
C105  C113  S    
C65   H59   S    
C89   O1    A    
C78   C80   A    
C9    C105  S    
C66   C74   A    
C78   H14   S    
C124  C132  S    
C125  H29   S    
C97   C121  S    
C59   C67   A    
C95   O47   A    
C129  H33   S    
C35   C49   A    
C123  H27   S    
C35   C43   A    
C132  H36   S    
C24   C136  S    
C135  C143  S    
C6    O14   A    
C84   C116  S    
C11   H51   S    
C41   F1    S    
Cr7   O30   S    
Cr2   O11   S    
C100  C108  S    
C82   O26   A    
C13   H53   S    
C103  C127  S    
C73   H9    S    
C3    O11   A    
C104  C112  S    
C94   O6    A    
C1    O17   A    
C87   C119  S    
Cr7   O21   S    
Cr2   O4    S    
C127  H31   S    
Cr12  O48   S    
C57   C65   A    
C15   C143  S    
C40   C54   A    
C102  H22   S    
C10   C106  S    
C67   C75   A    
Cr3   O13   S    
Cr8   O32   S    
C38   Br6   S    
C14   C110  S    
Cr1   O9    S    
C102  C126  S    
C68   C76   A    
C84   O28   A    
Cr4   O15   S    
C85   O37   A    
C14   C22   S    
C10   H50   S    
C48   F8    S    
Cr9   O33   S    
C72   C80   A    
C35   Br3   S    
C114  C138  S    
C66   H60   S    
C90   O42   A    
C38   C46   A    
C99   H19   S    
Cr10  O44   S    
C2    O10   A    
C37   C55   A    
Cr3   O14   S    
C38   C56   A    
C133  H37   S    
C22   C92   S    
C6    O22   A    
C25   C59   A    
C26   C60   A    
C27   C49   A    
C119  C127  S    
C29   C63   A    
C30   C64   A    
C41   C43   A    
C31   C61   A    
Cr3   O5    S    
C109  C117  S    
Cr10  O36   S    
C11   C19   S    
C142  H46   S    
C127  C135  S    
C136  H40   S    
C128  C136  S    
Cr11  O37   S    
C43   F3    S    
C61   C69   A    
C103  C111  S    
C79   H15   S    
C11   C139  S    
C86   O38   A    
Cr3   O51   S    
C9    C137  S    
C105  H1    S    
C100  H20   S    
C12   C140  S    
C17   C95   S    
C13   C141  S    
C88   C120  S    
C68   H58   S    
C19   C93   S    
Cr12  O39   S    
C77   C79   A    
C32   C54   A    
C7    O15   A    
C126  H30   S    
C97   H17   S    
Cr8   O23   S    
Cr1   O2    S    
C83   O35   A    
C117  C141  S    
C134  C142  S    
C20   C100  S    
C92   O4    A    
Cr5   O18   S    
C4    O20   A    
C86   C118  S    
C137  H41   S    
C8    O16   A    
C22   C134  S    
Cr6   O20   S    
C102  C110  S    
C37   Br5   S    
C74   H10   S    
C16   C112  S    
C12   C108  S    
C21   C91   S    
Cr5   O25   S    
C116  C124  S    
C123  C131  S    
C69   H63   S    
C121  C129  S    
C4    C26   S    
C120  C128  S    
C124  H28   S    
Cr12  O52   S    
C132  C140  S    
C99   C107  S    
C34   C52   A    
C71   H61   S    
C23   C135  S    
C8    C30   S    
C108  C116  S    
Cr5   O49   S    
C136  C144  S    
C24   C104  S    
C39   C53   A    
C46   F6    S    
C103  H23   S    
Cr11  O46   S    
C101  H21   S    
C88   O40   A    
C135  H39   S    
C60   C68   A    
C81   C113  S    
Cr5   O17   S    
C82   O34   A    
C9    H49   S    
C3    O19   A    
C86   O30   A    
Cr9   O34   S    
C70   C78   A    
C18   C96   S    
Cr7   O29   S    
Cr2   O12   S    
C106  C114  S    
C12   H52   S    
C111  C119  S    
C141  H45   S    
C90   O2    A    
C98   H18   S    
C139  H43   S    
C5    C31   S    
C65   C73   A    
Cr1   O49   S    
C15   H55   S    
C28   C50   A    
C58   C66   A    
C13   C109  S    
C21   C101  S    
C15   C23   S    
C16   C24   S    
C5    O13   A    
Cr4   O7    S    
C53   C55   A    
C19   C131  S    
Cr6   O27   S    
C94   O46   A    
C33   Br1   S    
C14   H54   S    
C17   C129  S    
C81   O25   A    
C16   H56   S    
C131  C139  S    
C36   Br4   S    
C2    O18   A    
C106  H2    S    
C70   H64   S    
Cr4   O16   S    
C25   C51   A    
C26   C52   A    
C101  C125  S    
C113  C121  S    
Cr11  O45   S    
C31   C53   A    
Cr9   O42   S    
C107  C115  S    
C98   C122  S    
C138  H42   S    
C9    C17   S    
C11   C107  S    
C67   H57   S    
Cr9   O41   S    
C99   C123  S    
C125  C133  S    
Cr9   O49   S    
C115  C139  S    
C118  C142  S    
C107  H3    S    
C108  H4    S    
C131  H35   S    
C118  C126  S    
C22   C102  S    
C87   O31   A    
C109  H5    S    
Cr7   O22   S    
Cr2   O3    S    
Cr7   O51   S    
C104  H24   S    
Cr12  O47   S    
C17   C97   S    
Cr8   O52   S    
C64   C72   A    
C18   C130  S    
C114  C122  S    
C1    O9    A    
C122  H26   S    
C3    C25   S    
C89   O41   A    
C77   H13   S    
C7    O23   A    
C1    C27   S    
C75   H11   S    
C18   C98   S    
C5    O21   A    
C117  C125  S    
C91   O3    A    
C122  C130  S    
Cr8   O31   S    
Cr12  O40   S    
