data_mof_unit_11562.cif
_audit_creation_date              2013-03-05T16:07:04-0500
_audit_creation_method            fapswitch 2.2
_symmetry_space_group_name_H-M    P1
_symmetry_Int_Tables_number       1
_space_group_crystal_system       triclinic
_cell_length_a                    16.89877
_cell_length_b                    7.253134
_cell_length_c                    16.890458
_cell_angle_alpha                 90.000805
_cell_angle_beta                  100.445335
_cell_angle_gamma                 89.998881
_cell_volume                      2035.93981782

loop_
_atom_site_label
_atom_site_type_symbol
_atom_site_description
_atom_site_fract_x
_atom_site_fract_y
_atom_site_fract_z
_atom_type_partial_charge
O1    O     O_R   0.413450 0.494370 0.415710 -0.596032
O2    O     O_R   0.586550 0.994370 0.584290 -0.596040
O3    O     O_R   0.578420 0.819350 0.429360 -0.559982
O4    O     O_R   0.421580 0.319350 0.570640 -0.559969
C1    C     C_R   0.603939 0.654158 0.412796 0.990850
C2    C     C_R   0.396065 0.154162 0.587208 0.990967
O5    O     O_R   0.413570 0.823780 0.406240 -0.590133
O6    O     O_R   0.586430 0.323780 0.593760 -0.590090
O7    O     O_R   0.420530 0.998740 0.561000 -0.592945
O8    O     O_R   0.579470 0.498740 0.439000 -0.592925
C3    C     C_R   0.385965 0.655332 0.383789 0.942718
C4    C     C_R   0.614034 0.155332 0.616211 0.942825
O9    O     O_3   0.502480 0.662320 0.550800 -0.274077
O10   O     O_3   0.497520 0.162320 0.449200 -0.274076
V1    V     V_3+5 0.499540 0.935370 0.490580 1.216565
V2    V     V_3+5 0.500460 0.435370 0.509420 1.216584
C5    C     C_R   0.734442 0.990337 0.695066 0.157374
C6    C     C_R   0.265559 0.490341 0.304934 0.157396
C7    C     C_R   0.685078 0.146962 0.682477 -0.217856
C8    C     C_R   0.314922 0.646963 0.317523 -0.217844
C9    C     C_R   0.708439 0.299950 0.732789 -0.133600
C10   C     C_R   0.291561 0.799949 0.267211 -0.133650
H1    H     H_    0.673502 0.425535 0.724954 0.166892
H2    H     H_    0.326497 0.925532 0.275045 0.166878
C11   C     C_R   0.774294 0.288786 0.797181 -0.161079
C12   C     C_R   0.225705 0.788784 0.202819 -0.161053
H3    H     H_    0.787749 0.406935 0.836384 0.148818
H4    H     H_    0.212250 0.906931 0.163615 0.148816
C13   C     C_R   0.818887 0.123930 0.813591 -0.218904
C14   C     C_R   0.181113 0.623930 0.186409 -0.218914
C15   C     C_R   0.799348 0.979022 0.758736 0.176441
C16   C     C_R   0.200653 0.479024 0.241264 0.176437
C17   C     C_3   0.783921 0.780387 0.772736 -0.490741
C18   C     C_3   0.216081 0.280388 0.227265 -0.490745
C19   C     C_3   0.713087 0.792670 0.703123 -0.451525
C20   C     C_3   0.286914 0.292671 0.296878 -0.451534
H5    H     H_    0.765632 0.755523 0.831851 0.198894
H6    H     H_    0.234370 0.255518 0.168150 0.198889
H7    H     H_    0.833259 0.690694 0.759529 0.193732
H8    H     H_    0.166743 0.190699 0.240472 0.193734
H9    H     H_    0.653796 0.774721 0.721924 0.217102
H10   H     H_    0.346205 0.274716 0.278077 0.217095
H11   H     H_    0.721693 0.710066 0.649885 0.180106
H12   H     H_    0.278308 0.210072 0.350116 0.180107
C21   C     C_R   0.335106 0.134888 0.640531 -0.297790
C22   C     C_R   0.664904 0.634870 0.359480 -0.297949
C23   C     C_R   0.167781 0.135195 0.864227 -0.119120
C24   C     C_R   0.832228 0.635222 0.135785 -0.119145
C25   C     C_R   0.277222 0.320518 0.829406 -0.124203
C26   C     C_R   0.722846 0.820665 0.170669 -0.124260
C27   C     C_R   0.222438 0.282745 0.879966 -0.159276
C28   C     C_R   0.777613 0.782873 0.120093 -0.159263
C29   C     C_R   0.170457 0.022328 0.797248 -0.240289
C30   C     C_R   0.829523 0.522277 0.202732 -0.240299
C31   C     C_R   0.225047 0.061005 0.745155 0.176096
C32   C     C_R   0.774946 0.560966 0.254839 0.175998
C33   C     C_R   0.278620 0.212995 0.760433 0.025968
C34   C     C_R   0.721417 0.713047 0.239605 0.026005
C35   C     C_R   0.333455 0.250971 0.707657 0.273395
C36   C     C_R   0.666592 0.751029 0.292390 0.273427
C37   C     C_R   0.280740 0.986177 0.626549 -0.133844
C38   C     C_R   0.719231 0.486074 0.373424 -0.133583
C39   C     C_R   0.226456 0.950168 0.677741 -0.158543
C40   C     C_R   0.773507 0.450053 0.322222 -0.158516
H13   H     H_    0.280517 0.895507 0.575525 0.143988
H14   H     H_    0.719429 0.395343 0.424422 0.144064
H15   H     H_    0.318010 0.435261 0.844770 0.174615
H16   H     H_    0.682097 0.935500 0.155349 0.174588
H17   H     H_    0.185949 0.833770 0.664897 0.126399
H18   H     H_    0.813982 0.333586 0.335035 0.126443
H19   H     H_    0.222341 0.371271 0.931627 0.135889
H20   H     H_    0.777733 0.871468 0.068458 0.135924
H21   H     H_    0.128383 0.908808 0.784140 0.128027
H22   H     H_    0.871565 0.408684 0.215806 0.128055
O11   O     O_R   0.920630 0.775410 0.061150 -0.587246
O12   O     O_R   0.079370 0.275410 0.938850 -0.587227
O13   O     O_R   0.086500 0.441450 0.093690 -0.591037
O14   O     O_R   0.913500 0.941450 0.906310 -0.591036
C41   C     C_R   0.114093 0.610296 0.116163 0.918683
C42   C     C_R   0.885907 0.110296 0.883836 0.918674
O15   O     O_R   0.921670 0.445960 0.070740 -0.588203
O16   O     O_R   0.078330 0.945960 0.929260 -0.588194
O17   O     O_R   0.913380 0.271130 0.915780 -0.590114
O18   O     O_R   0.086620 0.771130 0.084220 -0.590113
C43   C     C_R   0.895726 0.615403 0.085809 0.907886
C44   C     C_R   0.104274 0.115397 0.914192 0.907882
O19   O     O_3   0.997500 0.603030 0.949220 -0.286299
O20   O     O_3   0.002500 0.103030 0.050780 -0.286312
V3    V     V_3+5 0.000470 0.329940 0.009420 1.148216
V4    V     V_3+5 0.999530 0.829940 0.990580 1.148224
N1    N     N_R   0.389251 0.401128 0.724135 0.232203
O21   O     O_R   0.466186 0.369057 0.741824 -0.406463
O22   O     O_R   0.363307 0.570365 0.719438 -0.411780
N2    N     N_R   0.610837 0.901268 0.275951 0.232206
O23   O     O_R   0.533899 0.869263 0.258041 -0.406418
O24   O     O_R   0.636814 0.070481 0.280815 -0.411839

loop_
_geom_bond_atom_site_label_1
_geom_bond_atom_site_label_2
_geom_bond_distance
_ccdc_geom_bond_type
C2    C21   1.492753 S    
C29   C31   1.413585 A    
C20   H10   1.112231 S    
O1    C3    1.333649 A    
O2    C4    1.333649 A    
C2    O7    1.305371 A    
O14   V4    2.010799 S    
C24   C30   1.403781 A    
O13   V3    2.010807 S    
C17   H7    1.111556 S    
C27   H19   1.083594 S    
C22   C38   1.408777 A    
C18   H8    1.111557 S    
C7    C9    1.409834 A    
C41   O18   1.332911 A    
O14   C42   1.340572 A    
C33   C35   1.424326 A    
C34   C36   1.424291 A    
C25   C33   1.405666 A    
C37   C39   1.394627 A    
C38   C40   1.394637 A    
O11   V4    1.982729 S    
C17   C19   1.520829 S    
C30   H22   1.084171 S    
O11   C43   1.327047 A    
C39   H17   1.083769 S    
C25   C27   1.395744 A    
C31   C39   1.397563 A    
C26   C28   1.395738 A    
C32   C40   1.397568 A    
C40   H18   1.083774 S    
C19   H11   1.111794 S    
C18   C20   1.520829 S    
O12   V3    1.982710 S    
C23   C29   1.403772 A    
O15   V3    2.013481 S    
O5    V1    2.011119 S    
O6    V2    2.011115 S    
O18   V4    2.001351 S    
C42   O17   1.332911 A    
O13   C41   1.340574 A    
C11   C13   1.413743 A    
O17   V3    2.001354 S    
C30   C32   1.413586 A    
C3    C8    1.486789 S    
C38   H14   1.083532 S    
C26   C34   1.405647 A    
C23   C44   1.487613 S    
O4    C2    1.320423 A    
N1    O21   1.301085 A    
C23   C27   1.407170 A    
O16   C44   1.344542 A    
C17   H5    1.112162 S    
C16   C18   1.490618 S    
O4    V2    2.013462 S    
O5    C3    1.337912 A    
C28   H20   1.083596 S    
N1    O22   1.301007 A    
O6    C4    1.337907 A    
C15   C17   1.490618 S    
O1    V2    2.001622 S    
C35   N1    1.434404 S    
N2    O24   1.301042 A    
O2    V1    2.001625 S    
C14   C41   1.487604 S    
C8    C10   1.409833 A    
C12   C14   1.413744 A    
C31   C33   1.420140 A    
C5    C15   1.392338 A    
C10   H2    1.080479 S    
C20   H12   1.111795 S    
C6    C16   1.392337 A    
O12   C44   1.327052 A    
O3    V1    2.013429 S    
C9    C11   1.410346 A    
C21   C35   1.416543 A    
C25   H15   1.081771 S    
C22   C36   1.416502 A    
C18   H6    1.112161 S    
C24   C43   1.487631 S    
C29   H21   1.084167 S    
O3    C1    1.320433 A    
O9    V2    1.786232 S    
C11   H3    1.081630 S    
C1    C22   1.492757 S    
C12   H4    1.081632 S    
O16   V4    2.013512 S    
C9    H1    1.080479 S    
O7    V1    1.996113 S    
C1    O8    1.305366 A    
C13   C15   1.400431 A    
O8    V2    1.996135 S    
C14   C16   1.400431 A    
C13   C42   1.487602 S    
C26   H16   1.081790 S    
C4    C7    1.486786 S    
C21   C37   1.408759 A    
C5    C7    1.402592 A    
C32   C34   1.420137 A    
C6    C8    1.402594 A    
N2    O23   1.301230 A    
C19   H9    1.112233 S    
C37   H13   1.083531 S    
C24   C28   1.407198 A    
O20   V3    1.785842 S    
C10   C12   1.410345 A    
O19   V4    1.785825 S    
O10   V1    1.786249 S    
C5    C19   1.490669 S    
C6    C20   1.490669 S    
O15   C43   1.344557 A    
C36   N2    1.434362 S    
