data_mof_unit_20909.cif
_audit_creation_date              2012-12-11T16:31:29-0500
_audit_creation_method            fapswitch 2.2
_symmetry_space_group_name_H-M    P1
_symmetry_Int_Tables_number       1
_space_group_crystal_system       triclinic
_cell_length_a                    6.941553
_cell_length_b                    18.117032
_cell_length_c                    20.346912
_cell_angle_alpha                 68.405325
_cell_angle_beta                  91.119767
_cell_angle_gamma                 90.418752
_cell_volume                      2378.77732806

loop_
_atom_site_label
_atom_site_type_symbol
_atom_type_description
_atom_site_fract_x
_atom_site_fract_y
_atom_site_fract_z
_atom_type_partial_charge
O1    O     O_R   0.488990 0.443920 0.942160 -0.534086
O2    O     O_R   0.823840 0.406530 0.087600 -0.525447
O3    O     O_R   0.999650 0.556080 0.057840 -0.539565
C1    C     C_R   0.656454 0.380641 0.113452 0.744557
O4    O     O_R   0.818390 0.434590 0.944530 -0.528150
O5    O     O_R   0.994160 0.584350 0.913750 -0.543776
C2    C     C_R   0.648827 0.423075 0.921926 0.763930
O6    O     O_R   0.494480 0.415650 0.086250 -0.533737
O7    O     O_3   0.662600 0.549100 0.990070 -0.375554
V1    V     V_3+5 0.935320 0.490890 0.001840 1.464863
O8    O     O_R   0.324240 0.593470 0.912400 -0.539801
C3    C     C_R   0.153560 0.617064 0.885517 0.687372
O9    O     O_R   0.329690 0.565410 0.055470 -0.541643
C4    C     C_R   0.162300 0.579690 0.075845 0.717179
V2    V     V_3+5 0.435990 0.509110 0.998160 1.445298
O10   O     O_3   0.158840 0.450900 0.009930 -0.353087
C5    C     C_3   0.984672 0.676794 0.262833 -0.333726
C6    C     C_3   0.337142 0.708573 0.244558 -0.335881
C7    C     C_3   0.327395 0.757108 0.293642 -0.321270
H1    H     H_    0.002565 0.685463 0.367581 0.149474
H2    H     H_    0.017488 0.613650 0.295289 0.136342
H3    H     H_    0.452385 0.733319 0.205156 0.136235
H4    H     H_    0.377056 0.646045 0.276552 0.141097
H5    H     H_    0.362442 0.717667 0.349023 0.155491
H6    H     H_    0.438154 0.804886 0.277640 0.136851
C8    C     C_1   0.108858 0.878157 0.375434 -0.148452
C9    C     C_3   0.140892 0.710831 0.205939 0.291833
C10   C     C_3   0.974806 0.725462 0.311797 -0.319219
C11   C     C_3   0.124340 0.793983 0.289844 0.277206
C12   C     C_3   0.081078 0.847622 0.211757 -0.330904
C13   C     C_3   0.090519 0.798995 0.162727 -0.323833
C14   C     C_1   0.115287 0.840459 0.336883 -0.079776
C15   C     C_1   0.149839 0.664204 0.158994 -0.100639
C16   C     C_1   0.156221 0.625917 0.120919 -0.191675
H7    H     H_    0.949329 0.802760 0.134805 0.137915
H8    H     H_    0.200729 0.825458 0.121641 0.137270
H9    H     H_    0.935511 0.874633 0.207081 0.141795
H10   H     H_    0.841489 0.678068 0.236832 0.136549
H11   H     H_    0.827045 0.750043 0.308960 0.140316
H12   H     H_    0.187035 0.897152 0.194095 0.136771
H13   H     H_    0.948524 0.519803 0.700837 0.114597
C17   C     C_R   0.221740 0.779963 0.873190 -0.135280
C18   C     C_R   0.252717 0.857610 0.869066 -0.120335
C19   C     C_R   0.239711 0.920237 0.804204 -0.124414
C20   C     C_R   0.197073 0.905683 0.742848 -0.138989
C21   C     C_R   0.167433 0.827369 0.745080 0.065795
C22   C     C_R   0.178150 0.763326 0.811857 0.071279
C23   C     C_R   0.130438 0.812212 0.682199 -0.172615
C24   C     C_R   0.107817 0.732059 0.686960 0.043566
C25   C     C_R   0.088398 0.670427 0.754540 0.054077
C26   C     C_R   0.138397 0.684777 0.816555 -0.171304
C27   C     C_R   0.111526 0.709250 0.627246 0.117114
C28   C     C_R   0.043913 0.634626 0.632119 -0.099380
C29   C     C_R   0.995571 0.578293 0.697141 -0.155590
C30   C     C_R   0.027148 0.594296 0.758230 -0.149352
H14   H     H_    0.230170 0.733355 0.925009 0.092480
H15   H     H_    0.285542 0.869286 0.916568 0.108015
H16   H     H_    0.262924 0.980498 0.801359 0.106017
H17   H     H_    0.188695 0.956552 0.693808 0.104106
H18   H     H_    0.044309 0.617702 0.586327 0.131241
H19   H     H_    0.003482 0.546191 0.808034 0.118762
H20   H     H_    0.854765 0.469635 0.304650 0.106424
C31   C     C_R   0.593241 0.211093 0.127064 0.117456
C32   C     C_R   0.497791 0.141649 0.130488 -0.095319
C33   C     C_R   0.429383 0.089352 0.194364 -0.149297
C34   C     C_R   0.467777 0.103390 0.256035 -0.150794
C35   C     C_R   0.558006 0.174597 0.253751 0.052664
C36   C     C_R   0.600169 0.234012 0.186760 0.044525
C37   C     C_R   0.614132 0.185667 0.316745 -0.172687
C38   C     C_R   0.684757 0.260667 0.312957 0.072248
C39   C     C_R   0.698450 0.324415 0.246194 0.064851
C40   C     C_R   0.654505 0.311695 0.182620 -0.172190
C41   C     C_R   0.735818 0.274475 0.375086 -0.134070
C42   C     C_R   0.797241 0.349144 0.371758 -0.121305
C43   C     C_R   0.807983 0.411629 0.306886 -0.123016
C44   C     C_R   0.758938 0.399811 0.244735 -0.141411
H21   H     H_    0.490353 0.124789 0.084672 0.132702
H22   H     H_    0.360048 0.034628 0.196984 0.115905
H23   H     H_    0.426203 0.057690 0.305201 0.119935
H24   H     H_    0.726482 0.228091 0.426886 0.092831
H25   H     H_    0.835254 0.358715 0.419866 0.107827
H26   H     H_    0.770223 0.450385 0.195709 0.105248
O11   O     O_R   0.770890 0.084490 0.414040 -0.538594
O12   O     O_R   0.445980 0.065450 0.555510 -0.541813
O13   O     O_R   0.270670 0.915620 0.586180 -0.524815
C45   C     C_R   0.615481 0.079768 0.576023 0.719432
O14   O     O_R   0.441480 0.093500 0.412450 -0.545314
O15   O     O_R   0.266140 0.943870 0.442100 -0.526813
C46   C     C_R   0.608803 0.117368 0.385619 0.686008
O16   O     O_R   0.775410 0.056240 0.558120 -0.540500
O17   O     O_3   0.602660 0.950990 0.510100 -0.348827
V3    V     V_3+5 0.329740 0.009100 0.498130 1.450953
O18   O     O_R   0.936120 0.934420 0.444240 -0.535204
C47   C     C_R   0.102997 0.922995 0.421710 0.760071
O19   O     O_R   0.940610 0.906370 0.587310 -0.533617
C48   C     C_R   0.111951 0.880568 0.613057 0.743960
V4    V     V_3+5 0.829110 0.990690 0.501470 1.465678
O20   O     O_3   0.106080 0.049010 0.489880 -0.376449
C49   C     C_3   0.782479 0.278420 0.681980 -0.325248
C50   C     C_3   0.430459 0.248933 0.705159 -0.329151
C51   C     C_3   0.431314 0.297588 0.754266 -0.332690
H27   H     H_    0.750844 0.390539 0.698871 0.137862
H28   H     H_    0.750384 0.318501 0.626555 0.137800
H29   H     H_    0.318289 0.201827 0.722773 0.134436
H30   H     H_    0.391012 0.288539 0.650261 0.139059
H31   H     H_    0.392110 0.360343 0.722782 0.141606
H32   H     H_    0.319818 0.273561 0.795320 0.141370
C52   C     C_1   0.638324 0.378369 0.875630 -0.148258
C53   C     C_3   0.630740 0.210845 0.706154 0.291050
C54   C     C_3   0.783136 0.327240 0.730951 -0.334354
C55   C     C_3   0.632305 0.294152 0.790031 0.280978
C56   C     C_3   0.681529 0.205742 0.832680 -0.312590
C57   C     C_3   0.680351 0.156994 0.783644 -0.335933
C58   C     C_1   0.633986 0.340675 0.837050 -0.078977
C59   C     C_1   0.629186 0.164164 0.659231 -0.101198
C60   C     C_1   0.625212 0.125870 0.621134 -0.190491
H33   H     H_    0.824112 0.129117 0.786317 0.139840
H34   H     H_    0.573065 0.108099 0.802848 0.138931
H35   H     H_    0.825963 0.201191 0.858613 0.152791
H36   H     H_    0.928341 0.252922 0.682830 0.136572
H37   H     H_    0.929485 0.325200 0.754924 0.138682
H38   H     H_    0.575120 0.179981 0.875342 0.149469
I1    I     I_    0.306394 0.758865 0.543929 -0.442256
I2    I     I_    0.800264 0.248612 0.046601 -0.453893

loop_
_geom_bond_atom_site_label_1
_geom_bond_atom_site_label_2
_ccdc_geom_bond_type
C8    C47   S    
C49   H28   S    
C51   H32   S    
O18   C47   A    
C41   C42   A    
O19   C48   A    
C1    O6    A    
V4    O20   S    
V3    O20   S    
C20   C21   A    
C9    C15   S    
C8    C14   T    
C34   H23   S    
C50   H30   S    
C10   C11   S    
O12   C45   A    
C11   C14   S    
C54   H37   S    
O5    C3    A    
C12   C13   S    
O13   C48   A    
C59   C60   T    
C49   C53   S    
C50   H29   S    
C45   C60   S    
C6    C7    S    
C32   H21   S    
C52   C58   T    
C54   C55   S    
C17   H14   S    
C49   H36   S    
C29   C30   A    
O8    V2    S    
C28   H18   S    
O15   V3    S    
C19   H16   S    
C38   C39   A    
O1    V2    S    
O7    V1    S    
O16   V4    S    
C53   C57   S    
C5    H10   S    
C34   C35   A    
C50   C53   S    
C6    H3    S    
O9    C4    A    
C37   C46   S    
C56   C57   S    
O13   V3    S    
C31   I2    S    
C21   C23   A    
O11   C46   A    
O15   C47   A    
C42   C43   A    
C6    C9    S    
C9    C13   S    
C35   C36   A    
C5    C9    S    
C45   O16   A    
C44   H26   S    
O17   V3    S    
O4    C2    A    
C53   C59   S    
C22   C26   A    
H1    C10   S    
C10   H11   S    
C28   C29   A    
C49   C54   S    
C5    H2    S    
C6    H4    S    
C12   H9    S    
C35   C37   A    
O2    C1    A    
C43   C44   A    
C56   H38   S    
C11   C12   S    
C36   C40   A    
C24   C27   A    
C38   C41   A    
C25   C26   A    
C12   H12   S    
O17   V4    S    
O3    C4    A    
C2    C52   S    
C57   H33   S    
C23   C24   A    
C24   C25   A    
O6    V2    S    
O9    V2    S    
C18   C19   A    
C13   H7    S    
H20   C43   S    
H27   C54   S    
C17   C18   A    
C42   H25   S    
O2    V1    S    
O18   V4    S    
C1    C40   S    
C3    C26   S    
C27   C28   A    
C51   H31   S    
C21   C22   A    
C20   H17   S    
C33   H22   S    
C23   C48   S    
C55   C56   S    
O1    C2    A    
C5    C10   S    
C19   C20   A    
C31   C32   A    
C4    C16   S    
C56   H35   S    
O8    C3    A    
O19   V4    S    
C51   C55   S    
C31   C36   A    
C25   C30   A    
C32   C33   A    
O14   C46   A    
C7    H5    S    
O7    V2    S    
O4    V1    S    
O3    V1    S    
V1    O10   S    
C39   C44   A    
C30   H19   S    
C50   C51   S    
C27   I1    S    
C41   H24   S    
C15   C16   T    
C55   C58   S    
C17   C22   A    
C37   C38   A    
C7    H6    S    
H13   C29   S    
O5    V1    S    
C18   H15   S    
C57   H34   S    
C39   C40   A    
C33   C34   A    
O11   V4    S    
C13   H8    S    
O12   V3    S    
O14   V3    S    
V2    O10   S    
C7    C11   S    
