data_mof_unit_66433.cif
_audit_creation_date              2012-12-10T17:27:37-0500
_audit_creation_method            fapswitch 2.2
_symmetry_space_group_name_H-M    P1
_symmetry_Int_Tables_number       1
_space_group_crystal_system       triclinic
_cell_length_a                    42.625026
_cell_length_b                    29.424991
_cell_length_c                    29.419654
_cell_angle_alpha                 90.0
_cell_angle_beta                  133.88123
_cell_angle_gamma                 89.999381
_cell_volume                      26596.2384156

loop_
_atom_site_label
_atom_site_type_symbol
_atom_type_description
_atom_site_fract_x
_atom_site_fract_y
_atom_site_fract_z
_atom_type_partial_charge
C1    C     C_R   0.499983 0.585484 0.500002 0.824270
C2    C     C_R   0.499983 0.414516 0.500001 0.824551
C3    C     C_R   0.999983 0.085484 0.500001 0.824347
C4    C     C_R   0.999983 0.914516 0.500001 0.824470
C5    C     C_3   0.204681 0.499982 0.206271 0.062861
C6    C     C_3   0.704681 0.999992 0.206268 0.062860
C7    C     C_3   0.232807 0.501400 0.191670 0.112315
C8    C     C_3   0.732809 0.000638 0.191650 0.112316
C9    C     C_1   0.335103 0.499999 0.336267 -0.026094
C10   C     C_1   0.835103 0.000007 0.336267 -0.026091
C11   C     C_1   0.158654 0.499989 0.159767 -0.089024
C12   C     C_1   0.658655 0.999994 0.159764 -0.089026
C13   C     C_1   0.499968 0.636531 0.499958 -0.203634
C14   C     C_1   0.499966 0.363469 0.499957 -0.203370
C15   C     C_1   0.999967 0.136531 0.499958 -0.203551
C16   C     C_1   0.999966 0.863469 0.499957 -0.203456
C17   C     C_1   0.499958 0.678852 0.499944 0.004225
C18   C     C_1   0.499956 0.321148 0.499942 0.004436
C19   C     C_1   0.999957 0.178852 0.499944 0.004295
C20   C     C_1   0.999956 0.821148 0.499942 0.004361
C21   C     C_1   0.499951 0.729017 0.499942 0.005576
C22   C     C_1   0.499949 0.270983 0.499941 0.005714
C23   C     C_1   0.999951 0.229017 0.499942 0.005630
C24   C     C_1   0.999949 0.770983 0.499940 0.005657
C25   C     C_1   0.499949 0.771338 0.499948 0.005391
C26   C     C_1   0.499947 0.228662 0.499946 0.005478
C27   C     C_1   0.999949 0.271338 0.499948 0.005433
C28   C     C_1   0.999947 0.728662 0.499946 0.005433
C29   C     C_1   0.499950 0.821504 0.499960 0.004542
C30   C     C_1   0.499947 0.178496 0.499958 0.004595
C31   C     C_1   0.999950 0.321504 0.499960 0.004575
C32   C     C_1   0.999948 0.678496 0.499958 0.004560
C33   C     C_1   0.499952 0.863825 0.499971 -0.197575
C34   C     C_1   0.499951 0.136175 0.499969 -0.197544
C35   C     C_1   0.999952 0.363825 0.499971 -0.197550
C36   C     C_1   0.999951 0.636175 0.499969 -0.197572
C37   C     C_R   0.418274 0.500005 0.418487 0.863618
C38   C     C_R   0.918274 0.000004 0.418487 0.863613
C39   C     C_1   0.635087 0.500000 0.634705 -0.202146
C40   C     C_1   0.135087 0.000000 0.634705 -0.202146
C41   C     C_1   0.676568 0.500000 0.676171 0.014682
C42   C     C_1   0.176568 0.000000 0.676171 0.014682
C43   C     C_1   0.726139 0.500000 0.725817 0.003100
C44   C     C_1   0.226139 0.000001 0.725817 0.003100
C45   C     C_1   0.767621 0.500001 0.767388 0.003115
C46   C     C_1   0.267621 0.000001 0.767388 0.003115
C47   C     C_1   0.817192 0.500001 0.817078 0.014728
C48   C     C_1   0.317192 0.000001 0.817078 0.014728
C49   C     C_1   0.858673 0.500001 0.858655 -0.202999
C50   C     C_1   0.358673 0.000001 0.858655 -0.202999
C51   C     C_R   0.994849 0.500000 0.080455 0.826799
C52   C     C_R   0.494850 0.000000 0.080455 0.826801
C53   C     C_R   0.075494 0.499999 0.075425 0.866978
C54   C     C_R   0.575494 0.999999 0.075424 0.866979
C55   C     C_R   0.993235 0.500000 0.907801 0.824271
C56   C     C_R   0.493235 0.000000 0.907801 0.824269
C57   C     C_R   0.909164 0.500000 0.909249 0.811961
C58   C     C_R   0.409164 0.000000 0.909249 0.811961
C59   C     C_R   0.584599 0.500000 0.584471 0.809266
C60   C     C_R   0.084598 0.000000 0.584471 0.809266
C61   C     C_R   0.499097 1.000000 0.414042 0.815748
C62   C     C_R   0.999097 0.500000 0.414042 0.815749
C63   C     C_R   0.499957 0.914873 0.499985 0.815433
C64   C     C_R   0.499957 0.085127 0.499984 0.815444
C65   C     C_R   0.999957 0.414873 0.499985 0.815446
C66   C     C_R   0.999957 0.585127 0.499984 0.815433
C67   C     C_R   0.500749 0.000000 0.585887 0.815198
C68   C     C_R   0.000749 0.500000 0.585887 0.815198
C69   C     C_1   0.995609 0.500000 0.132251 -0.204631
C70   C     C_1   0.495609 0.000000 0.132251 -0.204631
C71   C     C_1   0.996250 0.500000 0.175208 0.004918
C72   C     C_1   0.496250 0.000000 0.175208 0.004920
C73   C     C_1   0.997001 0.500000 0.226115 0.006846
C74   C     C_1   0.497001 0.000000 0.226115 0.006849
C75   C     C_1   0.497613 0.000000 0.269043 0.006586
C76   C     C_1   0.997613 0.500000 0.269043 0.006584
C77   C     C_1   0.498286 0.000000 0.319873 0.005437
C78   C     C_1   0.998286 0.500000 0.319873 0.005435
C79   C     C_1   0.498758 1.000000 0.362664 -0.197028
C80   C     C_1   0.998758 0.500000 0.362664 -0.197030
C81   C     C_1   0.994247 0.500000 0.857751 -0.206243
C82   C     C_1   0.494246 0.000000 0.857751 -0.206242
C83   C     C_3   0.232948 0.536426 0.257171 0.064131
C84   C     C_3   0.232947 0.462126 0.254708 0.063996
C85   C     C_3   0.732944 0.036840 0.256502 0.064089
C86   C     C_3   0.732949 0.962508 0.255391 0.064039
C87   C     C_1   0.995409 0.500000 0.816595 0.002923
C88   C     C_1   0.495409 0.000000 0.816595 0.002923
C89   C     C_1   0.996939 0.500000 0.767962 0.004554
C90   C     C_1   0.496939 0.000000 0.767962 0.004555
C91   C     C_1   0.498226 0.000000 0.726934 0.004658
C92   C     C_1   0.998226 0.500000 0.726934 0.004657
C93   C     C_1   0.499617 0.000000 0.678158 0.004264
C94   C     C_1   0.999617 0.500000 0.678158 0.004263
C95   C     C_1   0.500483 1.000000 0.636695 -0.198114
C96   C     C_1   0.000483 0.500000 0.636695 -0.198115
C97   C     C_3   0.261434 0.538368 0.242537 -0.215057
C98   C     C_3   0.261432 0.463049 0.240040 -0.215102
C99   C     C_3   0.761431 0.038002 0.241842 -0.215041
C100  C     C_3   0.761436 0.962650 0.240715 -0.215122
C101  C     C_1   0.373308 0.500004 0.373987 -0.173417
C102  C     C_1   0.873308 0.000007 0.373987 -0.173418
C103  C     C_1   0.120454 0.499996 0.120998 -0.190714
C104  C     C_1   0.620454 0.999997 0.120995 -0.190713
C105  C     C_3   0.261528 0.498550 0.306515 0.152719
C106  C     C_3   0.761526 0.999347 0.306532 0.152722
C107  C     C_3   0.289191 0.499988 0.290866 0.083088
C108  C     C_3   0.789191 0.000002 0.290866 0.083091
Cu1   Cu    Cu3+1 0.500480 0.500000 0.542990 0.978520
Cu2   Cu    Cu3+1 0.000480 0.000000 0.542990 0.978527
Cu3   Cu    Cu3+1 0.499450 0.500000 0.457010 0.958338
Cu4   Cu    Cu3+1 0.999450 0.000000 0.457010 0.958338
Cu5   Cu    Cu3+1 0.993800 0.542460 0.993900 0.959185
Cu6   Cu    Cu3+1 0.993800 0.457540 0.993900 0.959302
Cu7   Cu    Cu3+1 0.493800 0.042460 0.993900 0.959251
Cu8   Cu    Cu3+1 0.493800 0.957540 0.993900 0.959232
Cu9   Cu    Cu3+1 0.458020 0.000000 0.458050 0.963074
Cu10  Cu    Cu3+1 0.958020 0.500000 0.458050 0.963072
Cu11  Cu    Cu3+1 0.541920 0.000000 0.541950 0.965502
Cu12  Cu    Cu3+1 0.041920 0.500000 0.541950 0.965498
H1    H     H_    0.274404 0.569282 0.238697 0.134271
H2    H     H_    0.274400 0.433318 0.234187 0.134362
H3    H     H_    0.774399 0.068608 0.237443 0.134288
H4    H     H_    0.774408 0.932584 0.235407 0.134346
O1    O     O_R   0.500410 0.561970 0.536310 -0.559247
O2    O     O_R   0.500410 0.438030 0.536310 -0.558966
O3    O     O_R   0.000410 0.061970 0.536310 -0.559171
O4    O     O_R   0.000410 0.938030 0.536310 -0.559042
O5    O     O_R   0.932590 0.535860 0.932690 -0.556601
O6    O     O_R   0.932590 0.464140 0.932690 -0.556606
O7    O     O_R   0.432590 0.035860 0.932690 -0.556588
O8    O     O_R   0.432590 0.964140 0.932690 -0.556620
O9    O     O_R   0.463790 1.000000 0.401850 -0.558737
O10   O     O_R   0.963790 0.500000 0.401850 -0.558737
O11   O     O_R   0.534640 0.000000 0.472710 -0.557425
O12   O     O_R   0.034640 0.500000 0.472710 -0.557427
O13   O     O_R   0.464530 0.938000 0.464560 -0.558748
O14   O     O_R   0.464530 0.062000 0.464560 -0.558720
O15   O     O_R   0.964530 0.438000 0.464560 -0.558742
O16   O     O_R   0.964530 0.562000 0.464560 -0.558727
O17   O     O_R   0.535390 0.937990 0.535420 -0.557901
O18   O     O_R   0.535390 0.062010 0.535420 -0.557916
O19   O     O_R   0.035390 0.437990 0.535420 -0.557893
O20   O     O_R   0.035390 0.562010 0.535420 -0.557924
O21   O     O_R   0.465290 0.000000 0.527290 -0.558278
O22   O     O_R   0.965290 0.500000 0.527290 -0.558279
O23   O     O_R   0.536150 1.000000 0.598150 -0.558379
O24   O     O_R   0.036150 0.500000 0.598150 -0.558379
O25   O     O_R   0.499540 0.561910 0.463710 -0.562905
O26   O     O_R   0.499540 0.438090 0.463710 -0.562961
O27   O     O_R   0.999540 0.061910 0.463710 -0.562914
O28   O     O_R   0.999540 0.938090 0.463710 -0.562952
O29   O     O_R   0.439190 0.500000 0.475090 -0.564061
O30   O     O_R   0.939190 0.000000 0.475090 -0.564055
O31   O     O_R   0.438320 0.500000 0.402480 -0.583640
O32   O     O_R   0.938320 0.000000 0.402480 -0.583641
O33   O     O_R   0.561610 0.500000 0.597520 -0.557114
O34   O     O_R   0.061610 0.000000 0.597520 -0.557113
O35   O     O_R   0.560740 0.500000 0.524910 -0.557538
O36   O     O_R   0.060740 0.000000 0.524910 -0.557537
O37   O     O_R   0.994560 0.535840 0.056620 -0.561439
O38   O     O_R   0.994560 0.464160 0.056620 -0.561336
O39   O     O_R   0.494560 0.035840 0.056620 -0.561406
O40   O     O_R   0.494560 0.964160 0.056620 -0.561369
O41   O     O_R   0.055010 0.535850 0.055100 -0.578810
O42   O     O_R   0.055010 0.464150 0.055100 -0.578720
O43   O     O_R   0.555010 0.035850 0.055100 -0.578781
O44   O     O_R   0.555010 0.964150 0.055100 -0.578750
O45   O     O_R   0.993040 0.535870 0.931160 -0.561664
O46   O     O_R   0.993040 0.464130 0.931160 -0.561679
O47   O     O_R   0.493040 0.035870 0.931160 -0.561652
O48   O     O_R   0.493040 0.964130 0.931160 -0.561692
C109  C     C_3   0.214409 0.577616 0.263648 -0.386171
C110  C     C_3   0.249974 0.612282 0.310822 -0.331900
C111  C     C_3   0.231383 0.652256 0.318850 -0.820079
H5    H     H_    0.205856 0.669795 0.273028 0.250886
H6    H     H_    0.217146 0.640275 0.337128 0.261634
H7    H     H_    0.257753 0.676901 0.352985 0.245185
H8    H     H_    0.275942 0.595966 0.357446 0.252479
H9    H     H_    0.264824 0.625342 0.293862 0.213223
H10   H     H_    0.189503 0.594006 0.216682 0.198862
H11   H     H_    0.198292 0.565676 0.279098 0.216551
C112  C     C_3   0.214410 0.419366 0.258406 -0.385925
C113  C     C_3   0.249974 0.384010 0.303239 -0.332076
C114  C     C_3   0.231385 0.342353 0.308560 -0.820023
H12   H     H_    0.217169 0.352143 0.327593 0.261639
H13   H     H_    0.205843 0.326204 0.261614 0.250887
H14   H     H_    0.257752 0.317245 0.341017 0.245183
H15   H     H_    0.264813 0.373093 0.285467 0.213228
H16   H     H_    0.275949 0.398922 0.350902 0.252430
H17   H     H_    0.198305 0.429184 0.274599 0.216651
H18   H     H_    0.189494 0.404472 0.210400 0.198871
C115  C     C_3   0.714401 0.078476 0.262223 -0.386104
C116  C     C_3   0.749963 0.113346 0.308768 -0.331951
C117  C     C_3   0.731367 0.153796 0.316061 -0.820056
H19   H     H_    0.705844 0.170967 0.269923 0.250888
H20   H     H_    0.717124 0.142405 0.334542 0.261634
H21   H     H_    0.757736 0.178575 0.349751 0.245188
H22   H     H_    0.775929 0.097406 0.355686 0.252470
H23   H     H_    0.764816 0.125827 0.291582 0.213227
H24   H     H_    0.689496 0.094465 0.214963 0.198873
H25   H     H_    0.698281 0.067109 0.277881 0.216574
C118  C     C_3   0.714413 0.920156 0.259855 -0.385993
C119  C     C_3   0.749980 0.884977 0.305342 -0.332017
C120  C     C_3   0.731387 0.843750 0.311386 -0.820071
H26   H     H_    0.717143 0.854130 0.330199 0.261635
H27   H     H_    0.705866 0.827213 0.264733 0.250883
H28   H     H_    0.757758 0.818763 0.344316 0.245187
H29   H     H_    0.764840 0.873483 0.287800 0.213233
H30   H     H_    0.775940 0.900278 0.352735 0.252445
H31   H     H_    0.698298 0.930556 0.275850 0.216611
H32   H     H_    0.689506 0.904844 0.212124 0.198876
C121  C     C_3   0.214751 0.502993 0.125205 -0.397596
C122  C     C_3   0.251523 0.504191 0.127006 -0.345170
C123  C     C_3   0.233429 0.505723 0.060573 -0.831414
H33   H     H_    0.213332 0.475093 0.033550 0.254584
H34   H     H_    0.213208 0.536646 0.035429 0.254606
H35   H     H_    0.260735 0.506585 0.063287 0.243954
H36   H     H_    0.272151 0.534709 0.153382 0.220515
H37   H     H_    0.272247 0.473441 0.151492 0.220594
H38   H     H_    0.194138 0.472467 0.098896 0.199601
H39   H     H_    0.194093 0.533792 0.100886 0.199690
C124  C     C_3   0.714755 0.001351 0.125166 -0.397599
C125  C     C_3   0.751528 0.001941 0.126955 -0.345169
C126  C     C_3   0.733436 0.002565 0.060504 -0.831415
H40   H     H_    0.713379 0.971786 0.034081 0.254572
H41   H     H_    0.713178 0.033366 0.034753 0.254619
H42   H     H_    0.760744 0.003012 0.063209 0.243954
H43   H     H_    0.772125 0.032580 0.152739 0.220516
H44   H     H_    0.772283 0.971286 0.152038 0.220595
H45   H     H_    0.694160 0.970715 0.099424 0.199644
H46   H     H_    0.694079 0.032067 0.100275 0.199644
I1    I     I_    0.286300 0.496291 0.399440 -0.429768
I2    I     I_    0.786296 0.998323 0.399485 -0.429772

loop_
_geom_bond_atom_site_label_1
_geom_bond_atom_site_label_2
_ccdc_geom_bond_type
C2    O26   A    
Cu3   O35   S    
C118  C119  S    
C40   C60   S    
C7    C98   S    
Cu4   O27   S    
Cu6   O46   S    
C41   C43   S    
C14   C18   T    
C10   C108  S    
Cu9   O14   S    
Cu12  O20   S    
C38   O32   A    
C54   O43   A    
C112  C113  S    
Cu1   O33   S    
C125  C126  S    
C78   C80   T    
C114  H12   S    
C61   O9    A    
C39   C41   T    
Cu7   O7    S    
C109  C110  S    
C15   C19   T    
C99   C108  S    
C105  C107  S    
C68   C96   S    
C6    C85   S    
Cu5   O5    S    
Cu2   O30   S    
C32   C36   T    
C57   O5    A    
C8    C99   S    
C76   C78   S    
C12   C104  T    
C122  H36   S    
Cu1   Cu3   S    
C6    C12   S    
C5    C83   S    
C3    O3    A    
C114  H13   S    
C66   O20   A    
C35   C65   S    
Cu11  O23   S    
Cu7   Cu8   S    
C29   C33   T    
C71   C73   S    
C126  H42   S    
C115  H24   S    
C113  C114  S    
Cu8   O48   S    
C51   O38   A    
Cu9   O21   S    
Cu2   O34   S    
C62   O12   A    
C69   C71   T    
C37   O31   A    
C110  C111  S    
C97   H1    S    
Cu9   O9    S    
C59   O35   A    
C116  H23   S    
C20   C24   S    
C58   O8    A    
C87   C89   S    
C119  H29   S    
C67   O21   A    
Cu4   O28   S    
C1    O25   A    
C23   C27   T    
C55   C81   S    
Cu4   O36   S    
C55   O46   A    
Cu10  O10   S    
C33   C63   S    
Cu2   O3    S    
C117  H21   S    
C40   C42   T    
C116  C117  S    
C63   O13   A    
Cu3   O31   S    
C109  H10   S    
C93   C95   T    
C56   O48   A    
C67   C95   S    
Cu6   O6    S    
C112  H18   S    
C118  H31   S    
C86   C106  S    
Cu12  O19   S    
C42   C44   S    
Cu10  O16   S    
C106  I2    S    
Cu3   O25   S    
C28   C32   S    
C34   C64   S    
C124  H45   S    
Cu6   O42   S    
C111  H7    S    
Cu2   Cu4   S    
C45   C47   S    
C25   C29   S    
C4    O28   A    
C46   C48   S    
C100  C108  S    
C74   C75   T    
C30   C34   T    
C27   C31   S    
C50   C58   S    
C37   O29   A    
C57   O6    A    
Cu10  O22   S    
C52   C70   S    
C124  C125  S    
C72   C74   S    
C123  H35   S    
C121  H38   S    
C5    C7    S    
C5    C84   S    
C4    O4    A    
C122  C123  S    
C114  H14   S    
C6    C8    S    
C44   C46   T    
C120  H26   S    
Cu11  O11   S    
C98   C107  S    
C83   C105  S    
C112  H17   S    
Cu12  O12   S    
C62   C80   S    
C4    C16   S    
C19   C23   S    
C123  H33   S    
C85   C99   S    
C125  H44   S    
C91   C93   S    
C43   C45   T    
C121  H39   S    
C53   O42   A    
C116  H22   S    
Cu8   O8    S    
C121  C122  S    
C58   O7    A    
C16   C20   T    
C39   C59   S    
C92   C94   S    
C84   C105  S    
C63   O17   A    
C77   C79   T    
C7    C121  S    
C89   C92   T    
C94   C96   T    
Cu8   O44   S    
C75   C77   S    
C81   C87   T    
C8    C124  S    
C56   C82   S    
C52   O40   A    
C2    O2    A    
C68   O22   A    
C53   O41   A    
Cu4   O32   S    
C88   C90   S    
C109  H11   S    
Cu12  O24   S    
C111  H6    S    
C64   O18   A    
C83   C109  S    
C56   O47   A    
C83   C97   S    
Cu11  O17   S    
C73   C76   T    
C113  H16   S    
C118  H32   S    
Cu7   O47   S    
C1    C13   S    
C38   O30   A    
Cu7   O43   S    
Cu10  O15   S    
Cu3   O26   S    
C110  H9    S    
C64   O14   A    
Cu1   O29   S    
C124  H46   S    
C61   O11   A    
C99   H3    S    
Cu5   Cu6   S    
C120  H28   S    
Cu1   O1    S    
C98   H2    S    
C21   C25   T    
C7    C97   S    
C126  H40   S    
C18   C22   S    
C105  I1    S    
Cu8   O40   S    
C84   C112  S    
Cu9   O13   S    
C24   C28   T    
Cu5   O41   S    
C60   O34   A    
C68   O24   A    
C49   C57   S    
Cu5   O45   S    
C5    C11   S    
C31   C35   T    
C47   C49   T    
C11   C103  T    
C54   C104  S    
C3    O27   A    
C6    C86   S    
C13   C17   T    
C1    O1    A    
C84   C98   S    
C62   O10   A    
Cu9   Cu11  S    
C8    C100  S    
C9    C107  S    
C38   C102  S    
C111  H5    S    
C122  H37   S    
C125  H43   S    
C37   C101  S    
C86   C100  S    
C59   O33   A    
C85   C115  S    
C90   C91   T    
C106  C108  S    
C61   C79   S    
C82   C88   T    
C110  H8    S    
C10   C102  T    
C48   C50   T    
C126  H41   S    
C51   O37   A    
C36   C66   S    
Cu7   O39   S    
C2    C14   S    
C65   O15   A    
Cu10  Cu12  S    
C123  H34   S    
Cu6   O38   S    
C115  H25   S    
C52   O39   A    
Cu5   O37   S    
C117  H19   S    
C97   C107  S    
C54   O44   A    
Cu1   O2    S    
C66   O16   A    
C119  C120  S    
C9    C101  T    
C115  C116  S    
C22   C26   T    
C67   O23   A    
C119  H30   S    
Cu11  O18   S    
C113  H15   S    
C53   C103  S    
C3    C15   S    
C70   C72   T    
C51   C69   S    
C60   O36   A    
C120  H27   S    
C100  H4    S    
C86   C118  S    
C55   O45   A    
C65   O19   A    
C85   C106  S    
Cu2   O4    S    
C117  H20   S    
C26   C30   S    
C17   C21   S    
