data_mof_unit_27313.cif
_audit_creation_date              2013-03-05T16:48:14-0500
_audit_creation_method            fapswitch 2.2
_symmetry_space_group_name_H-M    P1
_symmetry_Int_Tables_number       1
_space_group_crystal_system       triclinic
_cell_length_a                    23.514305
_cell_length_b                    8.931374
_cell_length_c                    8.090971
_cell_angle_alpha                 90.082182
_cell_angle_beta                  89.977828
_cell_angle_gamma                 90.0034
_cell_volume                      1699.22381965

loop_
_atom_site_label
_atom_site_type_symbol
_atom_site_description
_atom_site_fract_x
_atom_site_fract_y
_atom_site_fract_z
_atom_type_partial_charge
O1    O     O_R   0.500000 0.285350 0.636850 -0.618406
O2    O     O_R   0.500000 0.714650 0.363150 -0.613653
O3    O     O_R   0.500000 0.714650 0.636850 -0.615014
O4    O     O_R   0.500000 0.285350 0.363150 -0.619543
H1    H     H_    0.949004 0.125008 0.435087 0.190102
H2    H     H_    0.052035 0.873671 0.568208 0.189308
H3    H     H_    0.948732 0.873741 0.565366 0.190118
H4    H     H_    0.052299 0.125553 0.432526 0.189550
C1    C     C_R   0.499984 0.217939 0.499925 0.924734
C2    C     C_R   0.499988 0.782063 0.500075 0.941386
O5    O     O_R   0.416160 0.500000 0.636910 -0.605278
O6    O     O_R   0.583840 0.500000 0.363090 -0.605933
O7    O     O_R   0.583840 0.500000 0.636910 -0.597441
O8    O     O_R   0.416160 0.500000 0.363090 -0.600023
C3    C     C_R   0.208196 0.499835 0.500726 0.269979
C4    C     C_R   0.792534 0.498964 0.499851 0.265041
C5    C     C_R   0.389030 0.499717 0.500035 0.896120
C6    C     C_R   0.611108 0.499513 0.499968 0.892780
Zn1   Zn    Zn3+2 0.500000 0.500000 0.682780 1.009599
Zn2   Zn    Zn3+2 0.500000 0.500000 0.317220 1.008574
H5    H     H_    0.214158 0.621826 0.272632 0.153193
H6    H     H_    0.786876 0.409944 0.254128 0.150346
H7    H     H_    0.213659 0.377555 0.727991 0.148146
H8    H     H_    0.786259 0.587532 0.746382 0.155424
C7    C     C_R   0.296716 0.569272 0.370528 0.031516
C8    C     C_R   0.703812 0.444616 0.360071 0.038536
C9    C     C_R   0.296797 0.428247 0.630299 0.035339
C10   C     C_R   0.703846 0.551150 0.639551 0.032433
C11   C     C_R   0.326799 0.498895 0.500174 -0.060325
C12   C     C_R   0.673590 0.498300 0.499895 -0.065473
C13   C     C_R   0.881456 0.632078 0.519330 0.508957
C14   C     C_R   0.119583 0.367577 0.476039 0.508833
C15   C     C_R   0.881561 0.366345 0.480910 0.506647
C16   C     C_R   0.119504 0.631924 0.524923 0.510425
N1    N     N_R   0.853219 0.499146 0.500011 -0.350583
N2    N     N_R   0.147682 0.499796 0.500577 -0.352074
C17   C     C_R   0.940917 0.364041 0.478037 -0.013049
C18   C     C_R   0.060141 0.634744 0.524597 -0.014577
C19   C     C_R   0.940815 0.634677 0.522387 -0.014013
C20   C     C_R   0.060230 0.364520 0.476162 -0.013847
C21   C     C_R   0.970656 0.499431 0.500248 -0.021828
C22   C     C_R   0.030393 0.499567 0.500338 -0.021859
C23   C     C_R   0.971032 0.230092 0.453891 -0.162944
C24   C     C_R   0.030019 0.768717 0.548314 -0.163622
C25   C     C_R   0.970838 0.768762 0.546624 -0.162706
C26   C     C_R   0.030209 0.230410 0.452355 -0.163685
C27   C     C_1   0.499974 0.065184 0.499894 -0.187807
C28   C     C_1   0.499975 0.934821 0.500107 -0.184684
C29   C     C_R   0.237522 0.568429 0.371785 -0.153037
C30   C     C_R   0.763150 0.448345 0.360902 -0.133391
C31   C     C_R   0.237453 0.430613 0.629455 -0.135626
C32   C     C_R   0.763029 0.548863 0.638827 -0.153891
N3    N     N_1   0.500000 0.500000 0.073640 -0.023584
N4    N     N_1   0.500000 0.500000 0.926360 -0.023284
O9    O     O_2   0.852081 0.761289 0.534021 -0.539370
O10   O     O_2   0.149135 0.239999 0.450683 -0.541242
O11   O     O_2   0.852289 0.236961 0.466264 -0.540663
O12   O     O_2   0.148980 0.759617 0.550286 -0.539967
N5    N     N_3   0.326043 0.644701 0.239477 -0.425016
H9    H     H_    0.313667 0.596003 0.127502 0.201763
H10   H     H_    0.312860 0.756512 0.238574 0.198137
N6    N     N_3   0.674391 0.383735 0.219307 -0.421898
H11   H     H_    0.655740 0.282901 0.256491 0.196632
H12   H     H_    0.703003 0.356745 0.124765 0.179214
N7    N     N_3   0.326581 0.351778 0.760497 -0.421244
H13   H     H_    0.298231 0.315057 0.851447 0.188794
H14   H     H_    0.344980 0.255862 0.709024 0.190731
N8    N     N_3   0.674841 0.610275 0.781212 -0.418695
H15   H     H_    0.688396 0.720603 0.799260 0.200381
H16   H     H_    0.687075 0.547944 0.884531 0.196536

loop_
_geom_bond_atom_site_label_1
_geom_bond_atom_site_label_2
_geom_bond_distance
_ccdc_geom_bond_type
H8    C32   1.083720 S    
N6    H12   1.046403 S    
C18   C24   1.403427 A    
N6    H11   1.046210 S    
C9    N7    1.438521 S    
C3    C31   1.393840 A    
C9    C11   1.416193 A    
C5    C11   1.463337 S    
C21   C22   1.404677 A    
H7    C31   1.083483 S    
C27   C28   1.164328 T    
N7    H14   1.045645 S    
C19   C25   1.403682 A    
H6    C30   1.083521 S    
O3    Zn1   1.953327 S    
O6    Zn2   2.006210 S    
H5    C29   1.083664 S    
C8    N6    1.438818 S    
N5    H9    1.045818 S    
C19   C21   1.408171 A    
O3    C2    1.260588 A    
H2    C24   1.082672 S    
N3    N4    1.191637 T    
C3    C29   1.393011 A    
C20   C26   1.403388 A    
C10   C32   1.391801 A    
O8    C5    1.278329 A    
O5    Zn1   2.006213 S    
O7    C6    1.279928 A    
C17   C21   1.408164 A    
C6    C12   1.469259 S    
H3    C25   1.082538 S    
Zn1   N4    1.970799 S    
C10   C12   1.415914 A    
C15   N1    1.369073 A    
C9    C31   1.395602 A    
C15   C17   1.396040 A    
C18   C22   1.408813 A    
C2    C28   1.364342 S    
C16   N2    1.367389 A    
C8    C30   1.395701 A    
C4    N1    1.426953 S    
H1    C23   1.082537 S    
C4    C30   1.394570 A    
C23   C26   1.391552 A    
C7    C29   1.391957 A    
C17   C23   1.403634 A    
O1    Zn1   1.952282 S    
C1    C27   1.364310 S    
N5    H10   1.045674 S    
O7    Zn1   2.005928 S    
O2    Zn2   1.952281 S    
O4    Zn2   1.953328 S    
C14   N2    1.367423 A    
C3    N2    1.422941 S    
C14   C20   1.395900 A    
O1    C1    1.260124 A    
C24   C25   1.391691 A    
O8    Zn2   2.005930 S    
N8    H16   1.045483 S    
N7    H13   1.045817 S    
N8    H15   1.045691 S    
O6    C6    1.279927 A    
C16   O12   1.350008 S    
C20   C22   1.408768 A    
Zn2   N3    1.970799 S    
C13   N1    1.369064 A    
C7    N5    1.433571 S    
H4    C26   1.082677 S    
C13   O9    1.350060 S    
O4    C1    1.260581 A    
C16   C18   1.396098 A    
C14   O10   1.350040 S    
C15   O11   1.350089 S    
O5    C5    1.278263 A    
C4    C32   1.393685 A    
C13   C19   1.396205 A    
C7    C11   1.413624 A    
C10   N8    1.433681 S    
C8    C12   1.418675 A    
O2    C2    1.260134 A    
