data_mof_unit_51612.cif
_audit_creation_date              2013-03-05T16:00:33-0500
_audit_creation_method            fapswitch 2.2
_symmetry_space_group_name_H-M    P1
_symmetry_Int_Tables_number       1
_space_group_crystal_system       triclinic
_cell_length_a                    18.431839
_cell_length_b                    18.432941
_cell_length_c                    34.300683
_cell_angle_alpha                 90.000264
_cell_angle_beta                  90.000166
_cell_angle_gamma                 89.872887
_cell_volume                      11653.7312994

loop_
_atom_site_label
_atom_site_type_symbol
_atom_site_description
_atom_site_fract_x
_atom_site_fract_y
_atom_site_fract_z
_atom_type_partial_charge
Zn1   Zn    Zn3+2 0.413190 0.000000 0.217350 1.054968
Zn2   Zn    Zn3+2 0.586810 0.000000 0.782650 1.057162
Zn3   Zn    Zn3+2 1.000000 0.413190 0.217350 1.056641
Zn4   Zn    Zn3+2 1.000000 0.586810 0.782650 1.055298
Zn5   Zn    Zn3+2 0.586810 0.000000 0.217350 1.054967
Zn6   Zn    Zn3+2 0.413190 0.000000 0.782650 1.057169
Zn7   Zn    Zn3+2 1.000000 0.586810 0.217350 1.056588
Zn8   Zn    Zn3+2 1.000000 0.413190 0.782650 1.055303
Zn9   Zn    Zn3+2 0.913190 0.500000 0.717350 1.054659
Zn10  Zn    Zn3+2 0.086810 0.500000 0.282650 1.057345
Zn11  Zn    Zn3+2 0.500000 0.913190 0.717350 1.057190
Zn12  Zn    Zn3+2 0.500000 0.086810 0.282650 1.054925
Zn13  Zn    Zn3+2 0.086810 0.500000 0.717350 1.054659
Zn14  Zn    Zn3+2 0.913190 0.500000 0.282650 1.057309
Zn15  Zn    Zn3+2 0.500000 0.086810 0.717350 1.057200
Zn16  Zn    Zn3+2 0.500000 0.913190 0.282650 1.054934
C1    C     C_R   0.977319 0.562413 0.417943 0.352813
C2    C     C_R   0.030225 0.440671 0.581834 0.333525
C3    C     C_R   0.440607 0.030101 0.418166 0.333558
C4    C     C_R   0.562485 0.977503 0.582057 0.352732
C5    C     C_R   0.022682 0.437587 0.417943 0.352812
C6    C     C_R   0.969775 0.559329 0.581834 0.333525
C7    C     C_R   0.559396 0.969902 0.418166 0.333557
C8    C     C_R   0.437517 0.022497 0.582057 0.352736
C9    C     C_R   0.478120 0.062699 0.917945 0.352548
C10   C     C_R   0.529680 0.940403 0.081833 0.333568
C11   C     C_R   0.939763 0.528333 0.918156 0.333694
C12   C     C_R   0.063296 0.479912 0.082044 0.351924
C13   C     C_R   0.521886 0.937302 0.917945 0.352557
C14   C     C_R   0.470325 0.059596 0.081834 0.333581
C15   C     C_R   0.060238 0.471680 0.918157 0.333697
C16   C     C_R   0.936717 0.520126 0.082046 0.351916
C17   C     C_R   0.000000 0.500000 0.397911 -0.237937
C18   C     C_R   1.000000 0.500000 0.601900 -0.237125
C19   C     C_R   0.500001 0.000001 0.398099 -0.237079
C20   C     C_R   0.500000 1.000000 0.602089 -0.237888
C21   C     C_R   0.500001 0.000000 0.897911 -0.237745
C22   C     C_R   0.500001 0.999999 0.101900 -0.237071
C23   C     C_R   0.999999 0.500002 0.898092 -0.236466
C24   C     C_R   0.000003 0.500005 0.102084 -0.237321
O1    O     O_3   0.500000 0.000000 0.250000 -0.543205
O2    O     O_3   0.500000 0.000000 0.750000 -0.555375
O3    O     O_3   1.000000 0.500000 0.250000 -0.555058
O4    O     O_3   1.000000 0.500000 0.750000 -0.543406
O5    O     O_R   0.500000 0.939270 0.337550 -0.654376
O6    O     O_R   0.500000 0.060730 0.662450 -0.631527
O7    O     O_R   0.060730 0.500000 0.337550 -0.631440
O8    O     O_R   0.939270 0.500000 0.662450 -0.654379
O9    O     O_R   0.500000 0.060730 0.337550 -0.654380
O10   O     O_R   0.500000 0.939270 0.662450 -0.631526
O11   O     O_R   0.939270 0.500000 0.337550 -0.631435
O12   O     O_R   0.060730 0.500000 0.662450 -0.654378
O13   O     O_R   1.000000 0.439270 0.837550 -0.654278
O14   O     O_R   1.000000 0.560730 0.162450 -0.633526
O15   O     O_R   0.560730 0.000000 0.837550 -0.631992
O16   O     O_R   0.439270 0.000000 0.162450 -0.654380
O17   O     O_R   1.000000 0.560730 0.837550 -0.654282
O18   O     O_R   1.000000 0.439270 0.162450 -0.633532
O19   O     O_R   0.439270 0.000000 0.837550 -0.631985
O20   O     O_R   0.560730 0.000000 0.162450 -0.654379
H1    H     H_    0.069419 0.329586 0.464629 0.182088
H2    H     H_    0.930181 0.670338 0.534967 0.179958
H3    H     H_    0.670510 0.930583 0.465030 0.179990
H4    H     H_    0.329395 0.068965 0.535371 0.182119
H5    H     H_    0.930583 0.670414 0.464629 0.182088
H6    H     H_    0.069820 0.329663 0.534967 0.179959
H7    H     H_    0.329494 0.069424 0.465030 0.179993
H8    H     H_    0.670608 0.931038 0.535371 0.182116
H9    H     H_    0.567463 0.828806 0.964628 0.182261
H10   H     H_    0.431914 0.171028 0.034980 0.180264
H11   H     H_    0.172576 0.435965 0.964993 0.180457
H12   H     H_    0.827145 0.563082 0.035363 0.182517
H13   H     H_    0.432557 0.171200 0.964629 0.182270
H14   H     H_    0.568101 0.828976 0.034979 0.180256
H15   H     H_    0.827440 0.564092 0.964994 0.180443
H16   H     H_    0.172883 0.437009 0.035364 0.182591
O21   O     O_R   0.414490 0.146150 0.273020 -0.620714
O22   O     O_R   0.585510 0.853850 0.726980 -0.594005
O23   O     O_R   0.853850 0.414490 0.273020 -0.607690
O24   O     O_R   0.146150 0.585510 0.726980 -0.598464
O25   O     O_R   0.585510 0.853850 0.273020 -0.620708
O26   O     O_R   0.414490 0.146150 0.726980 -0.594002
O27   O     O_R   0.146150 0.585510 0.273020 -0.607655
O28   O     O_R   0.853850 0.414490 0.726980 -0.598465
O29   O     O_R   0.414490 0.853850 0.726980 -0.607984
O30   O     O_R   0.585510 0.146150 0.273020 -0.598399
O31   O     O_R   0.853850 0.585510 0.726980 -0.620644
O32   O     O_R   0.146150 0.414490 0.273020 -0.594299
O33   O     O_R   0.585510 0.146150 0.726980 -0.607978
O34   O     O_R   0.414490 0.853850 0.273020 -0.598388
O35   O     O_R   0.146150 0.414490 0.726980 -0.620645
O36   O     O_R   0.853850 0.585510 0.273020 -0.594288
O37   O     O_R   0.914490 0.646150 0.773020 -0.620334
O38   O     O_R   0.085510 0.353850 0.226980 -0.593839
O39   O     O_R   0.353850 0.914490 0.773020 -0.608256
O40   O     O_R   0.646150 0.085510 0.226980 -0.598433
O41   O     O_R   0.085510 0.353850 0.773020 -0.620329
O42   O     O_R   0.914490 0.646150 0.226980 -0.593848
O43   O     O_R   0.646150 0.085510 0.773020 -0.608261
O44   O     O_R   0.353850 0.914490 0.226980 -0.598436
O45   O     O_R   0.914490 0.353850 0.226980 -0.608809
O46   O     O_R   0.085510 0.646150 0.773020 -0.598021
O47   O     O_R   0.353850 0.085510 0.226980 -0.620668
O48   O     O_R   0.646150 0.914490 0.773020 -0.593824
O49   O     O_R   0.085510 0.646150 0.226980 -0.608839
O50   O     O_R   0.914490 0.353850 0.773020 -0.598020
O51   O     O_R   0.646150 0.914490 0.226980 -0.620668
O52   O     O_R   0.353850 0.085510 0.773020 -0.593823
C25   C     C_R   0.050043 0.377598 0.479599 -0.177226
C26   C     C_R   0.949204 0.622108 0.520104 -0.181096
C27   C     C_R   0.622237 0.949498 0.479895 -0.181097
C28   C     C_R   0.377462 0.049723 0.520400 -0.177182
C29   C     C_R   0.949958 0.622403 0.479600 -0.177225
C30   C     C_R   0.050797 0.377892 0.520104 -0.181096
C31   C     C_R   0.377766 0.050507 0.479895 -0.181096
C32   C     C_R   0.622541 0.950280 0.520400 -0.177181
C33   C     C_R   0.548663 0.877042 0.979602 -0.177004
C34   C     C_R   0.450476 0.122627 0.020109 -0.181148
C35   C     C_R   0.123781 0.453436 0.979876 -0.181232
C36   C     C_R   0.875853 0.545547 0.020386 -0.176885
C37   C     C_R   0.451351 0.122961 0.979602 -0.176984
C38   C     C_R   0.549537 0.877376 0.020108 -0.181151
C39   C     C_R   0.876231 0.546608 0.979877 -0.181186
C40   C     C_R   0.124165 0.454511 0.020386 -0.176794
C41   C     C_R   0.500000 0.000000 0.355751 0.946901
C42   C     C_R   0.500000 1.000000 0.644321 0.901035
C43   C     C_R   1.000000 0.500000 0.355679 0.900862
C44   C     C_R   1.000000 0.500000 0.644249 0.946939
C45   C     C_R   0.999999 0.500000 0.855748 0.946639
C46   C     C_R   0.000002 0.500001 0.144319 0.903587
C47   C     C_R   0.500000 1.000000 0.855680 0.901663
C48   C     C_R   0.500000 0.999999 0.144249 0.946876
C49   C     C_R   0.360106 0.139893 0.250000 0.939589
C50   C     C_R   0.640136 0.859865 0.750001 0.886605
C51   C     C_R   0.859959 0.359969 0.249999 0.935928
C52   C     C_R   0.140065 0.640060 0.750001 0.909701
C53   C     C_R   0.639893 0.860107 0.250000 0.939578
C54   C     C_R   0.359864 0.140135 0.750001 0.886615
C55   C     C_R   0.140042 0.640030 0.249999 0.935845
C56   C     C_R   0.859935 0.359940 0.750001 0.909699
C57   C     C_R   0.359966 0.859968 0.750000 0.936382
C58   C     C_R   0.640059 0.140060 0.249998 0.909830
C59   C     C_R   0.860098 0.639888 0.749999 0.938835
C60   C     C_R   0.140128 0.359853 0.250004 0.887471
C61   C     C_R   0.640033 0.140032 0.750000 0.936388
C62   C     C_R   0.359942 0.859939 0.249997 0.909812
C63   C     C_R   0.139902 0.360112 0.749999 0.938827
C64   C     C_R   0.859871 0.640146 0.250004 0.887376
C65   C     C_R   0.230123 0.823456 0.247096 0.177702
C66   C     C_R   0.769926 0.176366 0.752419 0.170044
C67   C     C_R   0.176917 0.229709 0.250753 0.169480
C68   C     C_R   0.824084 0.769370 0.748499 0.162654
C69   C     C_R   0.769879 0.176541 0.247106 0.177697
C70   C     C_R   0.230074 0.823634 0.752420 0.170043
C71   C     C_R   0.823081 0.770288 0.250752 0.169499
C72   C     C_R   0.175916 0.230630 0.748499 0.162662
C73   C     C_R   0.229726 0.176929 0.749339 0.170434
C74   C     C_R   0.769377 0.824099 0.251590 0.162158
C75   C     C_R   0.176538 0.769886 0.752841 0.177667
C76   C     C_R   0.823621 0.230082 0.247527 0.170019
C77   C     C_R   0.770274 0.823071 0.749339 0.170431
C78   C     C_R   0.230622 0.175899 0.251592 0.162175
C79   C     C_R   0.823462 0.230114 0.752839 0.177666
C80   C     C_R   0.176382 0.769915 0.247517 0.170039
C81   C     C_R   0.730102 0.323459 0.747158 0.177725
C82   C     C_R   0.269938 0.676390 0.252526 0.168974
C83   C     C_R   0.676907 0.729733 0.750639 0.169188
C84   C     C_R   0.324085 0.269371 0.248399 0.161662
C85   C     C_R   0.269897 0.676542 0.747156 0.177721
C86   C     C_R   0.730063 0.323610 0.252515 0.169077
C87   C     C_R   0.323093 0.270268 0.750639 0.169180
C88   C     C_R   0.675913 0.730627 0.248401 0.161681
C89   C     C_R   0.729744 0.676944 0.249218 0.170322
C90   C     C_R   0.269412 0.324097 0.751435 0.161255
C91   C     C_R   0.676527 0.269869 0.252896 0.177836
C92   C     C_R   0.323638 0.730082 0.747568 0.169720
C93   C     C_R   0.270254 0.323053 0.249216 0.170333
C94   C     C_R   0.730588 0.675903 0.751434 0.161259
C95   C     C_R   0.323474 0.730131 0.252905 0.177869
C96   C     C_R   0.676361 0.269918 0.747570 0.169703
C97   C     C_R   0.024737 0.438134 0.458845 0.012242
C98   C     C_R   0.972830 0.560898 0.540926 0.017017
C99   C     C_R   0.560964 0.972971 0.459073 0.017014
C100  C     C_R   0.438063 0.024567 0.541155 0.012275
C101  C     C_R   0.975264 0.561867 0.458845 0.012244
C102  C     C_R   0.027171 0.439102 0.540926 0.017016
C103  C     C_R   0.439038 0.027033 0.459073 0.017010
C104  C     C_R   0.561938 0.975434 0.541155 0.012276
C105  C     C_R   0.524007 0.937847 0.958846 0.012401
C106  C     C_R   0.473443 0.061164 0.040927 0.016901
C107  C     C_R   0.061771 0.474893 0.959062 0.017000
C108  C     C_R   0.937239 0.522367 0.041144 0.012826
C109  C     C_R   0.476001 0.062155 0.958847 0.012401
C110  C     C_R   0.526565 0.938836 0.040927 0.016906
C111  C     C_R   0.938232 0.525126 0.959062 0.017010
C112  C     C_R   0.062769 0.477663 0.041143 0.012798
C113  C     C_R   0.196225 0.696212 0.250009 -0.333203
C114  C     C_R   0.803760 0.303766 0.750000 -0.333357
C115  C     C_R   0.304133 0.195862 0.250003 -0.343958
C116  C     C_R   0.696507 0.803490 0.750002 -0.339353
C117  C     C_R   0.803776 0.303786 0.250009 -0.333103
C118  C     C_R   0.196239 0.696234 0.750000 -0.333361
C119  C     C_R   0.695866 0.804136 0.250002 -0.343957
C120  C     C_R   0.303493 0.196510 0.750002 -0.339353
C121  C     C_R   0.195885 0.304143 0.749981 -0.343736
C122  C     C_R   0.803499 0.696529 0.249995 -0.338965
C123  C     C_R   0.303789 0.803791 0.749998 -0.332387
C124  C     C_R   0.696227 0.196229 0.249994 -0.333572
C125  C     C_R   0.804115 0.695858 0.749981 -0.343739
C126  C     C_R   0.196499 0.303468 0.249996 -0.338964
C127  C     C_R   0.696211 0.196210 0.749999 -0.332390
C128  C     C_R   0.303774 0.803770 0.249993 -0.333582
C129  C     C_R   0.000001 0.500000 0.479345 -0.012137
C130  C     C_R   0.000000 0.500000 0.520447 -0.006291
C131  C     C_R   0.500001 0.000001 0.479553 -0.006321
C132  C     C_R   0.500001 0.000001 0.520654 -0.012161
C133  C     C_R   0.500004 0.000000 0.979347 -0.012258
C134  C     C_R   0.500004 0.000000 0.020447 -0.006412
C135  C     C_R   0.000000 0.500007 0.979544 -0.006655
C136  C     C_R   0.000000 0.500007 0.020644 -0.012472
N1    N     N_R   0.209024 0.898189 0.246497 0.261531
O53   O     O_R   0.209504 0.933187 0.213569 -0.273716
O54   O     O_R   0.173084 0.924743 0.275872 -0.263939
N2    N     N_R   0.791058 0.101457 0.752772 0.268723
O55   O     O_R   0.766838 0.057793 0.726045 -0.374247
O56   O     O_R   0.838636 0.078048 0.777839 -0.216591
N3    N     N_R   0.102406 0.208998 0.252650 0.257860
O57   O     O_R   0.065061 0.206363 0.220531 -0.247383
O58   O     O_R   0.078719 0.175203 0.283405 -0.307443
N4    N     N_R   0.898905 0.789738 0.744820 0.264737
O59   O     O_R   0.938429 0.762178 0.717080 -0.368220
O60   O     O_R   0.926133 0.839691 0.767224 -0.213908
N5    N     N_R   0.790977 0.101808 0.246514 0.261524
O61   O     O_R   0.790501 0.066801 0.213588 -0.273685
O62   O     O_R   0.826910 0.075261 0.275893 -0.263975
N6    N     N_R   0.208942 0.898543 0.752775 0.268726
O63   O     O_R   0.233158 0.942208 0.726048 -0.374239
O64   O     O_R   0.161368 0.921951 0.777844 -0.216597
N7    N     N_R   0.897592 0.791000 0.252650 0.257866
O65   O     O_R   0.934935 0.793640 0.220530 -0.247361
O66   O     O_R   0.921279 0.824789 0.283406 -0.307466
N8    N     N_R   0.101095 0.210262 0.744819 0.264739
O67   O     O_R   0.061572 0.237822 0.717079 -0.368219
O68   O     O_R   0.073867 0.160309 0.767223 -0.213899
N9    N     N_R   0.209003 0.102419 0.747480 0.257924
O69   O     O_R   0.206403 0.065109 0.779612 -0.246897
O70   O     O_R   0.175202 0.078686 0.716737 -0.306934
N10   N     N_R   0.789736 0.898911 0.255322 0.264645
O71   O     O_R   0.762068 0.938410 0.283040 -0.368662
O72   O     O_R   0.839732 0.926182 0.232958 -0.214570
N11   N     N_R   0.101799 0.790971 0.753402 0.261369
O73   O     O_R   0.066760 0.790511 0.786319 -0.272309
O74   O     O_R   0.075287 0.826905 0.724015 -0.264371
N12   N     N_R   0.898532 0.208957 0.247141 0.268795
O75   O     O_R   0.942194 0.233056 0.273901 -0.373774
O76   O     O_R   0.921921 0.161444 0.222035 -0.217308
N13   N     N_R   0.790997 0.897582 0.747481 0.257928
O77   O     O_R   0.793596 0.934892 0.779613 -0.246904
O78   O     O_R   0.824799 0.921315 0.716738 -0.306933
N14   N     N_R   0.210263 0.101087 0.255324 0.264646
O79   O     O_R   0.237932 0.061589 0.283042 -0.368670
O80   O     O_R   0.160272 0.073814 0.232958 -0.214571
N15   N     N_R   0.898201 0.209030 0.753399 0.261367
O81   O     O_R   0.933242 0.209488 0.786315 -0.272299
O82   O     O_R   0.924711 0.173097 0.724011 -0.264377
N16   N     N_R   0.101472 0.791041 0.247123 0.268807
O83   O     O_R   0.057807 0.766963 0.273888 -0.373700
O84   O     O_R   0.078087 0.838538 0.222008 -0.217358
N17   N     N_R   0.709000 0.398190 0.746608 0.261575
O85   O     O_R   0.709527 0.433264 0.713704 -0.273256
O86   O     O_R   0.672944 0.424637 0.775970 -0.264560
N18   N     N_R   0.291087 0.601498 0.253056 0.268912
O87   O     O_R   0.267069 0.557666 0.226360 -0.372937
O88   O     O_R   0.338501 0.578268 0.278259 -0.217223
N19   N     N_R   0.602390 0.709028 0.752511 0.258261
O89   O     O_R   0.565072 0.706399 0.720382 -0.247294
O90   O     O_R   0.578674 0.675240 0.783262 -0.306127
N20   N     N_R   0.398896 0.289756 0.244652 0.264635
O91   O     O_R   0.438425 0.262006 0.216969 -0.368753
O92   O     O_R   0.426123 0.339883 0.266944 -0.214625
N21   N     N_R   0.291000 0.601811 0.746605 0.261576
O93   O     O_R   0.290471 0.566737 0.713700 -0.273260
O94   O     O_R   0.327058 0.575363 0.775967 -0.264558
N22   N     N_R   0.708914 0.398503 0.253028 0.268899
O95   O     O_R   0.732953 0.442318 0.226330 -0.373151
O96   O     O_R   0.661478 0.421749 0.278216 -0.217177
N23   N     N_R   0.397610 0.290973 0.752511 0.258265
O97   O     O_R   0.434927 0.293600 0.720382 -0.247298
O98   O     O_R   0.421327 0.324762 0.783262 -0.306097
N24   N     N_R   0.601102 0.710242 0.244657 0.264641
O99   O     O_R   0.561569 0.737986 0.216974 -0.368777
O100  O     O_R   0.573875 0.660124 0.266955 -0.214630
N25   N     N_R   0.709065 0.602446 0.247209 0.258090
O101  O     O_R   0.706054 0.565039 0.279297 -0.246927
O102  O     O_R   0.675724 0.578792 0.216302 -0.304758
N26   N     N_R   0.289834 0.398925 0.754972 0.265004
O103  O     O_R   0.262329 0.438654 0.782639 -0.369315
O104  O     O_R   0.339776 0.425978 0.732497 -0.215358
N27   N     N_R   0.601787 0.290965 0.253462 0.261579
O105  O     O_R   0.566722 0.290447 0.286371 -0.273475
O106  O     O_R   0.575295 0.326954 0.224089 -0.264848
N28   N     N_R   0.398552 0.708958 0.747175 0.268806
O107  O     O_R   0.442261 0.733156 0.773885 -0.374053
O108  O     O_R   0.421925 0.661415 0.722079 -0.216765
N29   N     N_R   0.290932 0.397551 0.247203 0.258108
O109  O     O_R   0.293968 0.434957 0.279290 -0.246898
O110  O     O_R   0.324252 0.421202 0.216289 -0.304591
N30   N     N_R   0.710166 0.601075 0.754972 0.265003
O111  O     O_R   0.737672 0.561348 0.782639 -0.369310
O112  O     O_R   0.660223 0.574022 0.732498 -0.215357
N31   N     N_R   0.398213 0.709033 0.253478 0.261588
O113  O     O_R   0.433270 0.709564 0.286390 -0.273476
O114  O     O_R   0.424708 0.673026 0.224112 -0.264853
N32   N     N_R   0.601447 0.291043 0.747178 0.268804
O115  O     O_R   0.557737 0.266840 0.773887 -0.374040
O116  O     O_R   0.578073 0.338587 0.722084 -0.216757
O117  O     O_3   0.954860 0.622985 0.397261 -0.625091
C137  C     C_3   0.015246 0.668964 0.391726 0.012153
H17   H     H_    0.058035 0.641192 0.374234 0.151488
H18   H     H_    0.038732 0.685808 0.420270 0.151182
C138  C     C_3   0.990818 0.736803 0.369755 -0.302209
H19   H     H_    0.971376 0.721074 0.340269 0.257472
H20   H     H_    0.945171 0.762933 0.385667 0.231581
C139  C     C_3   0.052713 0.791204 0.365785 -0.771064
H21   H     H_    0.070505 0.810048 0.395014 0.236391
H22   H     H_    0.033955 0.838921 0.348757 0.316454
H23   H     H_    0.099549 0.766063 0.350468 0.268507
O118  O     O_3   0.055192 0.381120 0.602612 -0.632482
C140  C     C_3   0.131503 0.385289 0.606406 0.072795
H24   H     H_    0.148834 0.438900 0.618074 0.179513
H25   H     H_    0.158438 0.376819 0.577741 0.134846
C141  C     C_3   0.156685 0.325863 0.634442 -0.309646
H26   H     H_    0.126541 0.330920 0.662340 0.257314
H27   H     H_    0.144384 0.271850 0.621666 0.235534
C142  C     C_3   0.237868 0.330783 0.642730 -0.847511
H28   H     H_    0.269271 0.325965 0.615212 0.265091
H29   H     H_    0.254200 0.285975 0.662541 0.266818
H30   H     H_    0.250839 0.383233 0.657054 0.296891
O119  O     O_3   0.381017 0.054980 0.397386 -0.632496
C143  C     C_3   0.385078 0.131293 0.393597 0.072505
H31   H     H_    0.438696 0.148710 0.381969 0.179432
H32   H     H_    0.376486 0.158204 0.422257 0.134941
C144  C     C_3   0.325686 0.156385 0.365516 -0.309041
H33   H     H_    0.330881 0.126261 0.337620 0.257388
H34   H     H_    0.271654 0.143988 0.378244 0.235618
C145  C     C_3   0.330492 0.237575 0.357238 -0.848312
H35   H     H_    0.325549 0.268961 0.384755 0.265139
H36   H     H_    0.285704 0.253835 0.337395 0.266757
H37   H     H_    0.382959 0.250638 0.342953 0.296728
O120  O     O_3   0.623131 0.955224 0.602736 -0.625193
C146  C     C_3   0.668932 0.015746 0.608274 0.012212
H38   H     H_    0.641081 0.058367 0.625844 0.151718
H39   H     H_    0.685574 0.039399 0.579735 0.151124
C147  C     C_3   0.736963 0.991479 0.630128 -0.302111
H40   H     H_    0.721429 0.971768 0.659592 0.257889
H41   H     H_    0.763241 0.946054 0.614101 0.231405
C148  C     C_3   0.791104 0.053585 0.634164 -0.771546
H42   H     H_    0.809765 0.071662 0.604950 0.236499
H43   H     H_    0.838967 0.034926 0.651107 0.316180
H44   H     H_    0.765808 0.100206 0.649598 0.268452
O121  O     O_3   0.045140 0.377014 0.397261 -0.625093
C149  C     C_3   0.984753 0.331035 0.391726 0.012154
H45   H     H_    0.941967 0.358803 0.374232 0.151492
H46   H     H_    0.961263 0.314199 0.420271 0.151179
C150  C     C_3   0.009182 0.263189 0.369762 -0.302208
H47   H     H_    0.028627 0.278909 0.340275 0.257490
H48   H     H_    0.054828 0.237063 0.385677 0.231570
C151  C     C_3   0.947286 0.208787 0.365794 -0.771056
H49   H     H_    0.929494 0.189950 0.395025 0.236386
H50   H     H_    0.966044 0.161067 0.348769 0.316443
H51   H     H_    0.900450 0.233926 0.350477 0.268514
O122  O     O_3   0.944808 0.618880 0.602613 -0.632483
C152  C     C_3   0.868498 0.614712 0.606407 0.072796
H52   H     H_    0.851166 0.561102 0.618074 0.179513
H53   H     H_    0.841563 0.623183 0.577741 0.134846
C153  C     C_3   0.843316 0.674139 0.634443 -0.309644
H54   H     H_    0.873459 0.669081 0.662341 0.257313
H55   H     H_    0.855619 0.728151 0.621667 0.235535
C154  C     C_3   0.762132 0.669221 0.642729 -0.847520
H56   H     H_    0.730731 0.674041 0.615211 0.265092
H57   H     H_    0.745802 0.714030 0.662540 0.266818
H58   H     H_    0.749160 0.616771 0.657053 0.296889
O123  O     O_3   0.618987 0.945030 0.397386 -0.632501
C155  C     C_3   0.614935 0.868717 0.393595 0.072492
H59   H     H_    0.561320 0.851293 0.381967 0.179433
H60   H     H_    0.623532 0.841805 0.422255 0.134949
C156  C     C_3   0.674330 0.843633 0.365513 -0.309015
H61   H     H_    0.669122 0.873749 0.337616 0.257379
H62   H     H_    0.728361 0.856049 0.378238 0.235634
C157  C     C_3   0.669546 0.762440 0.357241 -0.848334
H63   H     H_    0.674508 0.731062 0.384760 0.265137
H64   H     H_    0.714332 0.746188 0.337395 0.266759
H65   H     H_    0.617077 0.749358 0.342963 0.296725
O124  O     O_3   0.376868 0.044771 0.602736 -0.625195
C158  C     C_3   0.331070 0.984246 0.608271 0.012204
H66   H     H_    0.358926 0.941623 0.625838 0.151719
H67   H     H_    0.314425 0.960599 0.579732 0.151129
C159  C     C_3   0.263043 0.008506 0.630131 -0.302102
H68   H     H_    0.278580 0.028216 0.659594 0.257885
H69   H     H_    0.236757 0.053930 0.614106 0.231409
C160  C     C_3   0.208907 0.946395 0.634167 -0.771563
H70   H     H_    0.190244 0.928317 0.604954 0.236505
H71   H     H_    0.161045 0.965049 0.651112 0.316186
H72   H     H_    0.234211 0.899777 0.649600 0.268440
O125  O     O_3   0.456473 0.123580 0.897273 -0.625582
C161  C     C_3   0.517493 0.168714 0.891718 0.012142
H73   H     H_    0.559652 0.140488 0.874002 0.152482
H74   H     H_    0.541550 0.184873 0.920241 0.151034
C162  C     C_3   0.493879 0.237190 0.870066 -0.301677
H75   H     H_    0.473399 0.222094 0.840688 0.258840
H76   H     H_    0.449146 0.264087 0.886361 0.231120
C163  C     C_3   0.556741 0.290382 0.865766 -0.773407
H77   H     H_    0.575743 0.308525 0.894905 0.236914
H78   H     H_    0.538474 0.338657 0.849041 0.315648
H79   H     H_    0.602630 0.264481 0.849985 0.268077
O126  O     O_3   0.554278 0.880708 0.102615 -0.632632
C164  C     C_3   0.630616 0.884425 0.106385 0.071256
H80   H     H_    0.648312 0.938034 0.117903 0.179168
H81   H     H_    0.657446 0.875489 0.077731 0.135461
C165  C     C_3   0.655447 0.825125 0.134583 -0.307400
H82   H     H_    0.625427 0.830731 0.162488 0.257167
H83   H     H_    0.642707 0.771064 0.121993 0.236648
C166  C     C_3   0.736692 0.829540 0.142786 -0.848394
H84   H     H_    0.767977 0.824211 0.115256 0.265133
H85   H     H_    0.752760 0.784819 0.162715 0.267102
H86   H     H_    0.750089 0.882039 0.156944 0.296227
O127  O     O_3   0.879654 0.551859 0.897365 -0.633116
C167  C     C_3   0.882075 0.628247 0.893604 0.068860
H87   H     H_    0.935529 0.646912 0.882304 0.178723
H88   H     H_    0.872215 0.654860 0.922230 0.136428
C168  C     C_3   0.822795 0.652039 0.865141 -0.304447
H89   H     H_    0.829685 0.622462 0.837184 0.256634
H90   H     H_    0.768783 0.637942 0.877369 0.237419
C169  C     C_3   0.825530 0.733452 0.857214 -0.853102
H91   H     H_    0.818944 0.764306 0.884806 0.265348
H92   H     H_    0.780848 0.748727 0.837080 0.266828
H93   H     H_    0.877988 0.748191 0.843401 0.295494
O128  O     O_3   0.124813 0.460098 0.102702 -0.626769
C170  C     C_3   0.168050 0.522474 0.108279 0.010875
H94   H     H_    0.138667 0.563537 0.126188 0.154550
H95   H     H_    0.183164 0.547300 0.079779 0.151111
C171  C     C_3   0.237475 0.500871 0.129658 -0.299166
H96   H     H_    0.223312 0.478741 0.158821 0.261242
H97   H     H_    0.266088 0.457849 0.112884 0.231166
C172  C     C_3   0.288092 0.565669 0.134601 -0.777993
H98   H     H_    0.304960 0.586799 0.105665 0.238230
H99   H     H_    0.337347 0.548636 0.150872 0.315028
H100  H     H_    0.260570 0.609668 0.151135 0.266270
O129  O     O_3   0.543540 0.876425 0.897271 -0.625576
C173  C     C_3   0.482529 0.831276 0.891722 0.012091
H101  H     H_    0.440335 0.859506 0.874031 0.152459
H102  H     H_    0.458517 0.815075 0.920248 0.151056
C174  C     C_3   0.506142 0.762835 0.870036 -0.301622
H103  H     H_    0.526551 0.777973 0.840651 0.258787
H104  H     H_    0.550925 0.735951 0.886296 0.231177
C175  C     C_3   0.443305 0.709607 0.865758 -0.773390
H105  H     H_    0.424376 0.691422 0.894903 0.236909
H106  H     H_    0.461569 0.661360 0.849008 0.315699
H107  H     H_    0.397367 0.735493 0.850012 0.268041
O130  O     O_3   0.445728 0.119293 0.102616 -0.632621
C176  C     C_3   0.369389 0.115579 0.106383 0.071219
H108  H     H_    0.351689 0.061967 0.117897 0.179153
H109  H     H_    0.342562 0.124526 0.077730 0.135472
C177  C     C_3   0.344561 0.174871 0.134587 -0.307335
H110  H     H_    0.374574 0.169248 0.162493 0.257158
H111  H     H_    0.357314 0.228936 0.122005 0.236697
C178  C     C_3   0.263314 0.170467 0.142783 -0.848357
H112  H     H_    0.232036 0.175820 0.115252 0.265125
H113  H     H_    0.247250 0.215179 0.162719 0.267118
H114  H     H_    0.249902 0.117961 0.156931 0.296212
O131  O     O_3   0.120349 0.448160 0.897365 -0.633119
C179  C     C_3   0.117938 0.371771 0.893607 0.068845
H115  H     H_    0.064485 0.353095 0.882312 0.178710
H116  H     H_    0.127812 0.345165 0.922234 0.136442
C180  C     C_3   0.177215 0.347984 0.865141 -0.304417
H117  H     H_    0.170309 0.377552 0.837183 0.256628
H118  H     H_    0.231228 0.362096 0.877363 0.237432
C181  C     C_3   0.174495 0.266569 0.857220 -0.853125
H119  H     H_    0.181099 0.235723 0.884813 0.265346
H120  H     H_    0.219172 0.251298 0.837082 0.266831
H121  H     H_    0.122034 0.251814 0.843414 0.295484
O132  O     O_3   0.875249 0.540063 0.102710 -0.626721
C182  C     C_3   0.831863 0.477793 0.108280 0.010747
H122  H     H_    0.861198 0.436576 0.126111 0.154376
H123  H     H_    0.816558 0.453119 0.079771 0.151188
C183  C     C_3   0.762602 0.499537 0.129773 -0.299092
H124  H     H_    0.776962 0.521325 0.158982 0.260949
H125  H     H_    0.734154 0.542850 0.113140 0.231406
C184  C     C_3   0.711673 0.434946 0.134586 -0.777673
H126  H     H_    0.694549 0.414238 0.105607 0.238163
H127  H     H_    0.662588 0.452061 0.150981 0.315257
H128  H     H_    0.739041 0.390629 0.150939 0.266254

loop_
_geom_bond_atom_site_label_1
_geom_bond_atom_site_label_2
_geom_bond_distance
_ccdc_geom_bond_type
C67   N3    1.427759 S    
C68   C125  1.405852 A    
C148  H42   1.110826 S    
C8    C100  1.403526 A    
C140  H25   1.112325 S    
O127  C167  1.414765 S    
C156  C157  1.526019 S    
O20   C48   1.281697 A    
C93   N29   1.427606 S    
Zn12  O9    1.943500 S    
C84   N20   1.435754 S    
C59   C125  1.457519 S    
C66   C79   1.399938 A    
C153  H54   1.110344 S    
O19   C47   1.280504 A    
O42   C64   1.284496 A    
C74   N10   1.435678 S    
C165  H82   1.110283 S    
Zn1   O16   1.943492 S    
C16   O132  1.385348 S    
Zn2   O15   1.943492 S    
N5    O62   1.300832 A    
H4    C28   1.083069 S    
C5    C17   1.402951 A    
C12   C24   1.403106 A    
O122  C152  1.414805 S    
C14   C22   1.406094 A    
C63   C121  1.457519 S    
C56   C114  1.465929 S    
N12   O76   1.301079 A    
C112  C136  1.414361 A    
C54   C120  1.467867 S    
N7    O65   1.300033 A    
C79   C114  1.407950 A    
C153  H55   1.111610 S    
C139  H21   1.110799 S    
Zn4   O46   1.948664 S    
C91   N27   1.430725 S    
C83   C116  1.407690 A    
N23   O98   1.301066 A    
C58   C124  1.465784 S    
C153  C154  1.526017 S    
C78   N14   1.435677 S    
N9    O69   1.300050 A    
Zn13  O35   1.944775 S    
C71   C74   1.400056 A    
C38   C110  1.403768 A    
C6    C18   1.406185 A    
C60   C126  1.467983 S    
C151  H49   1.110801 S    
N10   O72   1.300908 A    
C166  H86   1.111006 S    
O12   C44   1.281700 A    
N11   O73   1.300753 A    
C143  H31   1.113653 S    
C28   C100  1.402578 A    
C83   C94   1.399967 A    
C152  C153  1.529002 S    
C76   C117  1.408752 A    
C142  H29   1.110610 S    
C10   C22   1.406098 A    
C157  H64   1.110620 S    
N32   O115  1.299632 A    
C68   C77   1.400014 A    
C88   C119  1.405876 A    
C94   N30   1.435680 S    
C131  C132  1.409803 A    
C180  H118  1.111625 S    
C69   C124  1.407927 A    
N3    O57   1.300033 A    
Zn2   O48   1.944774 S    
Zn2   O2    1.953054 S    
C73   C120  1.407700 A    
C141  H26   1.110348 S    
N4    O60   1.300894 A    
O22   C50   1.284550 A    
C81   N17   1.430669 S    
H8    C32   1.083070 S    
C179  C180  1.528796 S    
Zn1   O1    1.953058 S    
N26   O103  1.300874 A    
C178  H113  1.110610 S    
C148  H44   1.111039 S    
H13   C37   1.083076 S    
N17   O86   1.300848 A    
C161  H74   1.114927 S    
C107  C135  1.414847 A    
O123  C155  1.414811 S    
C10   C110  1.404594 A    
C180  H117  1.110234 S    
O9    C41   1.281750 A    
C80   C113  1.408748 A    
Zn5   O51   1.944775 S    
N15   O82   1.300839 A    
N22   O95   1.299553 A    
C137  C138  1.527042 S    
H5    C29   1.083059 S    
C165  C166  1.526034 S    
C20   C42   1.448586 S    
Zn15  O2    1.953142 S    
C155  H60   1.112319 S    
Zn16  O5    1.943496 S    
C18   C44   1.452579 S    
Zn12  O30   1.948664 S    
C36   C108  1.402692 A    
H11   C35   1.082560 S    
O38   C60   1.284487 A    
O126  C164  1.414797 S    
C75   N11   1.430650 S    
O26   C54   1.284553 A    
C3    C19   1.406178 A    
C150  H47   1.111685 S    
C89   N25   1.427616 S    
C139  H23   1.110961 S    
C85   C92   1.399908 A    
C92   N28   1.433881 S    
H3    C27   1.082509 S    
C172  H98   1.110876 S    
O124  C158  1.413325 S    
C177  H110  1.110281 S    
C142  H28   1.110679 S    
C182  C183  1.526951 S    
Zn9   O8    1.943492 S    
C138  H19   1.111684 S    
Zn6   O2    1.953061 S    
Zn10  O7    1.943492 S    
C8    O124  1.385382 S    
C162  H75   1.111660 S    
C81   C114  1.407939 A    
C151  H51   1.110959 S    
Zn14  O3    1.953061 S    
C173  H102  1.114920 S    
C84   C115  1.405873 A    
C146  H38   1.114529 S    
C65   C128  1.407928 A    
C111  C135  1.414848 A    
C160  H70   1.110823 S    
C146  C147  1.527048 S    
C168  H90   1.111622 S    
C176  H108  1.113740 S    
O33   C61   1.282825 A    
Zn10  O32   1.944774 S    
N1    O53   1.300767 A    
O48   C50   1.284543 A    
C70   N6    1.433907 S    
C163  H77   1.110850 S    
C95   N31   1.430729 S    
C170  H95   1.114996 S    
C173  C174  1.527032 S    
C4    C104  1.403528 A    
C149  H45   1.114555 S    
C76   N12   1.433833 S    
C11   O127  1.386355 S    
C17   C43   1.448586 S    
N6    O63   1.299644 A    
C183  C184  1.526728 S    
C7    O123  1.386521 S    
N13   O77   1.300046 A    
C87   C120  1.407693 A    
C19   C41   1.452589 S    
C137  H18   1.114894 S    
C85   C118  1.407938 A    
C145  H36   1.110618 S    
C168  H89   1.110236 S    
C175  H105  1.110846 S    
N29   O110  1.301090 A    
C89   C122  1.407598 A    
Zn7   O3    1.953142 S    
N5    O61   1.300768 A    
Zn1   O47   1.944772 S    
C85   N21   1.430669 S    
C70   C123  1.408738 A    
Zn3   O45   1.948666 S    
O43   C61   1.282855 A    
C49   C115  1.457415 S    
C74   C119  1.405859 A    
O41   C63   1.281591 A    
C40   C112  1.402691 A    
C183  H124  1.111583 S    
O23   C51   1.282838 A    
C2    C18   1.406187 A    
C164  H81   1.112337 S    
N30   O112  1.300902 A    
Zn15  O26   1.944735 S    
C68   N4    1.435631 S    
O45   C51   1.282924 A    
O14   C46   1.280572 A    
N28   O108  1.301089 A    
H16   C40   1.083091 S    
C179  H115  1.113924 S    
C150  C151  1.526657 S    
C1    C101  1.403525 A    
N18   O87   1.299557 A    
C154  H58   1.110980 S    
C23   C45   1.452442 S    
C137  H17   1.114558 S    
C133  C134  1.409772 A    
C80   N16   1.433826 S    
C95   C128  1.407877 A    
C5    O121  1.385346 S    
C21   C47   1.448576 S    
C22   C48   1.452586 S    
C93   C126  1.407590 A    
C172  H100  1.111257 S    
C86   N22   1.433751 S    
C33   C38   1.389494 A    
C7    C99   1.404598 A    
N25   O101  1.300024 A    
Zn15  O33   1.948661 S    
C31   C103  1.403775 A    
N8    O68   1.300895 A    
C182  H122  1.114373 S    
C138  C139  1.526656 S    
C29   C101  1.402561 A    
Zn12  O21   1.944735 S    
H12   C36   1.083081 S    
C27   C99   1.403776 A    
N7    O66   1.301045 A    
C65   C80   1.399906 A    
Zn14  O23   1.948702 S    
C162  C163  1.526644 S    
C184  H127  1.110438 S    
N16   O84   1.301074 A    
C25   C30   1.389402 A    
N3    O58   1.301046 A    
Zn2   O43   1.948704 S    
N29   O109  1.300026 A    
C144  H34   1.111619 S    
C159  H69   1.111813 S    
O13   C45   1.281701 A    
C160  H72   1.111040 S    
C167  H87   1.113919 S    
C145  H37   1.111001 S    
C176  C177  1.528919 S    
C25   C97   1.402563 A    
Zn5   O20   1.943489 S    
C1    O117  1.385343 S    
C161  H73   1.114464 S    
C66   N2    1.433910 S    
Zn6   O19   1.943489 S    
C163  H79   1.111113 S    
O118  C140  1.414806 S    
C156  H62   1.111623 S    
Zn8   O13   1.943496 S    
C167  C168  1.528794 S    
O7    C43   1.280501 A    
N21   O94   1.300845 A    
C69   C76   1.399913 A    
N22   O96   1.301089 A    
C70   C75   1.399937 A    
C6    C98   1.404595 A    
Zn9   O31   1.944772 S    
H10   C34   1.082527 S    
C175  H107  1.111106 S    
Zn16  O25   1.944733 S    
C12   C112  1.403589 A    
C101  C129  1.414395 A    
C14   C106  1.404594 A    
C181  H119  1.110691 S    
Zn4   O37   1.944735 S    
C177  H111  1.111619 S    
O129  C173  1.413355 S    
N20   O91   1.300944 A    
C97   C129  1.414396 A    
Zn15  O6    1.943496 S    
C171  H96   1.111595 S    
C73   N9    1.427817 S    
Zn16  O1    1.953141 S    
C61   C127  1.466020 S    
Zn16  O34   1.948662 S    
C67   C126  1.407704 A    
O36   C64   1.284657 A    
N19   O89   1.300049 A    
C141  C142  1.526017 S    
C33   C105  1.402610 A    
N2    O55   1.299648 A    
O27   C55   1.282838 A    
C169  H91   1.110691 S    
C104  C132  1.414400 A    
C154  H56   1.110675 S    
C166  H85   1.110609 S    
C129  C130  1.409803 A    
N30   O111  1.300877 A    
O25   C53   1.281427 A    
C90   N26   1.435682 S    
O21   C49   1.281422 A    
C143  H32   1.112322 S    
C87   N23   1.427775 S    
C152  H53   1.112327 S    
C158  C159  1.527046 S    
C100  C132  1.414402 A    
N32   O116  1.301081 A    
C84   C93   1.400007 A    
C15   C107  1.404616 A    
Zn10  O27   1.948704 S    
C16   C108  1.403622 A    
Zn11  O2    1.953135 S    
N24   O99   1.300941 A    
C37   C109  1.402610 A    
C174  H104  1.111836 S    
O128  C170  1.413414 S    
C3    C103  1.404599 A    
C105  C133  1.414394 A    
Zn7   O49   1.948661 S    
C27   C32   1.389425 A    
C14   O130  1.386461 S    
C77   C116  1.407703 A    
C36   C39   1.389666 A    
C64   C122  1.467980 S    
N26   O104  1.300904 A    
Zn13  O24   1.948700 S    
C71   N7    1.427754 S    
C148  H43   1.110393 S    
N17   O85   1.300754 A    
C99   C131  1.414868 A    
C39   C111  1.403745 A    
C1    C17   1.402951 A    
C91   C124  1.407870 A    
C106  C134  1.414853 A    
Zn1   O44   1.948705 S    
O35   C63   1.281373 A    
C86   C91   1.399822 A    
C87   C90   1.399968 A    
C51   C117  1.466161 S    
C135  C136  1.409762 A    
N14   O79   1.300949 A    
C75   C118  1.407951 A    
C53   C119  1.457418 S    
C78   C115  1.405861 A    
O51   C53   1.281480 A    
C109  C133  1.414394 A    
C170  H94   1.114326 S    
C57   C123  1.466021 S    
N12   O75   1.299649 A    
O49   C55   1.282927 A    
Zn13  O12   1.943489 S    
O50   C56   1.283222 A    
O119  C143  1.414814 S    
C67   C78   1.400059 A    
O120  C146  1.413324 S    
N8    O67   1.300953 A    
C69   N5    1.430691 S    
Zn6   O39   1.948702 S    
C8    C20   1.402989 A    
C10   O126  1.386463 S    
C72   C121  1.405853 A    
O16   C48   1.281702 A    
C182  H123  1.114999 S    
O39   C57   1.282856 A    
O15   C47   1.280502 A    
N9    O70   1.301046 A    
C11   C111  1.404621 A    
Zn5   O40   1.948700 S    
C9    C109  1.403529 A    
N10   O71   1.300943 A    
O30   C58   1.283204 A    
C9    O125  1.385405 S    
C12   O128  1.385379 S    
H6    C30   1.082501 S    
C82   N18   1.433750 S    
C179  H116  1.112382 S    
Zn8   O50   1.948662 S    
O125  C161  1.413354 S    
C142  H30   1.110980 S    
C62   C128  1.465780 S    
C158  H66   1.114531 S    
C146  H39   1.114892 S    
C139  H22   1.110388 S    
C157  H63   1.110684 S    
C88   N24   1.435753 S    
Zn4   O4    1.953131 S    
O24   C52   1.283227 A    
N1    O54   1.300833 A    
O11   C43   1.280499 A    
C66   C127  1.408738 A    
C163  H78   1.110400 S    
C82   C113  1.408796 A    
Zn11  O10   1.943500 S    
C180  C181  1.526057 S    
O52   C54   1.284549 A    
C34   C106  1.403763 A    
C144  H33   1.110318 S    
C149  H46   1.114896 S    
O18   C46   1.280598 A    
C3    O119  1.386519 S    
C165  H83   1.111617 S    
N6    O64   1.301085 A    
C50   C116  1.467864 S    
N4    O59   1.300957 A    
O46   C52   1.283220 A    
N11   O74   1.300837 A    
Zn9   O28   1.948705 S    
C4    C20   1.402991 A    
Zn3   O18   1.943500 S    
C178  H114  1.111010 S    
O130  C176  1.414797 S    
C26   C98   1.403780 A    
C175  H106  1.110405 S    
O132  C182  1.413359 S    
C13   C21   1.403036 A    
C30   C102  1.403779 A    
Zn7   O14   1.943496 S    
C149  C150  1.527043 S    
N31   O113  1.300772 A    
Zn7   O42   1.944735 S    
C174  C175  1.526653 S    
C140  H24   1.113622 S    
O131  C179  1.414761 S    
C71   C122  1.407702 A    
H1    C25   1.083061 S    
C155  H59   1.113651 S    
C157  H65   1.111004 S    
C52   C118  1.465927 S    
C164  H80   1.113736 S    
C110  C134  1.414852 A    
C35   C40   1.389663 A    
C5    C97   1.403521 A    
C32   C104  1.402577 A    
Zn3   O3    1.953135 S    
Zn12  O1    1.953131 S    
H15   C39   1.082564 S    
C92   C123  1.408744 A    
O17   C45   1.281695 A    
C72   C73   1.400013 A    
N19   O90   1.301064 A    
Zn11  O29   1.948666 S    
C150  H48   1.111750 S    
C154  H57   1.110610 S    
O8    C44   1.281702 A    
C172  H99   1.110404 S    
C4    O120  1.385383 S    
C86   C117  1.408799 A    
H7    C31   1.082509 S    
C9    C21   1.403035 A    
Zn14  O11   1.943489 S    
C11   C23   1.405868 A    
C138  H20   1.111752 S    
C161  C162  1.527030 S    
Zn4   O17   1.943500 S    
C90   C121  1.405939 A    
C35   C107  1.403746 A    
O10   C42   1.280550 A    
C162  H76   1.111846 S    
C184  H126  1.110813 S    
N24   O100  1.300903 A    
O37   C59   1.281585 A    
N25   O102  1.301087 A    
C173  H101  1.114469 S    
C159  C160  1.526640 S    
C174  H103  1.111652 S    
C65   N1    1.430693 S    
C13   O129  1.385405 S    
C160  H71   1.110393 S    
C167  H88   1.112385 S    
C168  C169  1.526060 S    
C176  H109  1.112336 S    
C103  C131  1.414867 A    
N14   O80   1.300906 A    
C170  C171  1.526934 S    
C83   N19   1.427775 S    
C166  H84   1.110684 S    
N27   O105  1.300770 A    
C177  C178  1.526030 S    
C181  H121  1.111019 S    
N21   O93   1.300758 A    
C2    C102  1.404594 A    
N31   O114  1.300839 A    
C94   C125  1.405941 A    
N13   O78   1.301048 A    
C34   C37   1.389494 A    
C96   C127  1.408746 A    
C183  H125  1.111760 S    
Zn8   O41   1.944733 S    
C24   C46   1.448706 S    
C151  H50   1.110389 S    
Zn11  O22   1.944733 S    
O5    C41   1.281753 A    
C178  H112  1.110686 S    
H2    C26   1.082502 S    
Zn13  O4    1.953062 S    
C143  C144  1.528991 S    
C181  H120  1.110607 S    
N27   O106  1.300842 A    
C26   C29   1.389402 A    
Zn14  O36   1.944773 S    
C72   N8    1.435632 S    
O29   C57   1.282825 A    
N18   O88   1.301083 A    
C147  H40   1.111672 S    
C147  H41   1.111813 S    
N23   O97   1.300050 A    
C140  C141  1.529001 S    
N20   O92   1.300900 A    
C15   O131  1.386356 S    
C108  C136  1.414368 A    
C171  H97   1.111847 S    
C155  C156  1.528993 S    
C164  C165  1.528922 S    
O44   C62   1.283169 A    
C88   C89   1.400014 A    
C77   N13   1.427819 S    
Zn5   O1    1.953062 S    
N28   O107  1.299623 A    
Zn9   O4    1.953058 S    
H14   C38   1.082527 S    
Zn10  O3    1.953054 S    
O6    C42   1.280550 A    
Zn8   O4    1.953141 S    
N2    O56   1.301082 A    
C169  H92   1.110606 S    
C55   C113  1.466162 S    
C147  C148  1.526641 S    
O121  C149  1.413297 S    
C7    C19   1.406178 A    
C171  C172  1.526677 S    
C6    O122  1.386527 S    
O47   C49   1.281472 A    
O34   C62   1.283205 A    
C152  H52   1.113623 S    
C158  H67   1.114888 S    
C145  H35   1.110682 S    
C96   N32   1.433886 S    
N15   O81   1.300750 A    
C102  C130  1.414858 A    
H9    C33   1.083077 S    
C15   C23   1.405861 A    
Zn3   O38   1.944733 S    
C13   C105  1.403537 A    
C16   C24   1.403097 A    
C2    O118  1.386527 S    
O117  C137  1.413294 S    
C184  H128  1.111112 S    
C169  H93   1.111019 S    
N16   O83   1.299652 A    
O40   C58   1.283168 A    
C141  H27   1.111609 S    
O28   C56   1.283227 A    
C144  C145  1.526023 S    
C79   N15   1.430650 S    
C98   C130  1.414861 A    
C81   C96   1.399910 A    
Zn6   O52   1.944773 S    
C159  H68   1.111672 S    
C82   C95   1.399819 A    
O31   C59   1.281370 A    
O32   C60   1.284659 A    
C28   C31   1.389426 A    
C156  H61   1.110318 S    
