data_mof_unit_48126.cif
_audit_creation_date              2012-12-10T18:20:33-0500
_audit_creation_method            fapswitch 2.2
_symmetry_space_group_name_H-M    P1
_symmetry_Int_Tables_number       1
_space_group_crystal_system       triclinic
_cell_length_a                    14.067878
_cell_length_b                    13.595004
_cell_length_c                    14.922048
_cell_angle_alpha                 89.259761
_cell_angle_beta                  89.142078
_cell_angle_gamma                 84.569041
_cell_volume                      2840.56499723

loop_
_atom_site_label
_atom_site_type_symbol
_atom_type_description
_atom_site_fract_x
_atom_site_fract_y
_atom_site_fract_z
_atom_type_partial_charge
C1    C     C_R   0.500615 0.498589 0.327090 0.931893
C2    C     C_R   0.499442 0.499375 0.672719 0.934985
C3    C     C_R   0.496941 0.497658 0.952852 -0.070354
C4    C     C_R   0.496475 0.497163 0.046429 -0.064714
C5    C     C_R   0.502450 0.406828 0.906570 0.066265
C6    C     C_R   0.494001 0.588035 0.092393 0.058914
C7    C     C_R   0.497445 0.678141 0.952176 0.079925
C8    C     C_R   0.509754 0.315611 0.047129 0.059965
C9    C     C_R   0.477808 0.678218 0.044372 0.079178
C10   C     C_R   0.492461 0.317599 0.954592 0.083596
C11   C     C_R   0.803225 0.424413 0.542101 -0.088199
C12   C     C_R   0.198610 0.555709 0.437806 -0.086886
C13   C     C_R   0.796189 0.570658 0.453721 0.263179
C14   C     C_R   0.204578 0.437529 0.556354 0.277888
C15   C     C_R   0.895951 0.555303 0.434344 -0.027225
C16   C     C_R   0.107641 0.418843 0.541239 -0.045244
C17   C     C_R   0.951291 0.485648 0.486533 -0.033899
C18   C     C_R   0.052279 0.485709 0.486043 -0.028992
C19   C     C_R   0.905183 0.417999 0.540808 -0.011210
C20   C     C_R   0.097760 0.554641 0.432462 -0.003455
C21   C     C_R   0.942346 0.607983 0.365656 0.096375
C22   C     C_R   0.063666 0.337300 0.579807 0.096082
C23   C     C_R   0.515845 0.314616 0.502046 0.901702
C24   C     C_R   0.484102 0.685407 0.498283 0.906149
C25   C     C_R   0.042104 0.617060 0.372251 0.178021
C26   C     C_R   0.961847 0.342959 0.588049 0.192448
C27   C     C_1   0.473921 0.788134 0.489231 -0.223290
C28   C     C_1   0.525505 0.212165 0.513518 -0.221655
C29   C     C_2   0.468158 0.978956 0.476568 0.194750
C30   C     C_2   0.527161 0.022082 0.530841 0.201119
C31   C     C_1   0.529870 0.125405 0.523586 0.006041
C32   C     C_1   0.467946 0.875217 0.481530 0.013793
C33   C     C_R   0.520692 0.409184 0.813951 0.083515
C34   C     C_R   0.513810 0.584633 0.184128 0.088911
C35   C     C_R   0.498266 0.498680 0.768089 -0.086201
C36   C     C_R   0.501060 0.497134 0.231340 -0.077648
C37   C     C_R   0.474900 0.587665 0.812885 0.082218
C38   C     C_R   0.483029 0.410144 0.187611 0.077189
C39   C     C_R   0.491809 0.589137 0.905211 0.058602
C40   C     C_R   0.498338 0.406088 0.094303 0.060364
H1    H     H_    0.765197 0.370460 0.577967 0.158970
H2    H     H_    0.237165 0.601739 0.393440 0.161670
N1    N     N_R   0.750030 0.500040 0.500070 -0.106542
N2    N     N_R   0.249970 0.499960 0.499930 -0.104044
O1    O     O_R   0.580280 0.500020 0.367860 -0.621311
O2    O     O_R   0.419720 0.499980 0.632140 -0.629654
O3    O     O_R   0.419730 0.500030 0.367840 -0.626614
O4    O     O_R   0.580270 0.499970 0.632160 -0.619144
O5    O     O_R   0.591830 0.359650 0.500030 -0.618671
O6    O     O_R   0.408170 0.640350 0.499970 -0.608882
O7    O     O_R   0.431280 0.359660 0.500010 -0.613722
O8    O     O_R   0.568720 0.640340 0.499990 -0.616681
Zn1   Zn    Zn3+2 0.607200 0.499990 0.500020 0.930604
Zn2   Zn    Zn3+2 0.392800 0.500010 0.499980 0.930474
C41   C     C_3   0.589407 0.965930 0.599741 -0.941792
H3    H     H_    0.631443 0.016468 0.637460 0.245634
H4    H     H_    0.544279 0.928164 0.648488 0.240242
H5    H     H_    0.640162 0.910114 0.566123 0.245099
C42   C     C_3   0.407248 0.034853 0.406504 -0.939624
H6    H     H_    0.359870 0.985715 0.373519 0.245830
H7    H     H_    0.361478 0.096445 0.437796 0.245393
H8    H     H_    0.453765 0.065318 0.354331 0.243838
C43   C     C_3   0.570693 0.321213 0.765137 -0.922955
H9    H     H_    0.625236 0.344937 0.717219 0.250660
H10   H     H_    0.612270 0.270447 0.811945 0.233709
H11   H     H_    0.518262 0.282071 0.727749 0.238181
C44   C     C_3   0.557172 0.668095 0.230610 -0.954934
H12   H     H_    0.624681 0.638323 0.262004 0.260209
H13   H     H_    0.577451 0.726628 0.183716 0.236790
H14   H     H_    0.507619 0.701059 0.283071 0.233870
C45   C     C_3   0.423110 0.674762 0.763179 -0.933674
H15   H     H_    0.360637 0.650266 0.728054 0.259083
H16   H     H_    0.393224 0.733936 0.808748 0.236289
H17   H     H_    0.471570 0.705518 0.712877 0.231224
C46   C     C_3   0.438422 0.328833 0.239747 -0.920195
H18   H     H_    0.374279 0.360419 0.277267 0.265513
H19   H     H_    0.411459 0.273030 0.195760 0.239213
H20   H     H_    0.490279 0.292310 0.287918 0.227638
C47   C     C_3   0.538338 0.768065 0.909459 -0.428897
C48   C     C_3   0.632677 0.788586 0.953200 -0.343303
C49   C     C_3   0.671618 0.880319 0.912100 -0.894436
H21   H     H_    0.685028 0.870412 0.839069 0.265945
H22   H     H_    0.620043 0.946346 0.922810 0.263530
H23   H     H_    0.739934 0.892887 0.944435 0.252045
H24   H     H_    0.622822 0.800087 0.026353 0.215587
H25   H     H_    0.686307 0.723969 0.943427 0.229077
H26   H     H_    0.555820 0.756219 0.837635 0.228092
H27   H     H_    0.485845 0.834118 0.914457 0.202865
C50   C     C_3   0.555494 0.220423 0.090691 -0.430912
C51   C     C_3   0.644499 0.176659 0.038632 -0.345429
C52   C     C_3   0.691415 0.084690 0.085882 -0.895211
H28   H     H_    0.714438 0.103244 0.154007 0.263414
H29   H     H_    0.640703 0.026937 0.091328 0.263892
H30   H     H_    0.755176 0.054727 0.046747 0.251209
H31   H     H_    0.625430 0.155500 0.970127 0.218576
H32   H     H_    0.696969 0.232725 0.032685 0.227376
H33   H     H_    0.580576 0.235149 0.158835 0.231334
H34   H     H_    0.502908 0.164744 0.097391 0.191358
C53   C     C_3   0.424991 0.770086 0.086245 -0.431103
C54   C     C_3   0.326804 0.794888 0.043424 -0.342575
C55   C     C_3   0.274060 0.886806 0.085118 -0.892204
H35   H     H_    0.262457 0.874881 0.158109 0.263851
H36   H     H_    0.315720 0.951570 0.074653 0.258960
H37   H     H_    0.203484 0.902775 0.053031 0.250765
H38   H     H_    0.334358 0.808183 0.970235 0.218191
H39   H     H_    0.283063 0.731553 0.053498 0.225908
H40   H     H_    0.410508 0.758528 0.158560 0.228764
H41   H     H_    0.468064 0.834137 0.079470 0.202551
C56   C     C_3   0.448099 0.230515 0.912835 -0.411422
C57   C     C_3   0.351145 0.263041 0.870180 -0.331130
C58   C     C_3   0.307803 0.175765 0.828702 -0.903442
H42   H     H_    0.355320 0.143126 0.774511 0.266551
H43   H     H_    0.297032 0.118289 0.880491 0.263108
H44   H     H_    0.237551 0.201432 0.799477 0.246069
H45   H     H_    0.301174 0.296384 0.922265 0.221245
H46   H     H_    0.358891 0.319306 0.816725 0.235801
H47   H     H_    0.496352 0.190512 0.863746 0.204371
H48   H     H_    0.434418 0.174337 0.964740 0.198634
C59   C     C_3   0.747824 0.673487 0.443114 -0.827236
H49   H     H_    0.798637 0.728681 0.426545 0.199622
H50   H     H_    0.692520 0.676283 0.391160 0.248550
H51   H     H_    0.718268 0.698821 0.509007 0.251132
C60   C     C_3   0.250689 0.406521 0.644179 -0.867047
H52   H     H_    0.202857 0.369482 0.690525 0.204645
H53   H     H_    0.316756 0.356753 0.633302 0.259872
H54   H     H_    0.265109 0.473636 0.680950 0.253391
C61   C     C_3   0.890683 0.637759 0.278049 -0.428376
C62   C     C_3   0.841290 0.552231 0.238177 -0.337452
C63   C     C_3   0.803071 0.578523 0.144695 -0.890451
H55   H     H_    0.754661 0.647914 0.146255 0.264943
H56   H     H_    0.863033 0.588170 0.097111 0.258830
H57   H     H_    0.762532 0.518144 0.120327 0.259365
H58   H     H_    0.892978 0.485302 0.233520 0.224853
H59   H     H_    0.780469 0.534089 0.281464 0.236474
H60   H     H_    0.838533 0.703245 0.286709 0.199639
H61   H     H_    0.942180 0.658631 0.225848 0.222913
C64   C     C_3   0.123764 0.239438 0.598137 -0.423900
C65   C     C_3   0.097465 0.156841 0.536308 -0.338950
C66   C     C_3   0.156861 0.059545 0.557124 -0.879262
H62   H     H_    0.234247 0.068393 0.549738 0.266557
H63   H     H_    0.141811 0.034677 0.626670 0.263039
H64   H     H_    0.138413 0.001954 0.509998 0.252934
H65   H     H_    0.020978 0.144519 0.543600 0.239275
H66   H     H_    0.110850 0.178301 0.465397 0.222128
H67   H     H_    0.200490 0.245785 0.584301 0.218726
H68   H     H_    0.117714 0.217536 0.669725 0.196634
C67   C     C_3   0.088099 0.696024 0.318856 -0.972974
H69   H     H_    0.132835 0.736963 0.363236 0.242664
H70   H     H_    0.132960 0.661687 0.263678 0.246397
H71   H     H_    0.035038 0.753424 0.291046 0.241804
C68   C     C_3   0.913071 0.270984 0.647540 -0.962213
H72   H     H_    0.865884 0.312627 0.697114 0.241556
H73   H     H_    0.869576 0.225379 0.606167 0.236082
H74   H     H_    0.963023 0.220508 0.686931 0.251043

loop_
_geom_bond_atom_site_label_1
_geom_bond_atom_site_label_2
_ccdc_geom_bond_type
C2    C35   S    
C24   O8    A    
C41   H3    S    
C43   H10   S    
C55   H35   S    
C67   H69   S    
C24   C27   S    
C62   C63   S    
C6    C9    A    
C47   H26   S    
C49   H21   S    
C56   H47   S    
C60   H52   S    
C37   C45   S    
C2    O2    A    
C53   H41   S    
C22   C64   S    
C11   C19   A    
C54   H38   S    
O6    Zn2   S    
C7    C47   S    
C64   H67   S    
C26   C68   S    
C67   H70   S    
C61   H60   S    
C29   C32   S    
C65   H65   S    
C30   C31   S    
C66   H64   S    
C60   H53   S    
C20   C25   A    
C10   C56   S    
C15   C17   A    
C68   H74   S    
C25   C67   S    
C19   C26   A    
C57   C58   S    
C48   H25   S    
C49   H22   S    
N1    Zn1   S    
C4    C40   A    
C5    C33   A    
C12   H2    S    
C68   H72   S    
C11   N1    A    
C21   C61   S    
C18   C20   A    
C63   H57   S    
C43   H11   S    
O1    Zn1   S    
C42   H6    S    
C55   H36   S    
C12   C20   A    
C48   H24   S    
C47   H27   S    
C13   C59   S    
C56   H48   S    
C38   C46   S    
C59   H50   S    
C24   O6    A    
O4    Zn1   S    
C66   H62   S    
C42   H7    S    
C44   H12   S    
C29   C42   S    
C64   H68   S    
C51   H31   S    
C67   H71   S    
C61   H61   S    
C4    C6    A    
C52   H28   S    
C45   H16   S    
C1    O3    A    
C60   H54   S    
C2    O4    A    
C43   H9    S    
C6    C34   A    
C50   H33   S    
C44   H13   S    
C46   H18   S    
C29   C30   D    
C62   H59   S    
C52   H29   S    
C23   O7    A    
C53   C54   S    
C33   C43   S    
O2    Zn2   S    
C17   C18   A    
C58   H43   S    
C23   C28   S    
C46   H19   S    
O3    Zn2   S    
C16   C18   A    
C55   H37   S    
C41   H4    S    
C14   C16   A    
C17   C19   A    
C61   C62   S    
C57   H46   S    
C13   N1    A    
C49   H23   S    
O8    Zn1   S    
C14   N2    A    
C63   H55   S    
C64   C65   S    
C59   H51   S    
C7    C9    A    
C21   C25   A    
C42   H8    S    
C16   C22   A    
C14   C60   S    
C58   H42   S    
C35   C37   A    
C27   C32   T    
C28   C31   T    
C48   C49   S    
C3    C5    A    
C34   C44   S    
C45   H17   S    
C59   H49   S    
C51   H32   S    
C53   H40   S    
C30   C41   S    
C9    C53   S    
C54   H39   S    
C50   H34   S    
O7    Zn2   S    
C44   H14   S    
C13   C15   A    
C5    C10   A    
C37   C39   A    
C65   H66   S    
C56   C57   S    
C52   H30   S    
C38   C40   A    
C66   H63   S    
C1    O1    A    
C51   C52   S    
O5    Zn1   S    
C36   C38   A    
C54   C55   S    
C33   C35   A    
C11   H1    S    
C58   H44   S    
C34   C36   A    
C68   H73   S    
C46   H20   S    
C23   O5    A    
C65   C66   S    
C3    C39   A    
C47   C48   S    
N2    Zn2   S    
C15   C21   A    
C45   H15   S    
C8    C10   A    
C22   C26   A    
C41   H5    S    
C7    C39   A    
C12   N2    A    
C8    C50   S    
C8    C40   A    
C50   C51   S    
C62   H58   S    
C57   H45   S    
C3    C4    A    
C1    C36   S    
C63   H56   S    
