data_mof_unit_66239.cif
_audit_creation_date              2012-12-10T17:58:12-0500
_audit_creation_method            fapswitch 2.2
_symmetry_space_group_name_H-M    P1
_symmetry_Int_Tables_number       1
_space_group_crystal_system       triclinic
_cell_length_a                    18.407497
_cell_length_b                    25.841681
_cell_length_c                    18.299151
_cell_angle_alpha                 89.981805
_cell_angle_beta                  89.774398
_cell_angle_gamma                 90.006198
_cell_volume                      8704.48435731

loop_
_atom_site_label
_atom_site_type_symbol
_atom_type_description
_atom_site_fract_x
_atom_site_fract_y
_atom_site_fract_z
_atom_type_partial_charge
C1    C     C_R   0.639632 0.750148 0.359657 0.504033
C2    C     C_R   0.860387 0.749615 0.140552 0.504426
C3    C     C_R   0.725101 0.703237 0.280745 0.153756
C4    C     C_R   0.703838 0.706771 0.741783 0.147122
C5    C     C_R   0.300642 0.289779 0.252920 0.133352
C6    C     C_R   0.288048 0.705185 0.265982 0.164401
C7    C     C_R   0.714387 0.296393 0.730461 0.151870
C8    C     C_R   0.227925 0.796189 0.783491 0.154475
C9    C     C_R   0.802855 0.211666 0.249333 0.133598
C10   C     C_R   0.773515 0.795929 0.218803 0.164388
C11   C     C_R   0.224769 0.203239 0.780395 0.154695
C12   C     C_R   0.204753 0.206411 0.240811 0.150705
C13   C     C_R   0.861589 0.251479 0.141761 0.511470
C14   C     C_R   0.801935 0.788973 0.751573 0.132687
C15   C     C_R   0.786801 0.205081 0.767066 0.163378
C16   C     C_R   0.213521 0.796103 0.231438 0.153244
C17   C     C_R   0.139568 0.749743 0.859544 0.503776
C18   C     C_R   0.139471 0.749594 0.140673 0.506678
C19   C     C_R   0.860712 0.250713 0.858961 0.507484
C20   C     C_R   0.861396 0.748652 0.858318 0.513211
C21   C     C_R   0.139402 0.250601 0.140862 0.508315
C22   C     C_R   0.695258 0.249360 0.302715 -0.051190
C23   C     C_R   0.304883 0.750881 0.697299 -0.045206
C24   C     C_R   0.305106 0.248880 0.697679 -0.045821
C25   C     C_R   0.360396 0.249610 0.640556 0.504990
C26   C     C_R   0.694539 0.750520 0.302511 -0.043664
C27   C     C_R   0.695203 0.750746 0.697385 -0.050153
C28   C     C_R   0.307834 0.246839 0.299468 -0.054910
C29   C     C_R   0.306215 0.751728 0.301033 -0.053086
C30   C     C_R   0.694535 0.249369 0.697642 -0.049237
C31   C     C_R   0.194505 0.749272 0.802328 -0.041491
C32   C     C_R   0.808484 0.253757 0.201071 -0.055297
C33   C     C_R   0.805098 0.748874 0.197685 -0.044653
C34   C     C_R   0.194521 0.250553 0.802468 -0.044735
C35   C     C_R   0.195108 0.250788 0.197451 -0.050466
C36   C     C_R   0.360318 0.750284 0.640423 0.510742
C37   C     C_R   0.808003 0.746605 0.799306 -0.053840
C38   C     C_R   0.806089 0.251759 0.801087 -0.052781
C39   C     C_R   0.194548 0.749213 0.197726 -0.049985
C40   C     C_R   0.433994 0.973221 0.499782 -0.114863
C41   C     C_R   0.566015 0.026780 0.500215 -0.121586
C42   C     C_R   0.566017 0.973232 0.500212 -0.120833
C43   C     C_R   0.433992 0.026769 0.499787 -0.116133
C44   C     C_R   0.933990 0.473220 0.999786 -0.117989
C45   C     C_R   0.066010 0.526779 0.000212 -0.117730
C46   C     C_R   0.066013 0.473231 0.000208 -0.119045
C47   C     C_R   0.639350 0.249385 0.359159 0.507185
C48   C     C_R   0.933987 0.526768 0.999786 -0.117196
C49   C     C_R   0.500001 0.053762 0.500004 0.037910
C50   C     C_R   0.500006 0.946238 0.499996 0.038990
C51   C     C_R   0.999997 0.553762 1.000000 0.039266
C52   C     C_R   0.000003 0.446238 0.999995 0.038033
C53   C     C_R   0.500003 0.890108 0.499997 0.499391
C54   C     C_R   0.499998 0.109893 0.500004 0.497696
C55   C     C_R   0.000002 0.390107 0.999996 0.497774
C56   C     C_R   0.999998 0.609892 0.000001 0.499776
C57   C     C_R   0.490816 0.609781 0.500775 0.539780
C58   C     C_R   0.639516 0.249680 0.640595 0.505935
C59   C     C_R   0.490457 0.390159 0.500470 0.549387
C60   C     C_R   0.990751 0.109783 0.999997 0.547448
C61   C     C_R   0.990610 0.890184 0.000325 0.549370
C62   C     C_R   0.408477 0.554386 0.379642 0.271229
C63   C     C_R   0.436415 0.445478 0.637441 0.276313
C64   C     C_R   0.440385 0.552524 0.640212 0.274426
C65   C     C_R   0.407497 0.446465 0.380139 0.268449
C66   C     C_R   0.919302 0.052923 0.871153 0.270842
C67   C     C_R   0.926495 0.947482 0.134056 0.270300
C68   C     C_R   0.919275 0.054743 0.128204 0.270656
C69   C     C_R   0.360750 0.750719 0.358946 0.511200
C70   C     C_R   0.914259 0.945386 0.875585 0.269235
C71   C     C_R   0.391901 0.527444 0.316020 -0.067372
C72   C     C_R   0.441567 0.470928 0.703958 -0.056912
C73   C     C_R   0.443663 0.524286 0.705615 -0.140439
C74   C     C_R   0.390418 0.473873 0.316309 -0.144528
C75   C     C_R   0.907161 0.025104 0.807250 -0.067403
C76   C     C_R   0.918037 0.975755 0.198252 -0.066095
C77   C     C_R   0.912712 0.029095 0.195342 -0.141624
C78   C     C_R   0.903288 0.971641 0.809499 -0.144521
C79   C     C_R   0.440483 0.472602 0.439643 0.015550
C80   C     C_R   0.361328 0.248732 0.358382 0.511942
C81   C     C_R   0.454990 0.527271 0.572110 0.016606
C82   C     C_R   0.453859 0.472013 0.571079 -0.057358
C83   C     C_R   0.440030 0.527921 0.440202 -0.050817
C84   C     C_R   0.944880 0.971975 0.935976 0.014458
C85   C     C_R   0.947732 0.028048 0.066663 0.013602
C86   C     C_R   0.948815 0.972779 0.068085 -0.053347
C87   C     C_R   0.945689 0.027256 0.934847 -0.051743
C88   C     C_R   0.463417 0.445563 0.503204 -0.004091
C89   C     C_R   0.463459 0.554491 0.504168 -0.004487
C90   C     C_R   0.963561 0.945576 0.001573 -0.001198
C91   C     C_R   0.639407 0.750609 0.640869 0.510462
C92   C     C_R   0.963716 0.054354 0.000205 -0.000816
C93   C     C_R   0.283829 0.797486 0.732087 0.212411
C94   C     C_R   0.744436 0.207616 0.296573 0.202936
C95   C     C_R   0.718150 0.797364 0.270493 0.209859
C96   C     C_R   0.280763 0.201871 0.729100 0.211201
C97   C     C_R   0.261208 0.203735 0.290784 0.206871
C98   C     C_R   0.743907 0.792759 0.704018 0.203442
C99   C     C_R   0.730149 0.203088 0.717429 0.205530
C100  C     C_R   0.269727 0.798012 0.281977 0.206636
C101  C     C_R   0.760463 0.296194 0.208293 0.206421
C102  C     C_R   0.139617 0.250170 0.859631 0.503960
C103  C     C_R   0.215102 0.702777 0.767142 0.210477
C104  C     C_R   0.218463 0.297426 0.770760 0.210309
C105  C     C_R   0.781077 0.701884 0.229419 0.211270
C106  C     C_R   0.760309 0.703991 0.791710 0.206703
C107  C     C_R   0.242667 0.293360 0.205236 0.203279
C108  C     C_R   0.231239 0.703102 0.216488 0.203373
C109  C     C_R   0.770565 0.298232 0.781086 0.208440
C110  C     C_R   0.703738 0.293301 0.258173 0.150595
C111  C     C_R   0.270204 0.704221 0.714983 0.147121
C112  C     C_R   0.273853 0.295980 0.719088 0.165967
F1    F     F_    0.659179 0.334964 0.265233 -0.119090
F2    F     F_    0.852881 0.173156 0.249875 -0.136382
F3    F     F_    0.793340 0.840691 0.185847 -0.117444
F4    F     F_    0.202109 0.158203 0.811415 -0.125968
F5    F     F_    0.161673 0.164125 0.232333 -0.120177
F6    F     F_    0.851147 0.828031 0.751904 -0.137413
F7    F     F_    0.820517 0.160266 0.784501 -0.105404
F8    F     F_    0.180066 0.840983 0.212343 -0.122068
F9    F     F_    0.286930 0.660184 0.678229 -0.126307
F10   F     F_    0.294041 0.340784 0.686428 -0.115589
F11   F     F_    0.702740 0.658234 0.312074 -0.127033
F12   F     F_    0.659687 0.664934 0.734483 -0.123856
F13   F     F_    0.348610 0.329598 0.254672 -0.135687
F14   F     F_    0.323177 0.660596 0.282135 -0.105803
F15   F     F_    0.681796 0.341389 0.710421 -0.124189
F16   F     F_    0.208252 0.840778 0.817647 -0.127904
H1    H     H_    0.436899 0.543389 0.757882 0.128341
H2    H     H_    0.617611 0.046939 0.500390 0.163606
H3    H     H_    0.617614 0.953082 0.500387 0.162858
H4    H     H_    0.382395 0.046918 0.499610 0.166664
H5    H     H_    0.882393 0.453061 0.999614 0.166965
H6    H     H_    0.117606 0.546937 0.000389 0.163298
H7    H     H_    0.117610 0.453082 0.000382 0.163352
H8    H     H_    0.882390 0.546918 0.999611 0.166206
H9    H     H_    0.364764 0.609887 0.435063 0.322012
H10   H     H_    0.375081 0.394037 0.592483 0.333200
H11   H     H_    0.406401 0.613461 0.692984 0.343012
H12   H     H_    0.368499 0.453911 0.269252 0.147455
H13   H     H_    0.344430 0.389690 0.351982 0.340238
H14   H     H_    0.869912 0.108343 0.921318 0.324812
H15   H     H_    0.874234 0.891774 0.088485 0.330464
H16   H     H_    0.852691 0.108525 0.159803 0.342300
H17   H     H_    0.849014 0.890228 0.846138 0.341321
H18   H     H_    0.363669 0.839328 0.693476 0.330195
H19   H     H_    0.684559 0.152669 0.334806 0.334314
H20   H     H_    0.639237 0.840143 0.308744 0.330751
H21   H     H_    0.359145 0.158973 0.690224 0.331491
H22   H     H_    0.323265 0.151500 0.333046 0.335282
H23   H     H_    0.370587 0.547975 0.269151 0.180689
H24   H     H_    0.683752 0.847290 0.665462 0.334780
H25   H     H_    0.657695 0.155292 0.680432 0.333403
H26   H     H_    0.340925 0.845753 0.321460 0.333295
H27   H     H_    0.821222 0.349009 0.165210 0.335495
H28   H     H_    0.135443 0.660930 0.806261 0.331823
H29   H     H_    0.139702 0.340310 0.809027 0.331545
H30   H     H_    0.859573 0.659092 0.190486 0.331077
H31   H     H_    0.821161 0.651301 0.834478 0.336795
H32   H     H_    0.181104 0.347262 0.166975 0.333719
H33   H     H_    0.159592 0.654850 0.179241 0.333824
H34   H     H_    0.432615 0.449943 0.754454 0.171155
H35   H     H_    0.842401 0.345515 0.820626 0.334003
H36   H     H_    0.895162 0.049814 0.243736 0.147315
H37   H     H_    0.883680 0.951155 0.761857 0.147060
H38   H     H_    0.889905 0.045056 0.758227 0.178835
H39   H     H_    0.904025 0.956110 0.248680 0.174334
H40   H     H_    0.382398 0.953063 0.499603 0.166889
O1    O     O_3   0.500000 0.750040 0.500000 -0.472807
O2    O     O_R   0.414580 0.719700 0.353880 -0.494036
O3    O     O_R   0.414580 0.280300 0.353880 -0.498115
O4    O     O_R   0.585420 0.719700 0.646120 -0.521202
O5    O     O_R   0.085420 0.219700 0.853880 -0.518904
O6    O     O_R   0.914580 0.780300 0.146120 -0.497287
O7    O     O_R   0.914580 0.219700 0.146120 -0.498919
O8    O     O_R   0.085420 0.780300 0.853880 -0.521012
O9    O     O_R   0.085420 0.780300 0.146120 -0.515186
O10   O     O_R   0.914580 0.219700 0.853880 -0.494641
O11   O     O_R   0.914580 0.780300 0.853880 -0.499378
O12   O     O_3   0.500000 0.249960 0.500000 -0.475345
O13   O     O_R   0.085420 0.219700 0.146120 -0.518146
O14   O     O_R   0.646120 0.780390 0.585510 -0.516532
O15   O     O_R   0.353880 0.219610 0.414490 -0.520239
O16   O     O_R   0.353880 0.780390 0.414490 -0.524861
O17   O     O_R   0.646120 0.219610 0.585510 -0.518942
O18   O     O_R   0.646120 0.219610 0.414490 -0.516457
O19   O     O_R   0.353880 0.780390 0.585510 -0.524342
O20   O     O_R   0.353880 0.219610 0.585510 -0.526205
O21   O     O_R   0.646120 0.780390 0.414490 -0.523700
O22   O     O_R   0.146120 0.280390 0.085510 -0.517942
O23   O     O_3   0.000000 0.250040 0.000000 -0.475660
O24   O     O_R   0.853880 0.719610 0.914490 -0.520266
O25   O     O_R   0.853880 0.280390 0.914490 -0.522737
O26   O     O_R   0.146120 0.719610 0.085510 -0.522782
O27   O     O_R   0.146120 0.719610 0.914490 -0.528424
O28   O     O_R   0.853880 0.280390 0.085510 -0.519040
O29   O     O_R   0.853880 0.719610 0.085510 -0.527098
O30   O     O_R   0.146120 0.280390 0.914490 -0.523817
O31   O     O_R   0.560660 0.865840 0.500000 -0.547427
O32   O     O_R   0.439340 0.134160 0.500000 -0.546895
O33   O     O_R   0.439340 0.865840 0.500000 -0.545733
O34   O     O_3   0.000000 0.749960 0.000000 -0.474385
O35   O     O_R   0.560660 0.134160 0.500000 -0.547453
O36   O     O_R   0.060660 0.365840 0.000000 -0.546892
O37   O     O_R   0.939340 0.634160 0.000000 -0.547239
O38   O     O_R   0.939340 0.365840 0.000000 -0.547725
O39   O     O_R   0.060660 0.634160 0.000000 -0.546285
O40   O     O_R   0.500000 0.634240 0.439310 -0.494326
O41   O     O_R   0.500000 0.365760 0.560690 -0.505796
O42   O     O_R   0.500000 0.634240 0.560690 -0.481636
O43   O     O_R   0.500000 0.365760 0.439310 -0.471860
O44   O     O_R   0.000000 0.134240 0.939310 -0.498119
O45   O     O_R   0.585420 0.719700 0.353880 -0.520810
O46   O     O_R   0.000000 0.865760 0.060690 -0.500880
O47   O     O_R   0.000000 0.134240 0.060690 -0.475666
O48   O     O_R   0.000000 0.865760 0.939310 -0.473683
O49   O     O_3   0.381812 0.604021 0.384276 -0.635248
O50   O     O_3   0.401638 0.398368 0.639163 -0.624201
O51   O     O_3   0.409542 0.601167 0.641715 -0.638046
O52   O     O_3   0.381685 0.396760 0.389501 -0.669688
O53   O     O_3   0.891811 0.102339 0.872440 -0.629235
O54   O     O_3   0.898826 0.898136 0.135791 -0.625124
O55   O     O_3   0.886649 0.102343 0.118713 -0.669350
O56   O     O_R   0.414580 0.280300 0.646120 -0.497153
O57   O     O_3   0.884168 0.896981 0.885751 -0.670364
O58   O     O_3   0.316798 0.844668 0.718943 -0.641339
O59   O     O_3   0.736800 0.161945 0.334828 -0.637705
O60   O     O_3   0.687630 0.844996 0.286108 -0.646146
O61   O     O_3   0.310753 0.154188 0.712886 -0.638379
O62   O     O_3   0.270443 0.157744 0.327867 -0.628733
O63   O     O_3   0.736141 0.838492 0.666003 -0.639779
O64   O     O_3   0.710352 0.155030 0.691197 -0.639850
O65   O     O_3   0.288584 0.845943 0.309291 -0.634366
O66   O     O_3   0.768556 0.341744 0.169815 -0.626492
O67   O     O_R   0.414580 0.719700 0.646120 -0.516930
O68   O     O_3   0.181907 0.655632 0.780038 -0.645798
O69   O     O_3   0.188229 0.345100 0.786659 -0.640572
O70   O     O_3   0.811345 0.654242 0.213474 -0.640827
O71   O     O_3   0.768479 0.658345 0.829868 -0.630056
O72   O     O_3   0.233777 0.339441 0.168307 -0.640700
O73   O     O_3   0.212387 0.655118 0.189328 -0.643906
O74   O     O_3   0.790293 0.346226 0.807559 -0.634020
O75   O     O_R   0.585420 0.280300 0.353880 -0.518665
O76   O     O_R   0.585420 0.280300 0.646120 -0.517270
Zn1   Zn    Zn3+2 0.500000 0.706650 0.586810 0.991129
Zn2   Zn    Zn3+2 0.413290 0.206580 0.500000 0.967425
Zn3   Zn    Zn3+2 0.413290 0.793420 0.500000 0.967026
Zn4   Zn    Zn3+2 0.586710 0.206580 0.500000 0.965627
Zn5   Zn    Zn3+2 0.086710 0.293420 0.000000 0.963994
Zn6   Zn    Zn3+2 0.913290 0.706580 0.000000 0.966552
Zn7   Zn    Zn3+2 0.913290 0.293420 0.000000 0.967804
Zn8   Zn    Zn3+2 0.086710 0.706580 0.000000 0.961226
Zn9   Zn    Zn3+2 0.500000 0.293350 0.413190 1.010239
Zn10  Zn    Zn3+2 0.500000 0.706650 0.413190 1.006417
Zn11  Zn    Zn3+2 0.500000 0.293350 0.586810 1.003400
Zn12  Zn    Zn3+2 0.000000 0.206650 0.086810 1.007374
Zn13  Zn    Zn3+2 0.000000 0.793350 0.913190 1.007867
Zn14  Zn    Zn3+2 0.000000 0.206650 0.913190 1.006784
Zn15  Zn    Zn3+2 0.000000 0.793350 0.086810 1.007022
Zn16  Zn    Zn3+2 0.586710 0.793420 0.500000 0.964854

loop_
_geom_bond_atom_site_label_1
_geom_bond_atom_site_label_2
_ccdc_geom_bond_type
C28   C97   A    
C11   C96   A    
O34   Zn8   S    
C62   C83   A    
C27   C98   A    
C103  O68   S    
O33   Zn3   S    
C70   C78   A    
C2    O29   A    
C41   C42   A    
C13   C32   S    
C24   C112  A    
C84   C87   A    
C6    C108  A    
H15   O54   S    
O18   Zn4   S    
C99   O64   S    
O11   Zn13  S    
O7    Zn12  S    
O12   Zn2   S    
C85   C86   A    
C3    C105  A    
C102  O5    A    
C21   O13   A    
C57   O40   A    
C45   H6    S    
C34   C102  S    
C57   C89   S    
C91   O4    A    
H35   O74   S    
C65   C79   A    
C9    F2    S    
C109  O74   S    
C63   O50   S    
C43   H4    S    
C19   C38   S    
C60   O47   A    
C16   F8    S    
H13   O52   S    
C41   H2    S    
H31   O71   S    
C82   C88   A    
O8    Zn13  S    
O23   Zn14  S    
C111  F9    S    
C45   C51   A    
C54   O35   A    
C46   C52   A    
C68   C77   A    
O28   Zn7   S    
C54   O32   A    
C4    F12   S    
C25   O56   A    
C103  C111  A    
C51   C56   S    
C80   O15   A    
C10   C95   A    
C95   O60   S    
H16   O55   S    
O19   Zn3   S    
O37   Zn6   S    
O10   Zn14  S    
C9    C32   A    
O23   Zn5   S    
C46   H7    S    
C59   C88   S    
C93   O58   S    
O12   Zn11  S    
C40   C43   A    
C71   H23   S    
C56   O37   A    
C18   O9    A    
C3    F11   S    
C22   C110  A    
C13   O28   A    
H20   O60   S    
C108  O73   S    
O1    Zn16  S    
O23   Zn7   S    
C64   C73   A    
C70   O57   S    
H25   O64   S    
C27   C91   S    
C42   H3    S    
C61   O48   A    
O42   Zn1   S    
C10   C33   A    
C102  O30   A    
C70   C84   A    
O39   Zn8   S    
H14   O53   S    
H33   O73   S    
C29   C100  A    
C17   O8    A    
H24   O63   S    
C81   C89   A    
C44   C52   A    
C77   H36   S    
C22   C47   S    
O31   Zn16  S    
C7    C30   A    
C87   C92   A    
C58   O17   A    
O4    Zn1   S    
C68   C85   A    
C22   C94   A    
C100  O65   S    
C104  O69   S    
O40   Zn10  S    
O48   Zn13  S    
O43   Zn9   S    
C66   O53   S    
O1    Zn1   S    
C41   C49   A    
C79   C88   A    
C85   C92   A    
C59   O43   A    
C14   C98   A    
C20   O11   A    
C29   C69   S    
C76   C77   A    
C60   C92   S    
C39   C108  A    
C83   C89   A    
C73   H1    S    
C48   C51   A    
C50   C53   S    
C40   H40   S    
O35   Zn4   S    
C63   C82   A    
C53   O31   A    
C62   O49   S    
C33   C105  A    
C18   O26   A    
C6    F14   S    
C86   C90   A    
O34   Zn13  S    
O32   Zn2   S    
O6    Zn15  S    
C104  C112  A    
O2    Zn10  S    
C16   C100  A    
H18   O58   S    
H27   O66   S    
C14   F6    S    
C101  C110  A    
C45   C46   A    
C4    C106  A    
C30   C99   A    
O76   Zn11  S    
O22   Zn5   S    
C81   C82   A    
C65   C74   A    
C23   C93   A    
C47   O18   A    
C36   O67   A    
O15   Zn2   S    
C31   C103  A    
C67   O54   S    
C58   O76   A    
C18   C39   S    
C64   O51   S    
C15   C38   A    
C112  F10   S    
C11   F4    S    
C25   O20   A    
C65   O52   S    
C5    C28   A    
C8    F16   S    
C97   O62   S    
C110  F1    S    
C105  O70   S    
O27   Zn8   S    
O3    Zn9   S    
C69   O16   A    
C40   C50   A    
C96   O61   S    
C24   C25   S    
C12   C35   A    
O20   Zn2   S    
O38   Zn7   S    
O9    Zn15  S    
C19   O10   A    
C12   C97   A    
C94   O59   S    
H30   O70   S    
O17   Zn4   S    
O36   Zn5   S    
O12   Zn4   S    
C2    C33   S    
H29   O69   S    
O34   Zn6   S    
C42   C50   A    
C19   O25   A    
C106  O71   S    
C1    O45   A    
C1    C26   S    
C17   C31   S    
O16   Zn3   S    
O26   Zn8   S    
O46   Zn15  S    
C17   O27   A    
C68   O55   S    
C61   O46   A    
C76   H39   S    
H9    O49   S    
C66   C87   A    
C4    C27   A    
O14   Zn16  S    
C61   C90   S    
C5    C107  A    
C84   C90   A    
C26   C95   A    
C13   O7    A    
C55   O38   A    
C57   O42   A    
O45   Zn10  S    
C67   C86   A    
H19   O59   S    
H32   O72   S    
O21   Zn16  S    
C8    C31   A    
O1    Zn10  S    
C48   H8    S    
C3    C26   A    
C43   C49   A    
C8    C93   A    
C38   C109  A    
C72   C73   A    
O75   Zn9   S    
C67   C76   A    
C20   O24   A    
C71   C74   A    
O12   Zn9   S    
C52   C55   S    
C21   C35   S    
C23   C111  A    
C107  O72   S    
C55   O36   A    
O23   Zn12  S    
H22   O62   S    
C60   O44   A    
C36   O19   A    
H21   O61   S    
C59   O41   A    
C24   C96   A    
O5    Zn14  S    
C44   C48   A    
O34   Zn15  S    
C2    O6    A    
C14   C37   A    
C47   O75   A    
C20   C37   S    
O30   Zn5   S    
C11   C34   A    
C21   O22   A    
C56   O39   A    
C74   H12   S    
O29   Zn6   S    
H28   O68   S    
O24   Zn6   S    
C66   C75   A    
C30   C58   S    
H26   O65   S    
O44   Zn14  S    
O47   Zn12  S    
C78   H37   S    
C15   F7    S    
C62   C71   A    
C75   H38   S    
C69   O2    A    
O25   Zn7   S    
H17   O57   S    
C28   C80   S    
C75   C78   A    
C34   C104  A    
C64   C81   A    
O1    Zn3   S    
C35   C107  A    
C10   F3    S    
C16   C39   A    
C98   O63   S    
C79   C83   A    
H11   O51   S    
C37   C106  A    
C6    C29   A    
C63   C72   A    
H10   O50   S    
C23   C36   S    
C15   C99   A    
C91   O14   A    
C5    F13   S    
C101  O66   S    
C72   H34   S    
C32   C101  A    
C7    C109  A    
C12   F5    S    
C80   O3    A    
C7    F15   S    
C9    C94   A    
O67   Zn1   S    
O41   Zn11  S    
O13   Zn12  S    
C49   C54   S    
O56   Zn11  S    
C1    O21   A    
C44   H5    S    
C53   O33   A    
