data_mof_unit_33939.cif
_audit_creation_date              2012-12-10T18:52:10-0500
_audit_creation_method            fapswitch 2.2
_symmetry_space_group_name_H-M    P1
_symmetry_Int_Tables_number       1
_space_group_crystal_system       triclinic
_cell_length_a                    15.719704
_cell_length_b                    10.623285
_cell_length_c                    10.023274
_cell_angle_alpha                 89.97158
_cell_angle_beta                  90.067838
_cell_angle_gamma                 93.183575
_cell_volume                      1671.25108193

loop_
_atom_site_label
_atom_site_type_symbol
_atom_type_description
_atom_site_fract_x
_atom_site_fract_y
_atom_site_fract_z
_atom_type_partial_charge
C1    C     C_R   0.500857 0.261102 0.500043 0.966057
C2    C     C_R   0.499142 0.738897 0.499957 0.966052
C3    C     C_R   0.421161 0.930099 0.482577 0.043688
C4    C     C_R   0.578838 0.069896 0.517424 0.043644
C5    C     C_R   0.498610 0.871507 0.499627 -0.196951
C6    C     C_R   0.501389 0.128490 0.500372 -0.196947
C7    C     C_R   0.554609 0.580988 0.071671 0.183338
C8    C     C_R   0.445393 0.419006 0.928329 0.183330
C9    C     C_R   0.554591 0.580941 0.928471 0.168567
C10   C     C_R   0.445401 0.419070 0.071530 0.168571
C11   C     C_R   0.338281 0.498134 0.499924 0.895282
C12   C     C_R   0.661719 0.501869 0.500076 0.895275
C13   C     C_3   0.966804 0.379862 0.510302 -0.349020
C14   C     C_3   0.033196 0.620145 0.489697 -0.349025
C15   C     C_3   0.025094 0.432365 0.396663 0.390110
C16   C     C_3   0.974906 0.567642 0.603336 0.390109
C17   C     C_1   0.249377 0.498290 0.499800 -0.092149
C18   C     C_1   0.750624 0.501715 0.500200 -0.092148
C19   C     C_3   0.026019 0.448792 0.613388 0.387145
C20   C     C_3   0.973981 0.551215 0.386611 0.387142
C21   C     C_3   0.083240 0.499816 0.499873 -0.140413
C22   C     C_3   0.916760 0.500191 0.500126 -0.140413
C23   C     C_1   0.174109 0.498925 0.499786 0.152472
C24   C     C_1   0.825892 0.501080 0.500213 0.152476
C25   C     C_R   0.423158 0.060783 0.483539 0.328520
C26   C     C_R   0.576840 0.939213 0.516489 0.328513
H1    H     H_    0.938403 0.282142 0.518685 0.228012
H2    H     H_    0.061597 0.717864 0.481315 0.228013
N1    N     N_R   0.499980 0.499970 0.857200 -0.112767
N2    N     N_R   0.500020 0.500030 0.142800 -0.112763
O1    O     O_R   0.499990 0.316750 0.614620 -0.623359
O2    O     O_R   0.500010 0.683250 0.385380 -0.623388
O3    O     O_R   0.500000 0.316780 0.385290 -0.616658
O4    O     O_R   0.500000 0.683220 0.614710 -0.616637
O5    O     O_R   0.376780 0.499970 0.614640 -0.617153
O6    O     O_R   0.623220 0.500030 0.385360 -0.617165
O7    O     O_R   0.376780 0.500000 0.385310 -0.618413
O8    O     O_R   0.623220 0.500000 0.614690 -0.618387
Zn1   Zn    Zn3+2 0.500000 0.499980 0.653120 0.971085
Zn2   Zn    Zn3+2 0.500000 0.500020 0.346880 0.971065
Cl1   Cl    Cl    0.060590 0.343109 0.259074 -0.428111
Cl2   Cl    Cl    0.939410 0.656897 0.740926 -0.428091
Cl3   Cl    Cl    0.937313 0.618623 0.235745 -0.433689
Cl4   Cl    Cl    0.062687 0.381383 0.764255 -0.433674
Cl5   Cl    Cl    0.327369 0.140536 0.465810 -0.614813
Cl6   Cl    Cl    0.672625 0.859458 0.534276 -0.614832
C27   C     C_3   0.336564 0.856610 0.464192 -0.705814
H3    H     H_    0.307775 0.882401 0.367431 0.269863
H4    H     H_    0.341847 0.753451 0.463968 0.190218
H5    H     H_    0.292657 0.879226 0.546397 0.266605
C28   C     C_3   0.663433 0.143382 0.535806 -0.705706
H6    H     H_    0.692136 0.117774 0.632692 0.269763
H7    H     H_    0.707398 0.120573 0.453751 0.266706
H8    H     H_    0.658176 0.246552 0.535737 0.190145
C29   C     C_3   0.616502 0.672755 0.142218 -0.718036
H9    H     H_    0.603434 0.770983 0.114607 0.217531
H10   H     H_    0.613992 0.669177 0.250167 0.294258
H11   H     H_    0.682929 0.653455 0.115045 0.244170
C30   C     C_3   0.383522 0.327208 0.857783 -0.718018
H12   H     H_    0.396643 0.228989 0.885348 0.217523
H13   H     H_    0.317089 0.346428 0.885003 0.244165
H14   H     H_    0.386003 0.330831 0.749834 0.294270
C31   C     C_3   0.616435 0.672677 0.858065 -0.696011
H15   H     H_    0.614068 0.668368 0.750221 0.302343
H16   H     H_    0.603075 0.770957 0.884872 0.220307
H17   H     H_    0.682876 0.653838 0.885869 0.243804
C32   C     C_3   0.383522 0.327386 0.141937 -0.696038
H18   H     H_    0.385936 0.331624 0.249781 0.302325
H19   H     H_    0.317090 0.346353 0.114202 0.243820
H20   H     H_    0.396800 0.229093 0.115064 0.220305

loop_
_geom_bond_atom_site_label_1
_geom_bond_atom_site_label_2
_ccdc_geom_bond_type
C4    C26   A    
C29   H9    S    
C31   H16   S    
C11   O7    A    
C9    N1    A    
C5    C26   A    
C27   H5    S    
C28   H7    S    
C10   N2    A    
O5    Zn1   S    
C27   H3    S    
C13   C15   S    
C1    O1    A    
C3    C5    A    
C28   H8    S    
C14   H2    S    
C32   H20   S    
C11   O5    A    
C31   H17   S    
C1    O3    A    
C30   H12   S    
C27   H4    S    
C7    N2    A    
C10   C32   S    
C2    C5    S    
C2    O4    A    
C17   C23   T    
C25   Cl5   S    
C16   C19   S    
C18   C24   T    
C8    N1    A    
C14   C21   S    
C3    C27   S    
C32   H18   S    
C7    C29   S    
O1    Zn1   S    
C13   C22   S    
O7    Zn2   S    
C14   C16   S    
O2    Zn2   S    
C29   H10   S    
C8    C30   S    
C12   O8    A    
C15   C20   S    
C21   C23   S    
C22   C24   S    
C20   Cl3   S    
C30   H13   S    
O3    Zn2   S    
C12   O6    A    
C13   C19   S    
C4    C28   S    
N2    Zn2   S    
C28   H6    S    
C6    C25   A    
C16   Cl2   S    
C15   C21   S    
C3    C25   A    
O8    Zn1   S    
C19   Cl4   S    
C15   Cl1   S    
C14   C20   S    
C2    O2    A    
C4    C6    A    
C29   H11   S    
C12   C18   S    
C1    C6    S    
C7    C9    A    
C26   Cl6   S    
C13   H1    S    
O6    Zn2   S    
C16   C22   S    
C30   H14   S    
C19   C21   S    
C9    C31   S    
N1    Zn1   S    
C8    C10   A    
C11   C17   S    
O4    Zn1   S    
C20   C22   S    
C31   H15   S    
C32   H19   S    
