data_mof_unit_41519.cif
_audit_creation_date              2013-03-05T15:41:17-0500
_audit_creation_method            fapswitch 2.2
_symmetry_space_group_name_H-M    P1
_symmetry_Int_Tables_number       1
_space_group_crystal_system       triclinic
_cell_length_a                    16.888157
_cell_length_b                    16.888375
_cell_length_c                    16.888563
_cell_angle_alpha                 65.768065
_cell_angle_beta                  65.769411
_cell_angle_gamma                 65.770581
_cell_volume                      3832.18090103

loop_
_atom_site_label
_atom_site_type_symbol
_atom_site_description
_atom_site_fract_x
_atom_site_fract_y
_atom_site_fract_z
_atom_type_partial_charge
O1    O     O_R   0.982940 0.138950 0.510160 -0.567193
O2    O     O_R   0.017060 0.861050 0.489840 -0.611988
O3    O     O_R   0.138950 0.510160 0.982940 -0.566868
O4    O     O_R   0.861050 0.489840 0.017060 -0.611929
O5    O     O_R   0.510160 0.982940 0.138950 -0.566919
O6    O     O_R   0.489840 0.017060 0.861050 -0.611665
O7    O     O_R   0.489840 0.861050 0.017060 -0.566983
O8    O     O_R   0.510160 0.138950 0.982940 -0.611416
O9    O     O_R   0.017060 0.489840 0.861050 -0.567138
O10   O     O_R   0.982940 0.510160 0.138950 -0.611313
O11   O     O_R   0.861050 0.017060 0.489840 -0.567156
O12   O     O_R   0.138950 0.982940 0.510160 -0.611915
C1    C     C_R   0.317173 0.993049 0.439124 -0.013624
C2    C     C_R   0.676362 0.049010 0.539666 0.000037
C3    C     C_R   0.993012 0.439174 0.317177 -0.013557
C4    C     C_R   0.048989 0.539666 0.676378 0.000043
C5    C     C_R   0.439164 0.317173 0.993026 -0.013565
C6    C     C_R   0.539666 0.676372 0.049001 -0.000026
C7    C     C_R   0.560859 0.006968 0.682823 -0.013581
C8    C     C_R   0.460330 0.951038 0.323619 -0.000064
C9    C     C_R   0.682830 0.560901 0.006931 -0.013643
C10   C     C_R   0.323629 0.460319 0.951043 -0.000088
C11   C     C_R   0.006926 0.682833 0.560903 -0.013645
C12   C     C_R   0.951024 0.323635 0.460324 0.000044
O13   O     O_R   0.867700 0.025880 0.612340 -0.608711
O14   O     O_R   0.132300 0.974120 0.387660 -0.630661
O15   O     O_R   0.025880 0.612340 0.867700 -0.608712
O16   O     O_R   0.974120 0.387660 0.132300 -0.630711
O17   O     O_R   0.612340 0.867700 0.025880 -0.608745
O18   O     O_R   0.387660 0.132300 0.974120 -0.630673
O19   O     O_R   0.387660 0.974120 0.132300 -0.608753
O20   O     O_R   0.612340 0.025880 0.867700 -0.630600
O21   O     O_R   0.132300 0.387660 0.974120 -0.608784
O22   O     O_R   0.867700 0.612340 0.025880 -0.630567
O23   O     O_R   0.974120 0.132300 0.387660 -0.608708
O24   O     O_R   0.025880 0.867700 0.612340 -0.630625
H1    H     H_    0.283674 0.937434 0.284172 0.209316
H2    H     H_    0.715845 0.062530 0.716337 0.209319
H3    H     H_    0.937521 0.284146 0.283649 0.209322
H4    H     H_    0.062595 0.716319 0.715824 0.209300
H5    H     H_    0.284146 0.283651 0.937515 0.209337
H6    H     H_    0.716328 0.715832 0.062576 0.209317
C13   C     C_R   0.962547 0.179042 0.438149 0.956023
C14   C     C_R   0.022715 0.822817 0.568294 0.931350
C15   C     C_R   0.179042 0.438148 0.962552 0.955609
C16   C     C_R   0.822817 0.568294 0.022712 0.931282
C17   C     C_R   0.438153 0.962539 0.179042 0.955659
C18   C     C_R   0.568296 0.022701 0.822819 0.931123
C19   C     C_R   0.561842 0.820958 0.037472 0.955820
C20   C     C_R   0.431704 0.177177 0.977308 0.930964
C21   C     C_R   0.037474 0.561842 0.820959 0.956007
C22   C     C_R   0.977313 0.431702 0.177176 0.930913
C23   C     C_R   0.820958 0.037467 0.561844 0.956100
C24   C     C_R   0.177184 0.977283 0.431710 0.931300
C25   C     C_R   0.412411 0.976337 0.404449 0.003136
C26   C     C_R   0.595530 0.023703 0.587582 0.003158
C27   C     C_R   0.976298 0.404486 0.412415 0.003153
C28   C     C_R   0.023659 0.587593 0.595564 0.003151
C29   C     C_R   0.404476 0.412409 0.976319 0.003144
C30   C     C_R   0.587589 0.595558 0.023672 0.003141
C31   C     C_R   0.272313 0.973785 0.396026 -0.087378
C32   C     C_R   0.723276 0.053491 0.591418 -0.041291
C33   C     C_R   0.973808 0.396035 0.272305 -0.087560
C34   C     C_R   0.053502 0.591411 0.723279 -0.041289
C35   C     C_R   0.396033 0.272304 0.973809 -0.087556
C36   C     C_R   0.591414 0.723278 0.053501 -0.041323
C37   C     C_R   0.603974 0.026207 0.727690 -0.087448
C38   C     C_R   0.408582 0.946523 0.276720 -0.041319
C39   C     C_R   0.727689 0.603987 0.026209 -0.087384
C40   C     C_R   0.276719 0.408569 0.946552 -0.041331
C41   C     C_R   0.026212 0.727688 0.603986 -0.087342
C42   C     C_R   0.946543 0.276721 0.408571 -0.041281
Zn1   Zn    Zn3+2 0.004880 0.004880 0.583590 1.124912
Zn2   Zn    Zn3+2 0.995120 0.995120 0.416410 1.124803
Zn3   Zn    Zn3+2 0.004880 0.583590 0.004880 1.125689
Zn4   Zn    Zn3+2 0.995120 0.416410 0.995120 1.124877
Zn5   Zn    Zn3+2 0.583590 0.004880 0.004880 1.125582
Zn6   Zn    Zn3+2 0.416410 0.995120 0.995120 1.125246
C43   C     C_R   0.484498 0.971749 0.728771 0.259981
C44   C     C_R   0.556902 0.935481 0.290972 0.307562
C45   C     C_R   0.971653 0.728794 0.484584 0.259818
C46   C     C_R   0.935446 0.290988 0.556898 0.307331
C47   C     C_R   0.728788 0.484582 0.971662 0.259876
C48   C     C_R   0.290979 0.556891 0.935477 0.307574
C49   C     C_R   0.271222 0.028288 0.515466 0.259868
C50   C     C_R   0.708995 0.064613 0.443089 0.307313
C51   C     C_R   0.515566 0.271233 0.028181 0.260123
C52   C     C_R   0.443088 0.708997 0.064600 0.307450
C53   C     C_R   0.028158 0.515586 0.271239 0.260182
C54   C     C_R   0.064574 0.443090 0.709010 0.307370
C55   C     C_R   0.319284 0.948347 0.317896 -0.252745
C56   C     C_R   0.682111 0.051639 0.680722 -0.252670
C57   C     C_R   0.948400 0.317886 0.319267 -0.252703
C58   C     C_R   0.051673 0.680712 0.682105 -0.252724
C59   C     C_R   0.317884 0.319267 0.948401 -0.252694
C60   C     C_R   0.680716 0.682109 0.051663 -0.252684
H7    H     H_    0.301231 0.988642 0.789921 0.188468
H8    H     H_    0.723468 0.971872 0.214408 0.202526
H9    H     H_    0.988643 0.789978 0.301317 0.188284
H10   H     H_    0.971801 0.214426 0.723476 0.202369
H11   H     H_    0.789972 0.301321 0.988618 0.188319
H12   H     H_    0.214388 0.723434 0.971900 0.202589
H13   H     H_    0.210071 0.011279 0.698741 0.188311
H14   H     H_    0.785487 0.028410 0.276441 0.202358
H15   H     H_    0.698838 0.210121 0.011260 0.188584
H16   H     H_    0.276424 0.785465 0.028423 0.202462
H17   H     H_    0.011278 0.698853 0.210120 0.188641
H18   H     H_    0.028346 0.276447 0.785499 0.202326
C61   C     C_R   0.675195 0.030908 0.402439 0.019350
C62   C     C_R   0.320987 0.011081 0.573478 -0.004155
C63   C     C_R   0.030850 0.402452 0.675214 0.019296
C64   C     C_R   0.010980 0.573566 0.321021 -0.004540
C65   C     C_R   0.402442 0.675199 0.030888 0.019191
C66   C     C_R   0.573551 0.321017 0.010998 -0.004466
C67   C     C_R   0.597527 0.969229 0.324756 0.019020
C68   C     C_R   0.426497 0.988931 0.679003 -0.004346
C69   C     C_R   0.324763 0.597520 0.969219 0.018992
C70   C     C_R   0.679036 0.426563 0.988857 -0.004130
C71   C     C_R   0.969168 0.324782 0.597537 0.019280
C72   C     C_R   0.988848 0.679044 0.426566 -0.004091
C73   C     C_R   0.720016 0.017626 0.315704 -0.106237
C74   C     C_R   0.280954 0.007737 0.665761 -0.132487
C75   C     C_R   0.017560 0.315718 0.720032 -0.106015
C76   C     C_R   0.007706 0.665839 0.280999 -0.133115
C77   C     C_R   0.315699 0.720006 0.017622 -0.106540
C78   C     C_R   0.665828 0.280999 0.007701 -0.133024
C79   C     C_R   0.684228 0.982593 0.279905 -0.106142
C80   C     C_R   0.334224 0.992215 0.719037 -0.132748
C81   C     C_R   0.279898 0.684211 0.982598 -0.106341
C82   C     C_R   0.719085 0.334288 0.992178 -0.132533
C83   C     C_R   0.982522 0.279927 0.684241 -0.105846
C84   C     C_R   0.992186 0.719093 0.334287 -0.132455
C85   C     C_R   0.549641 0.989476 0.407776 0.024744
C86   C     C_R   0.463759 0.000425 0.585472 0.033715
C87   C     C_R   0.989407 0.407809 0.549659 0.024782
C88   C     C_R   0.000336 0.585514 0.463808 0.033673
C89   C     C_R   0.407795 0.549647 0.989445 0.024734
C90   C     C_R   0.585504 0.463801 0.000356 0.033674
C91   C     C_R   0.592191 0.010620 0.450333 0.024856
C92   C     C_R   0.414513 0.999612 0.536220 0.033682
C93   C     C_R   0.450346 0.592206 0.010586 0.024851
C94   C     C_R   0.536267 0.414541 0.999542 0.033757
C95   C     C_R   0.010552 0.450357 0.592217 0.024826
C96   C     C_R   0.999518 0.536280 0.414548 0.033769
C97   C     C_R   0.458983 0.988469 0.449264 -0.035684
C98   C     C_R   0.550711 0.011589 0.541002 -0.035678
C99   C     C_R   0.988395 0.449311 0.459002 -0.035677
C100  C     C_R   0.011518 0.541027 0.550750 -0.035700
C101  C     C_R   0.449298 0.458994 0.988425 -0.035685
C102  C     C_R   0.541019 0.550741 0.011540 -0.035706
N1    N     N_R   0.484351 0.897031 0.811279 0.230486
O25   O     O_R   0.561065 0.841660 0.826111 -0.390432
O26   O     O_R   0.409568 0.878657 0.867745 -0.423128
N2    N     N_R   0.612955 0.870605 0.240173 0.204487
O27   O     O_R   0.590978 0.797571 0.261118 -0.388867
O28   O     O_R   0.681088 0.886557 0.169170 -0.400752
N3    N     N_R   0.896903 0.811278 0.484496 0.230670
O29   O     O_R   0.841756 0.826206 0.561235 -0.390452
O30   O     O_R   0.878060 0.867416 0.409837 -0.423273
N4    N     N_R   0.870572 0.240178 0.612937 0.204432
O31   O     O_R   0.797550 0.261112 0.590944 -0.388822
O32   O     O_R   0.886513 0.169177 0.681074 -0.401019
N5    N     N_R   0.811275 0.484491 0.896916 0.230637
O33   O     O_R   0.826189 0.561226 0.841734 -0.390462
O34   O     O_R   0.867467 0.409822 0.878154 -0.423297
N6    N     N_R   0.240189 0.612937 0.870589 0.204491
O35   O     O_R   0.261128 0.590941 0.797570 -0.388902
O36   O     O_R   0.169209 0.681096 0.886506 -0.400777
N7    N     N_R   0.188735 0.103035 0.515577 0.230648
O37   O     O_R   0.173809 0.158227 0.438849 -0.390531
O38   O     O_R   0.132569 0.121805 0.590258 -0.423387
N8    N     N_R   0.759818 0.129476 0.387061 0.204340
O39   O     O_R   0.738876 0.202503 0.409046 -0.388857
O40   O     O_R   0.830854 0.113505 0.318963 -0.401077
N9    N     N_R   0.515770 0.188708 0.102871 0.230353
O41   O     O_R   0.439082 0.173944 0.158429 -0.390511
O42   O     O_R   0.590643 0.132007 0.120873 -0.423187
N10   N     N_R   0.387055 0.759814 0.129462 0.204349
O43   O     O_R   0.409030 0.738862 0.202498 -0.388909
O44   O     O_R   0.318970 0.830861 0.113475 -0.400919
N11   N     N_R   0.102839 0.515806 0.188711 0.230298
O45   O     O_R   0.158464 0.439127 0.173984 -0.390498
O46   O     O_R   0.120689 0.590714 0.131898 -0.423156
N12   N     N_R   0.129436 0.387048 0.759828 0.204380
O47   O     O_R   0.202478 0.409017 0.738878 -0.388832
O48   O     O_R   0.113450 0.318957 0.830870 -0.400998

loop_
_geom_bond_atom_site_label_1
_geom_bond_atom_site_label_2
_geom_bond_distance
_ccdc_geom_bond_type
C7    C26   1.414048 A    
C11   C28   1.414028 A    
C2    C26   1.410407 A    
C91   C98   1.402308 A    
C4    C54   1.435996 A    
C13   C42   1.453389 S    
O20   C18   1.288267 A    
N7    O37   1.302044 A    
N5    O33   1.302026 A    
O9    C21   1.237975 A    
H12   C81   1.076919 S    
C39   C60   1.371635 A    
O10   C22   1.237867 A    
N10   O43   1.301571 A    
H10   C83   1.076917 S    
N9    O42   1.300389 A    
C41   C58   1.371622 A    
O4    C16   1.237977 A    
N11   O45   1.302093 A    
C90   C102  1.400612 A    
O5    C17   1.237950 A    
C53   C64   1.411491 A    
N3    O29   1.302048 A    
O6    C18   1.237910 A    
H9    C84   1.080791 S    
H6    C60   1.085497 S    
C66   C94   1.400534 A    
C94   C101  1.400606 A    
C36   C60   1.370234 A    
N5    O34   1.300040 A    
O13   Zn1   2.066970 S    
O13   C23   1.295175 A    
C73   C79   1.402844 A    
H7    C80   1.080742 S    
C86   C92   1.403680 A    
C66   C78   1.408408 A    
C28   C100  1.407697 A    
O6    Zn6   2.045887 S    
C25   C97   1.407697 A    
C65   C77   1.410394 A    
C78   C82   1.401705 A    
C2    C32   1.438500 A    
H2    C56   1.085497 S    
C38   C55   1.370214 A    
C67   C79   1.410377 A    
N12   O47   1.301572 A    
C76   C84   1.401704 A    
C14   C41   1.450616 S    
O10   Zn3   2.045869 S    
C52   C65   1.424890 A    
C12   C46   1.435979 A    
C22   C33   1.450611 S    
H3    C57   1.085500 S    
C51   C66   1.411484 A    
C89   C93   1.416209 A    
O20   Zn5   2.067004 S    
O1    C13   1.237969 A    
C9    C47   1.431130 A    
O15   C21   1.295178 A    
C48   C69   1.424855 A    
C16   C39   1.450616 S    
C32   C56   1.370209 A    
C71   C83   1.410386 A    
N1    O25   1.302082 A    
C7    C37   1.434938 A    
O22   C16   1.288210 A    
O9    Zn4   2.045869 S    
O23   C13   1.295196 A    
O8    Zn5   2.045895 S    
N2    O28   1.300449 A    
O11   C23   1.238002 A    
C63   C95   1.404518 A    
O22   Zn3   2.066973 S    
H11   C82   1.080782 S    
C87   C95   1.416228 A    
O18   C20   1.288285 A    
N3    O30   1.300156 A    
C64   C76   1.408424 A    
O19   C17   1.295169 A    
O12   Zn1   2.045875 S    
N1    O26   1.300352 A    
N6    O36   1.300447 A    
C3    C27   1.414041 A    
C89   C101  1.402309 A    
H17   C76   1.080701 S    
C8    C25   1.410378 A    
O15   Zn3   2.067001 S    
O14   C24   1.288254 A    
N8    O40   1.300451 A    
C93   C102  1.402275 A    
C29   C101  1.407687 A    
C95   C100  1.402267 A    
C86   C98   1.400619 A    
C45   N3    1.445884 S    
C19   C36   1.453356 S    
C8    C44   1.435990 A    
C63   C75   1.410391 A    
C96   C99   1.400622 A    
C11   C41   1.434869 A    
C50   C61   1.424884 A    
O7    C19   1.237984 A    
C9    C30   1.414027 A    
C49   C62   1.411526 A    
C90   C94   1.403667 A    
N11   O46   1.300431 A    
O2    C14   1.237970 A    
C10   C29   1.410402 A    
H1    C55   1.085500 S    
C12   C27   1.410425 A    
C4    C28   1.410373 A    
H14   C73   1.076908 S    
C67   C85   1.404501 A    
C6    C52   1.435988 A    
O3    C15   1.237970 A    
C49   N7    1.445871 S    
C9    C39   1.434856 A    
C72   C88   1.400498 A    
C53   N11   1.445689 S    
O21   C15   1.295164 A    
C70   C82   1.408336 A    
C3    C53   1.431220 A    
C46   N4    1.444391 S    
C23   C32   1.453379 S    
O21   Zn4   2.066974 S    
N9    O41   1.302094 A    
C45   C72   1.411499 A    
C44   C67   1.424888 A    
O23   Zn2   2.066985 S    
C10   C48   1.435971 A    
C21   C34   1.453356 S    
C1    C31   1.434906 A    
C30   C102  1.407676 A    
O17   C19   1.295149 A    
C68   C86   1.400530 A    
C7    C43   1.431195 A    
C2    C50   1.435984 A    
N2    O27   1.301571 A    
C88   C100  1.400604 A    
C47   C70   1.411486 A    
C5    C29   1.414034 A    
O7    Zn6   2.045897 S    
C42   C57   1.370173 A    
H15   C78   1.080715 S    
C6    C30   1.410377 A    
H8    C79   1.076915 S    
C54   N12   1.444378 S    
C85   C91   1.416222 A    
C87   C99   1.402314 A    
C27   C99   1.407706 A    
N6    O35   1.301574 A    
C50   N8    1.444381 S    
O24   C14   1.288231 A    
C85   C97   1.402271 A    
O12   C24   1.237947 A    
H18   C75   1.076910 S    
O5    Zn5   2.045886 S    
O16   Zn4   2.067001 S    
O8    C20   1.237877 A    
C17   C38   1.453361 S    
O3    Zn3   2.045889 S    
N8    O39   1.301570 A    
C12   C42   1.438523 A    
O19   Zn6   2.067005 S    
C43   N1    1.445801 S    
N7    O38   1.300150 A    
C47   N5    1.445867 S    
C11   C45   1.431128 A    
C75   C83   1.402840 A    
C15   C40   1.453363 S    
C5    C51   1.431201 A    
C54   C63   1.424906 A    
C8    C38   1.438522 A    
C69   C89   1.404496 A    
C72   C84   1.408324 A    
H4    C58   1.085498 S    
O11   Zn2   2.045875 S    
O2    Zn2   2.045865 S    
C92   C97   1.400597 A    
N10   O44   1.300455 A    
C74   C80   1.401730 A    
C44   N2    1.444392 S    
C24   C31   1.450618 S    
C6    C36   1.438493 A    
C51   N9    1.445719 S    
C33   C57   1.371605 A    
C5    C35   1.434955 A    
C61   C91   1.404514 A    
O1    Zn1   2.045865 S    
N4    O31   1.301571 A    
C64   C96   1.400539 A    
C62   C92   1.400498 A    
C40   C59   1.370189 A    
C34   C58   1.370224 A    
C88   C96   1.403687 A    
C70   C90   1.400502 A    
C62   C74   1.408358 A    
O16   C22   1.288318 A    
C61   C73   1.410397 A    
H5    C59   1.085499 S    
H16   C77   1.076907 S    
C37   C56   1.371623 A    
O14   Zn2   2.066970 S    
N12   O48   1.300452 A    
C46   C71   1.424873 A    
C65   C93   1.404524 A    
C18   C37   1.450635 S    
C26   C98   1.407692 A    
C20   C35   1.450610 S    
C71   C87   1.404498 A    
O4    Zn4   2.045889 S    
C48   N6    1.444400 S    
O24   Zn1   2.066986 S    
O18   Zn6   2.066994 S    
C77   C81   1.402839 A    
C35   C59   1.371616 A    
O17   Zn5   2.066992 S    
C68   C80   1.408409 A    
C1    C49   1.431159 A    
C3    C33   1.434984 A    
C4    C34   1.438523 A    
C43   C68   1.411526 A    
H13   C74   1.080785 S    
C52   N10   1.444377 S    
C10   C40   1.438496 A    
C69   C81   1.410377 A    
C31   C55   1.371623 A    
N4    O32   1.300449 A    
C1    C25   1.414023 A    
