data_mof_unit_66720.cif
_audit_creation_date              2012-12-11T14:04:16-0500
_audit_creation_method            fapswitch 2.2
_symmetry_space_group_name_H-M    P1
_symmetry_Int_Tables_number       1
_space_group_crystal_system       triclinic
_cell_length_a                    20.746368
_cell_length_b                    22.236004
_cell_length_c                    8.640901
_cell_angle_alpha                 89.808131
_cell_angle_beta                  105.295544
_cell_angle_gamma                 91.104226
_cell_volume                      3844.26938167

loop_
_atom_site_label
_atom_site_type_symbol
_atom_type_description
_atom_site_fract_x
_atom_site_fract_y
_atom_site_fract_z
_atom_type_partial_charge
Ba1   Ba    Ba6+2 0.999900 0.456810 0.844860 1.615206
Ba2   Ba    Ba6+2 0.999900 0.543190 0.344860 1.629523
Ba3   Ba    Ba6+2 0.499900 0.956810 0.844860 1.615194
Ba4   Ba    Ba6+2 0.499900 0.043190 0.344860 1.629496
C1    C     C_3   0.049375 0.183782 0.690080 -0.419595
C2    C     C_R   0.194654 0.284641 0.386009 -0.130484
C3    C     C_3   0.675222 0.647714 0.374811 -0.494520
C4    C     C_3   0.226808 0.857480 0.907115 -0.187221
C5    C     C_3   0.185026 0.900459 0.976916 -0.427574
C6    C     C_3   0.245847 0.160300 0.362778 -0.170783
C7    C     C_3   0.175228 0.147712 0.374841 -0.494531
C8    C     C_3   0.942363 0.207982 0.956257 -0.167709
C9    C     C_3   0.880305 0.177131 0.987163 -0.481388
C10   C     C_3   0.943681 0.786088 0.624633 -0.145868
C11   C     C_3   0.892189 0.818870 0.490541 -0.411735
C12   C     C_3   0.442355 0.707976 0.956326 -0.167689
C13   C     C_R   0.700401 0.216903 0.884389 -0.162660
C14   C     C_3   0.380302 0.677123 0.987245 -0.481372
C15   C     C_3   0.443681 0.286084 0.624602 -0.145862
C16   C     C_3   0.392191 0.318864 0.490502 -0.411615
C17   C     C_3   0.010532 0.206670 0.255832 -0.194070
C18   C     C_3   0.972073 0.261594 0.274751 -0.366117
C19   C     C_3   0.053280 0.790130 0.847868 -0.251346
C20   C     C_3   0.028642 0.734443 0.916644 -0.401516
C21   C     C_3   0.510536 0.706690 0.255897 -0.194088
C22   C     C_3   0.472078 0.761620 0.274782 -0.366138
C23   C     C_3   0.553278 0.290128 0.847842 -0.251339
C24   C     C_R   0.694649 0.784636 0.386008 -0.130557
C25   C     C_3   0.528639 0.234440 0.916612 -0.401525
C26   C     C_R   0.224702 0.724105 0.052979 0.021097
C27   C     C_R   0.226724 0.279244 0.551342 0.008873
C28   C     C_R   0.724703 0.224106 0.052977 0.021102
C29   C     C_R   0.726719 0.779239 0.551340 0.008927
C30   C     C_R   0.203546 0.679541 0.149887 -0.144177
C31   C     C_R   0.206238 0.322457 0.652069 -0.142579
C32   C     C_R   0.703546 0.179542 0.149883 -0.144177
C33   C     C_3   0.944032 0.835746 0.105799 -0.466261
C34   C     C_R   0.706233 0.822452 0.652069 -0.142538
C35   C     C_R   0.158019 0.633151 0.080161 0.030756
C36   C     C_R   0.153228 0.362990 0.588507 0.062586
C37   C     C_R   0.658018 0.133152 0.080158 0.030771
C38   C     C_R   0.653227 0.862989 0.588506 0.062583
C39   C     C_R   0.810773 0.272328 0.288861 -0.167370
C40   C     C_R   0.819553 0.733578 0.776723 -0.167796
C41   C     C_R   0.310761 0.772337 0.288869 -0.167349
C42   C     C_R   0.319550 0.233578 0.776734 -0.167757
C43   C     C_R   0.856949 0.317782 0.361507 0.010504
C44   C     C_3   0.549283 0.683723 0.690081 -0.419735
C45   C     C_R   0.869857 0.692001 0.840558 0.006967
C46   C     C_R   0.356933 0.817794 0.361515 0.010510
C47   C     C_R   0.369853 0.192000 0.840572 0.006997
C48   C     C_R   0.838741 0.367927 0.104776 0.048667
C49   C     C_R   0.846710 0.639032 0.589201 0.031638
C50   C     C_R   0.338739 0.867928 0.104772 0.048700
C51   C     C_R   0.346714 0.139035 0.589207 0.031685
C52   C     C_R   0.782168 0.329852 0.039641 0.001915
C53   C     C_R   0.792819 0.678870 0.522305 0.001113
C54   C     C_R   0.282168 0.829850 0.039630 0.001919
C55   C     C_3   0.444044 0.335759 0.105735 -0.466292
C56   C     C_R   0.292824 0.178876 0.522309 0.001100
C57   C     C_R   0.772744 0.275928 0.125802 0.017862
C58   C     C_R   0.781198 0.731067 0.613905 0.024462
C59   C     C_R   0.272740 0.775930 0.125802 0.017846
C60   C     C_R   0.281201 0.231071 0.613911 0.024473
C61   C     C_3   0.010951 0.194973 0.080321 0.416496
C62   C     C_3   0.020841 0.801510 0.666515 0.429577
C63   C     C_3   0.510948 0.694978 0.080387 0.416505
C64   C     C_3   0.520841 0.301508 0.666490 0.429582
C65   C     C_R   0.873323 0.362874 0.266164 -0.285564
C66   C     C_R   0.144601 0.679745 0.818675 0.027560
C67   C     C_R   0.885712 0.648363 0.743948 -0.263988
C68   C     C_R   0.373311 0.862882 0.266168 -0.285596
C69   C     C_R   0.385710 0.148362 0.743963 -0.264027
C70   C     C_3   0.026664 0.126566 0.052762 -0.167383
C71   C     C_3   0.034984 0.869622 0.631976 -0.140943
C72   C     C_3   0.526668 0.626569 0.052873 -0.167341
C73   C     C_3   0.534983 0.369621 0.631955 -0.140956
C74   C     C_3   0.210446 0.474450 0.158041 0.258933
C75   C     C_3   0.206645 0.537594 0.714838 0.307402
C76   C     C_3   0.710433 0.974442 0.158041 0.259010
C77   C     C_R   0.134767 0.314685 0.329436 0.023710
C78   C     C_3   0.706649 0.037592 0.714846 0.307404
C79   C     C_3   0.278677 0.444750 0.216542 -0.169487
C80   C     C_3   0.267189 0.557890 0.656937 -0.100218
C81   C     C_3   0.778697 0.944789 0.216422 -0.169487
C82   C     C_3   0.767191 0.057886 0.656936 -0.100194
C83   C     C_3   0.800516 0.525886 0.832183 0.343273
C84   C     C_3   0.793037 0.461739 0.431457 0.260691
C85   C     C_3   0.300539 0.025903 0.832254 0.343215
C86   C     C_3   0.293024 0.961747 0.431461 0.260696
C87   C     C_3   0.730923 0.548485 0.747806 -0.240142
C88   C     C_R   0.644603 0.179745 0.818669 0.027547
C89   C     C_3   0.727463 0.432523 0.449052 -0.228039
C90   C     C_3   0.230956 0.048524 0.747894 -0.239897
C91   C     C_3   0.227448 0.932531 0.449039 -0.228009
C92   C     C_3   0.015960 0.244476 0.668199 0.345961
C93   C     C_3   0.957403 0.778039 0.203945 0.270253
C94   C     C_3   0.515913 0.744442 0.668204 0.345937
C95   C     C_3   0.457427 0.278059 0.203914 0.270280
C96   C     C_R   0.127096 0.635098 0.915385 -0.253554
C97   C     C_R   0.115416 0.355492 0.429856 -0.255274
C98   C     C_R   0.627097 0.135098 0.915380 -0.253559
C99   C     C_R   0.634767 0.814687 0.329433 0.023674
C100  C     C_R   0.615417 0.855496 0.429852 -0.255252
C101  C     C_3   0.706662 0.598177 0.837677 -0.205590
C102  C     C_3   0.696062 0.577663 0.997422 -0.329216
C103  C     C_3   0.721711 0.365995 0.406991 -0.303373
C104  C     C_3   0.654426 0.337905 0.407612 -0.371294
C105  C     C_3   0.206636 0.098119 0.837969 -0.205574
C106  C     C_3   0.196095 0.077495 0.997686 -0.329078
C107  C     C_3   0.221692 0.866005 0.406948 -0.303366
C108  C     C_3   0.154400 0.837918 0.407534 -0.371325
C109  C     C_3   0.028194 0.077757 0.182648 -0.237259
C110  C     C_R   0.200401 0.716901 0.884392 -0.162662
C111  C     C_3   0.959580 0.049922 0.176655 -0.414775
C112  C     C_3   0.016618 0.922093 0.730694 -0.237506
C113  C     C_3   0.942501 0.934316 0.703872 -0.401434
C114  C     C_3   0.528170 0.577765 0.182759 -0.237253
C115  C     C_3   0.459547 0.549946 0.176743 -0.414752
C116  C     C_3   0.516611 0.422091 0.730668 -0.237488
C117  C     C_3   0.442493 0.434317 0.703809 -0.401461
C118  C     C_3   0.726803 0.357487 0.907143 -0.187258
C119  C     C_3   0.685023 0.400460 0.976968 -0.427559
C120  C     C_3   0.745846 0.660294 0.362768 -0.170803
H1    H     H_    0.021986 0.266736 0.784539 0.122218
H2    H     H_    0.272843 0.527134 0.560668 0.133062
H3    H     H_    0.242606 0.060370 0.078861 0.195756
H4    H     H_    0.181715 0.116999 0.056575 0.102252
H5    H     H_    0.241356 0.137463 0.855635 0.133926
H6    H     H_    0.158189 0.112483 0.760355 0.101210
H7    H     H_    0.112595 0.868081 0.351836 0.116031
H8    H     H_    0.147010 0.795003 0.339114 0.152726
H9    H     H_    0.154634 0.827397 0.532665 0.152814
H10   H     H_    0.228015 0.861150 0.285500 0.132776
H11   H     H_    0.260865 0.841579 0.495086 0.149975
H12   H     H_    0.926758 0.082953 0.211883 0.132069
H13   H     H_    0.818914 0.978994 0.220506 0.111890
H14   H     H_    0.935228 0.032326 0.054657 0.129603
H15   H     H_    0.965744 0.011744 0.262242 0.121556
H16   H     H_    0.059774 0.040584 0.160347 0.111693
H17   H     H_    0.052316 0.093747 0.305623 0.113277
H18   H     H_    0.918013 0.940938 0.574603 0.128399
H19   H     H_    0.917666 0.897875 0.755414 0.138099
H20   H     H_    0.936858 0.976467 0.767312 0.116115
H21   H     H_    0.039859 0.918278 0.860943 0.108760
H22   H     H_    0.039363 0.963754 0.694437 0.108403
H23   H     H_    0.426736 0.582981 0.211996 0.132071
H24   H     H_    0.772843 0.027128 0.560670 0.133048
H25   H     H_    0.435192 0.532361 0.054734 0.129598
H26   H     H_    0.465698 0.511761 0.262306 0.121548
H27   H     H_    0.559743 0.540582 0.160481 0.111685
H28   H     H_    0.552290 0.593755 0.305737 0.113271
H29   H     H_    0.418014 0.440937 0.574533 0.128404
H30   H     H_    0.417651 0.397879 0.755341 0.138090
H31   H     H_    0.436845 0.476471 0.767237 0.116109
H32   H     H_    0.539841 0.418273 0.860921 0.108761
H33   H     H_    0.539363 0.463752 0.694432 0.108399
H34   H     H_    0.716548 0.430306 0.069909 0.149266
H35   H     H_    0.820260 0.504954 0.739971 0.020327
H36   H     H_    0.655663 0.429417 0.880466 0.119915
H37   H     H_    0.650668 0.374875 0.032677 0.116025
H38   H     H_    0.747683 0.381672 0.819146 0.123126
H39   H     H_    0.692582 0.326472 0.828987 0.078235
H40   H     H_    0.666721 0.598598 0.385159 0.136717
H41   H     H_    0.664030 0.669958 0.479058 0.137768
H42   H     H_    0.641238 0.663844 0.263228 0.152474
H43   H     H_    0.750678 0.689588 0.263504 0.105984
H44   H     H_    0.758922 0.618874 0.313480 0.160604
H45   H     H_    0.216549 0.930301 0.069871 0.149250
H46   H     H_    0.799904 0.451676 0.311747 0.009063
H47   H     H_    0.155677 0.929418 0.880403 0.119931
H48   H     H_    0.150664 0.874879 0.032612 0.116017
H49   H     H_    0.247693 0.881660 0.819117 0.123160
H50   H     H_    0.192585 0.826465 0.828961 0.078231
H51   H     H_    0.166746 0.098598 0.385291 0.136745
H52   H     H_    0.164026 0.169982 0.479044 0.137784
H53   H     H_    0.141235 0.163806 0.263222 0.152458
H54   H     H_    0.250669 0.189592 0.263503 0.106004
H55   H     H_    0.258928 0.118882 0.313495 0.160587
H56   H     H_    0.878427 0.128847 0.954915 0.128607
H57   H     H_    0.320287 0.004988 0.740023 0.020352
H58   H     H_    0.877322 0.181268 0.112215 0.136016
H59   H     H_    0.835519 0.198161 0.908763 0.144199
H60   H     H_    0.934315 0.256688 0.938278 0.141923
H61   H     H_    0.943479 0.191656 0.837309 0.130988
H62   H     H_    0.854427 0.840998 0.540158 0.111121
H63   H     H_    0.913123 0.853781 0.426524 0.124126
H64   H     H_    0.863119 0.785858 0.402615 0.171238
H65   H     H_    0.937456 0.737254 0.598866 0.111108
H66   H     H_    0.926108 0.794257 0.732143 0.065340
H67   H     H_    0.378421 0.628841 0.954977 0.128610
H68   H     H_    0.299891 0.951694 0.311744 0.009016
H69   H     H_    0.377326 0.681255 0.112305 0.136011
H70   H     H_    0.335513 0.698154 0.908863 0.144182
H71   H     H_    0.434298 0.756680 0.938328 0.141884
H72   H     H_    0.443469 0.691647 0.837379 0.130933
H73   H     H_    0.354429 0.340994 0.540115 0.111080
H74   H     H_    0.413124 0.353773 0.426479 0.124125
H75   H     H_    0.363119 0.285849 0.402587 0.171262
H76   H     H_    0.437457 0.237250 0.598841 0.111111
H77   H     H_    0.426105 0.294255 0.732107 0.065322
H78   H     H_    0.954337 0.289589 0.168399 0.106706
H79   H     H_    0.834761 0.563008 0.885789 0.033066
H80   H     H_    0.928418 0.243366 0.306628 0.138930
H81   H     H_    0.001091 0.292903 0.364965 0.079145
H82   H     H_    0.987443 0.168539 0.305597 0.102925
H83   H     H_    0.061815 0.211906 0.333078 0.071253
H84   H     H_    0.981569 0.746100 0.937524 0.077633
H85   H     H_    0.017169 0.695671 0.834734 0.091829
H86   H     H_    0.063944 0.722504 0.032423 0.122087
H87   H     H_    0.107135 0.788835 0.871985 0.101961
H88   H     H_    0.043589 0.827159 0.922285 0.088068
H89   H     H_    0.454362 0.789617 0.168426 0.106728
H90   H     H_    0.835952 0.444953 0.526401 0.063762
H91   H     H_    0.428409 0.743397 0.306596 0.138915
H92   H     H_    0.501086 0.792924 0.365026 0.079167
H93   H     H_    0.487445 0.668567 0.305687 0.102946
H94   H     H_    0.561819 0.711927 0.333142 0.071250
H95   H     H_    0.481565 0.246097 0.937485 0.077636
H96   H     H_    0.517166 0.195668 0.834702 0.091837
H97   H     H_    0.563940 0.222500 0.032391 0.122079
H98   H     H_    0.607132 0.288832 0.871962 0.101954
H99   H     H_    0.543589 0.327156 0.922261 0.088063
H100  H     H_    0.334786 0.063013 0.885945 0.033120
H101  H     H_    0.973210 0.791848 0.328680 0.110442
H102  H     H_    0.335936 0.944953 0.526399 0.063757
H103  H     H_    0.732172 0.567301 0.630468 0.086123
H104  H     H_    0.684609 0.456149 0.368539 0.122275
H105  H     H_    0.232243 0.067435 0.630680 0.085975
H106  H     H_    0.184595 0.956163 0.368538 0.122267
H107  H     H_    0.693880 0.510657 0.724974 0.103777
H108  H     H_    0.724326 0.437769 0.574136 0.093963
H109  H     H_    0.193925 0.010688 0.724817 0.103713
H110  H     H_    0.224313 0.937768 0.574127 0.093978
H111  H     H_    0.043787 0.273113 0.602722 0.008933
H112  H     H_    0.521943 0.766703 0.784543 0.122181
H113  H     H_    0.001781 0.753785 0.192378 0.041749
H114  H     H_    0.543764 0.773065 0.602751 0.008963
H115  H     H_    0.501801 0.253802 0.192342 0.041729
H116  H     H_    0.063488 0.170609 0.580330 0.086953
H117  H     H_    0.991676 0.860885 0.115778 0.081914
H118  H     H_    0.563484 0.670583 0.580419 0.086906
H119  H     H_    0.491684 0.360896 0.115657 0.081916
H120  H     H_    0.095223 0.187460 0.790529 0.118613
H121  H     H_    0.910751 0.864940 0.152283 0.157995
H122  H     H_    0.595073 0.687339 0.790704 0.118739
H123  H     H_    0.473243 0.291881 0.328639 0.110423
H124  H     H_    0.410776 0.364958 0.152244 0.157986
H125  H     H_    0.807173 0.233839 0.362263 0.081151
H126  H     H_    0.810130 0.766428 0.858871 0.084344
H127  H     H_    0.307159 0.733850 0.362279 0.081178
H128  H     H_    0.310124 0.266426 0.858882 0.084307
H129  H     H_    0.222145 0.741529 0.802456 0.067476
H130  H     H_    0.216237 0.268981 0.295940 0.084771
H131  H     H_    0.722142 0.241535 0.802454 0.067468
H132  H     H_    0.716226 0.768968 0.295939 0.084707
H133  H     H_    0.221376 0.679576 0.278711 0.096883
H134  H     H_    0.284759 0.427209 0.340207 0.102414
H135  H     H_    0.231799 0.327300 0.777263 0.076344
H136  H     H_    0.721375 0.179578 0.278708 0.096887
H137  H     H_    0.731790 0.827289 0.777266 0.076320
H138  H     H_    0.913350 0.394502 0.318868 0.074011
H139  H     H_    0.924020 0.616440 0.796971 0.058012
H140  H     H_    0.413335 0.894513 0.318875 0.074012
H141  H     H_    0.424017 0.116438 0.796988 0.058005
H142  H     H_    0.087740 0.602871 0.862555 0.064747
H143  H     H_    0.073210 0.384039 0.381303 0.071122
H144  H     H_    0.587743 0.102870 0.862548 0.064748
H145  H     H_    0.313295 0.555017 0.757598 0.059777
H146  H     H_    0.573215 0.884046 0.381296 0.071127
H147  H     H_    0.015876 0.148005 0.715495 0.122334
H148  H     H_    0.919353 0.825829 0.978517 0.114190
H149  H     H_    0.515716 0.647950 0.715227 0.122399
H150  H     H_    0.419344 0.325832 0.978469 0.114202
H151  H     H_    0.993500 0.108183 0.939684 0.077260
H152  H     H_    0.016417 0.879749 0.502368 0.083826
H153  H     H_    0.493528 0.608185 0.939766 0.077266
H154  H     H_    0.516419 0.379748 0.502347 0.083814
H155  H     H_    0.075803 0.125788 0.026924 0.102009
H156  H     H_    0.784911 0.927396 0.340271 0.102461
H157  H     H_    0.089829 0.874387 0.654081 0.070757
H158  H     H_    0.575824 0.625783 0.027123 0.101957
H159  H     H_    0.589829 0.374388 0.654071 0.070756
H160  H     H_    0.170278 0.440167 0.152628 0.088202
H161  H     H_    0.207590 0.563255 0.824665 -0.049708
H162  H     H_    0.670296 0.940138 0.152765 0.088099
H163  H     H_    0.707597 0.063252 0.824677 -0.049709
H164  H     H_    0.206559 0.495107 0.039264 0.046556
H165  H     H_    0.159862 0.547430 0.624220 0.106762
H166  H     H_    0.706483 0.995077 0.039213 0.046614
H167  H     H_    0.813298 0.055015 0.757595 0.059797
H168  H     H_    0.659865 0.047430 0.624232 0.106740
H169  H     H_    0.252231 0.361097 0.118310 0.213337
H170  H     H_    0.276592 0.410586 0.994182 0.212581
H171  H     H_    0.261549 0.648161 0.691204 0.167602
H172  H     H_    0.301010 0.629927 0.552705 0.175078
H173  H     H_    0.752285 0.860982 0.119216 0.213117
H174  H     H_    0.776289 0.910319 0.994179 0.212700
H175  H     H_    0.761538 0.148158 0.691185 0.167596
H176  H     H_    0.801014 0.129924 0.552711 0.175073
H177  H     H_    0.655897 0.542598 0.978963 0.102920
H178  H     H_    0.318935 0.478962 0.221143 0.111931
H179  H     H_    0.742526 0.560464 0.078629 0.195743
H180  H     H_    0.681771 0.617238 0.056222 0.102406
H181  H     H_    0.741448 0.637471 0.855271 0.133904
H182  H     H_    0.658253 0.612588 0.759969 0.101225
H183  H     H_    0.612615 0.368063 0.351913 0.116033
H184  H     H_    0.647036 0.294986 0.339209 0.152745
H185  H     H_    0.654668 0.327391 0.532753 0.152778
H186  H     H_    0.728027 0.361134 0.285537 0.132775
H187  H     H_    0.760891 0.341575 0.495125 0.149997
H188  H     H_    0.156010 0.042353 0.979175 0.102969
N1    N     N_3   0.286494 0.395414 0.112470 -0.524284
N2    N     N_3   0.259478 0.619183 0.595284 -0.471899
N3    N     N_3   0.786425 0.895320 0.112654 -0.524181
N4    N     N_3   0.759478 0.119178 0.595273 -0.471899
O1    O     O_2   0.866180 0.413660 0.823810 -0.493870
O2    O     O_3   0.052032 0.767758 0.563971 -0.628031
O3    O     O_3   0.562724 0.730634 0.039120 -0.635775
O4    O     O_3   0.552034 0.267756 0.563952 -0.628017
O5    O     O_3   0.077880 0.530130 0.092320 -0.493198
O6    O     O_3   0.077880 0.469870 0.592320 -0.499193
O7    O     O_3   0.577880 0.030130 0.092320 -0.493202
O8    O     O_3   0.577880 0.969870 0.592320 -0.499195
O9    O     O_3   0.922050 0.469730 0.097400 -0.464997
O10   O     O_3   0.922050 0.530270 0.597400 -0.501602
O11   O     O_3   0.422050 0.969730 0.097400 -0.465032
O12   O     O_2   0.866180 0.586340 0.323810 -0.424789
O13   O     O_3   0.422050 0.030270 0.597400 -0.501593
O14   O     O_3   0.976760 0.360270 0.628090 -0.492476
O15   O     O_3   0.976760 0.639730 0.128090 -0.469349
O16   O     O_3   0.476760 0.860270 0.628090 -0.492469
O17   O     O_3   0.476760 0.139730 0.128090 -0.469342
O18   O     O_2   0.869904 0.309273 0.696875 -0.501178
O19   O     O_2   0.845220 0.640367 0.086600 -0.473785
O20   O     O_2   0.369891 0.809290 0.696883 -0.501155
O21   O     O_2   0.345223 0.140396 0.086654 -0.473826
O22   O     O_3   0.794929 0.485598 0.952427 -0.640011
O23   O     O_2   0.366180 0.913660 0.823810 -0.493829
O24   O     O_3   0.784971 0.523556 0.439993 -0.670597
O25   O     O_3   0.294924 0.985588 0.952409 -0.640068
O26   O     O_3   0.284964 0.023564 0.440042 -0.670613
O27   O     O_3   0.947285 0.237665 0.590310 -0.629354
O28   O     O_3   0.898722 0.742475 0.181126 -0.589201
O29   O     O_3   0.447238 0.737663 0.590288 -0.629338
O30   O     O_3   0.398750 0.242494 0.181144 -0.589185
O31   O     O_2   0.133470 0.412980 0.865660 -0.462014
O32   O     O_2   0.133470 0.587020 0.365660 -0.425921
O33   O     O_2   0.633470 0.912980 0.865660 -0.462021
O34   O     O_2   0.366180 0.086340 0.323810 -0.424855
O35   O     O_2   0.633470 0.087020 0.365660 -0.425918
O36   O     O_3   0.022720 0.360150 0.061220 -0.478869
O37   O     O_3   0.022720 0.639850 0.561220 -0.466864
O38   O     O_3   0.522720 0.860150 0.061220 -0.478866
O39   O     O_3   0.522720 0.139850 0.561220 -0.466856
O40   O     O_2   0.135632 0.322551 0.022002 -0.485478
O41   O     O_2   0.127626 0.687137 0.491915 -0.462077
O42   O     O_2   0.635632 0.822547 0.021987 -0.485415
O43   O     O_2   0.627627 0.187133 0.491906 -0.462084
O44   O     O_3   0.214230 0.476702 0.755815 -0.671772
O45   O     O_3   0.206630 0.518239 0.270000 -0.652225
O46   O     O_3   0.714232 0.976700 0.755821 -0.671740
O47   O     O_3   0.706634 0.018243 0.269983 -0.652239
O48   O     O_3   0.062733 0.230633 0.039095 -0.635737
P1    P     P_3+3 0.859590 0.433890 0.993820 0.975586
P2    P     P_3+3 0.086897 0.694865 0.616382 0.943436
P3    P     P_3+3 0.585217 0.805230 0.117796 0.913224
P4    P     P_3+3 0.586899 0.194864 0.616373 0.943450
P5    P     P_3+3 0.901712 0.680747 0.058423 0.959846
P6    P     P_3+3 0.910267 0.308657 0.569706 0.907671
P7    P     P_3+3 0.401720 0.180760 0.058442 0.959824
P8    P     P_3+3 0.410252 0.808668 0.569711 0.907711
P9    P     P_3+3 0.859590 0.566110 0.493820 0.947292
P10   P     P_3+3 0.359590 0.933890 0.993820 0.975552
P11   P     P_3+3 0.359590 0.066110 0.493820 0.947274
P12   P     P_3+3 0.140130 0.433190 0.695710 0.954673
P13   P     P_3+3 0.140130 0.566810 0.195710 0.986063
P14   P     P_3+3 0.640130 0.933190 0.695710 0.954644
P15   P     P_3+3 0.640130 0.066810 0.195710 0.986069
P16   P     P_3+3 0.085215 0.305228 0.117798 0.913207

loop_
_geom_bond_atom_site_label_1
_geom_bond_atom_site_label_2
_ccdc_geom_bond_type
C115  H25   S    
C83   C87   S    
C5    H45   S    
C15   C16   S    
C21   C63   S    
C85   H100  S    
C86   C91   S    
C39   C57   A    
C15   H76   S    
O23   P10   D    
C72   H158  S    
C102  H177  S    
C112  H21   S    
C111  H12   S    
C103  H186  S    
C33   H121  S    
C84   O24   S    
C85   C90   S    
C46   C68   A    
O27   P6    S    
C44   H122  S    
C23   C64   S    
C120  H44   S    
C10   H65   S    
Ba1   O1    S    
O12   P9    D    
C55   H124  S    
C33   H148  S    
C66   P2    S    
C80   N2    S    
C88   C98   A    
C17   C61   S    
O29   P8    S    
O6    P12   S    
C17   C18   S    
C21   H94   S    
O18   P6    D    
C48   P1    S    
C78   O46   S    
C80   H2    S    
C117  H30   S    
O36   P16   S    
H172  N2    S    
O33   P14   D    
H173  N3    S    
Ba4   O39   S    
O8    P14   S    
C64   O4    S    
C72   C114  S    
C30   H133  S    
O7    P15   S    
C22   H91   S    
C93   O28   S    
C85   H57   S    
C6    C56   S    
O2    P2    S    
O21   P7    D    
O45   P13   S    
C15   C64   S    
C78   H163  S    
C16   H74   S    
C74   O45   S    
C3    H42   S    
C111  H15   S    
C24   C29   A    
C49   P9    S    
C5    H47   S    
C49   C67   A    
C19   C62   S    
C8    C61   S    
C94   O29   S    
C64   C73   S    
O38   P3    S    
O11   P10   S    
C23   H99   S    
C86   H102  S    
C20   H85   S    
Ba4   P11   S    
C93   H113  S    
C90   C105  S    
C76   H162  S    
C29   C34   A    
Ba3   P14   S    
C56   C60   A    
C113  H18   S    
C12   H71   S    
O37   P2    S    
C76   H166  S    
C96   H142  S    
C41   C46   A    
H176  N4    S    
C8    H61   S    
C83   H35   S    
C31   C36   A    
C108  H7    S    
O25   P10   S    
C94   H112  S    
C104  H184  S    
C45   C67   A    
C13   C28   A    
O31   P12   D    
C39   C43   A    
C106  H4    S    
C109  C111  S    
C17   H82   S    
O13   P11   S    
C1    H116  S    
C23   C25   S    
Ba4   O35   S    
C87   C101  S    
C107  C108  S    
C91   H106  S    
O1    P1    D    
Ba1   O6    S    
C77   C97   A    
Ba2   O32   S    
Ba3   O16   S    
C7    H52   S    
C80   H145  S    
C22   H89   S    
C6    H55   S    
C28   C32   A    
C36   P12   S    
C75   C80   S    
C119  H37   S    
C4    H50   S    
O4    P4    S    
C19   H88   S    
O39   P4    S    
O14   P6    S    
C15   H77   S    
C37   C98   A    
C38   P14   S    
C79   H134  S    
C102  H180  S    
C43   C65   A    
C36   C97   A    
O9    P1    S    
Ba3   O7    S    
O20   P8    D    
C103  H187  S    
C103  C104  S    
C7    H53   S    
C35   P13   S    
Ba4   O17   S    
C2    C77   A    
O48   P16   S    
Ba1   O36   S    
C74   H164  S    
C46   P8    S    
C63   O3    S    
C81   H156  S    
C33   H117  S    
C26   C30   A    
C30   C35   A    
C113  H20   S    
C44   H118  S    
C21   C22   S    
C42   C47   A    
C61   C70   S    
C87   H107  S    
C52   C118  S    
C73   H154  S    
H170  N1    S    
O34   P11   D    
C39   H125  S    
Ba2   O5    S    
C12   C63   S    
C114  H28   S    
H175  N4    S    
C105  H5    S    
C95   H123  S    
Ba3   Ba4   S    
C116  C117  S    
C79   N1    S    
C82   H167  S    
C82   H24   S    
C107  H10   S    
C9    H56   S    
C11   H64   S    
C118  H38   S    
C18   H80   S    
Ba1   O31   S    
O32   P13   D    
C41   H127  S    
C112  H22   S    
O16   P8    S    
Ba2   P9    S    
C109  H17   S    
C32   H136  S    
O3    P3    S    
C100  H146  S    
C6    C7    S    
C77   P16   S    
C51   C69   A    
C8    C9    S    
C85   O25   S    
C10   C11   S    
C26   C59   S    
H169  N1    S    
Ba4   P15   S    
Ba1   P12   S    
C75   H161  S    
C93   H101  S    
Ba3   P10   S    
C21   H93   S    
C73   C116  S    
C32   C37   A    
C25   H97   S    
C117  H29   S    
C72   H153  S    
Ba4   O34   S    
C50   P10   S    
Ba3   O23   S    
C75   O44   S    
C14   H70   S    
O10   P9    S    
C115  H23   S    
C55   H150  S    
C70   H151  S    
C116  H32   S    
C22   H92   S    
Ba2   P13   S    
O28   P5    S    
C48   C65   A    
C4    C54   S    
C74   C79   S    
C25   H96   S    
O24   P9    S    
C9    H59   S    
Ba4   O7    S    
O26   P11   S    
C91   H110  S    
C3    C120  S    
Ba1   O10   S    
C101  H182  S    
C95   H115  S    
C37   P15   S    
C115  H26   S    
C2    C27   A    
C3    H41   S    
C51   C56   A    
Ba3   O38   S    
O42   P3    D    
C92   O27   S    
C83   H79   S    
C67   H139  S    
C11   H62   S    
C14   H67   S    
C68   H140  S    
C84   H46   S    
C18   H78   S    
O22   P1    S    
C47   C69   A    
C86   O26   S    
C34   H137  S    
C49   C53   A    
C86   H68   S    
O41   P2    D    
C78   C82   S    
H171  N2    S    
C20   H84   S    
Ba2   O15   S    
O43   P4    D    
O40   P16   D    
C45   P5    S    
C76   C81   S    
C12   H72   S    
C120  H43   S    
O46   P14   S    
C51   P11   S    
C108  H8    S    
C76   O47   S    
C74   H160  S    
C69   H141  S    
Ba1   O14   S    
C89   H108  S    
C40   H126  S    
O19   P5    D    
C116  H33   S    
C27   C31   A    
C81   H13   S    
C1    C92   S    
C26   C110  A    
C110  H129  S    
C20   H86   S    
C117  H31   S    
C87   H103  S    
C38   C100  A    
C81   N3    S    
Ba1   O5    S    
C90   H109  S    
C82   N4    S    
C65   H138  S    
C94   H114  S    
Ba2   O9    S    
C101  C102  S    
C61   O48   S    
C7    H51   S    
C105  C106  S    
C53   C120  S    
C70   C109  S    
C24   C99   A    
C107  H11   S    
C8    H60   S    
C19   H87   S    
C62   C71   S    
C1    H120  S    
C16   H73   S    
C99   C100  A    
C52   C57   A    
C5    H48   S    
C71   C112  S    
O17   P7    S    
C40   C45   A    
C71   H152  S    
C55   C95   S    
O47   P15   S    
C108  H9    S    
C33   C93   S    
C53   C58   A    
Ba3   O33   S    
C66   C110  A    
C84   H90   S    
C113  H19   S    
C28   C57   S    
C34   C38   A    
C119  H36   S    
C112  C113  S    
C2    H130  S    
C55   H119  S    
Ba1   Ba2   S    
C114  C115  S    
C92   H111  S    
C104  H183  S    
C4    C5    S    
Ba2   O6    S    
O15   P5    S    
O5    P13   S    
C95   O30   S    
C106  H3    S    
C44   H149  S    
C97   H143  S    
C98   H144  S    
C14   H69   S    
C13   C88   A    
C66   C96   A    
Ba3   O13   S    
C70   H155  S    
C1    H147  S    
C3    H40   S    
C106  H188  S    
C6    H54   S    
C31   H135  S    
C4    H49   S    
C29   C58   S    
C40   C58   A    
C11   H63   S    
C41   C59   A    
Ba4   O11   S    
C73   H159  S    
C118  H39   S    
C18   H81   S    
C42   C60   A    
C10   H66   S    
C43   P6    S    
C102  H179  S    
C16   H75   S    
Ba3   O8    S    
C111  H14   S    
C19   C20   S    
C10   C62   S    
C109  H16   S    
O30   P7    S    
C42   H128  S    
C78   H168  S    
C75   H165  S    
C62   O2    S    
C99   P3    S    
C50   C54   A    
C79   H178  S    
O35   P15   D    
C54   C59   A    
C84   C89   S    
C13   H131  S    
C23   H98   S    
Ba1   P1    S    
C27   C60   S    
C24   H132  S    
Ba2   O37   S    
H174  N3    S    
C119  H34   S    
C44   C94   S    
C71   H157  S    
C17   H83   S    
C91   C107  S    
C89   C103  S    
C89   H104  S    
C35   C96   A    
C104  H185  S    
Ba2   O12   S    
C92   H1    S    
C114  H27   S    
C83   O22   S    
C25   H95   S    
C50   C68   A    
C12   C14   S    
C9    H58   S    
C105  H6    S    
Ba4   O8    S    
C88   P4    S    
C63   C72   S    
C118  C119  S    
C47   P7    S    
C48   C52   A    
C90   H105  S    
C101  H181  S    
O44   P12   S    
