data_mof_unit_49607.cif
_audit_creation_date              2012-12-11T17:04:44-0500
_audit_creation_method            fapswitch 2.2
_symmetry_space_group_name_H-M    P1
_symmetry_Int_Tables_number       1
_space_group_crystal_system       triclinic
_cell_length_a                    17.33545
_cell_length_b                    24.38958
_cell_length_c                    14.842288
_cell_angle_alpha                 89.449963
_cell_angle_beta                  125.742783
_cell_angle_gamma                 90.028648
_cell_volume                      5093.06447973

loop_
_atom_site_label
_atom_site_type_symbol
_atom_type_description
_atom_site_fract_x
_atom_site_fract_y
_atom_site_fract_z
_atom_type_partial_charge
C1    C     C_R   0.807031 0.622992 0.906220 -0.155880
C2    C     C_R   0.150722 0.651281 0.094596 -0.169603
C3    C     C_R   0.307013 0.122964 0.906212 -0.155823
C4    C     C_R   0.650730 0.151278 0.094599 -0.169586
C5    C     C_R   0.817574 0.359711 0.003990 0.017908
C6    C     C_R   0.113926 0.315244 0.002807 0.036898
C7    C     C_R   0.317569 0.859714 0.003988 0.017877
C8    C     C_R   0.613905 0.815243 0.002813 0.036930
C9    C     C_R   0.069386 0.501147 0.371351 0.084984
C10   C     C_R   0.050232 0.501446 0.724920 0.070872
C11   C     C_R   0.569386 0.001147 0.371351 0.085028
C12   C     C_R   0.550232 0.001445 0.724920 0.070876
C13   C     C_R   0.691649 0.502574 0.637075 0.043188
C14   C     C_R   0.324427 0.500645 0.272594 0.035267
C15   C     C_R   0.191803 0.002590 0.636947 0.043121
C16   C     C_R   0.824460 0.000638 0.272828 0.035442
C17   C     C_3   0.521291 0.469051 0.521600 -0.153912
C18   C     C_3   0.490842 0.449974 0.406621 -0.162563
C19   C     C_3   0.021225 0.969701 0.522265 -0.153523
C20   C     C_3   0.990508 0.949855 0.407642 -0.162459
C21   C     C_3   0.456106 0.519397 0.470144 -0.138395
C22   C     C_3   0.571327 0.484128 0.417630 -0.147424
C23   C     C_3   0.956455 0.020166 0.469945 -0.138590
C24   C     C_3   0.071199 0.983385 0.417862 -0.147677
C25   C     C_3   0.425920 0.500448 0.355618 0.182450
C26   C     C_3   0.599878 0.503138 0.531313 0.176804
C27   C     C_3   0.925974 0.000442 0.355750 0.182517
C28   C     C_3   0.100036 0.003164 0.531216 0.176913
C29   C     C_3   0.503816 0.534804 0.364203 -0.155914
C30   C     C_3   0.535044 0.553635 0.480161 -0.156342
C31   C     C_3   0.004087 0.034178 0.363546 -0.155895
C32   C     C_3   0.035623 0.053783 0.479195 -0.156691
C33   C     C_R   0.779343 0.305102 0.113963 0.055406
C34   C     C_R   0.100481 0.227591 0.906098 0.068370
C35   C     C_R   0.279334 0.805107 0.113960 0.055395
C36   C     C_R   0.600471 0.727578 0.906147 0.068368
C37   C     C_R   0.749129 0.331011 0.013742 0.091080
C38   C     C_R   0.139782 0.257816 0.003366 0.078255
C39   C     C_R   0.249120 0.831016 0.013739 0.091088
C40   C     C_R   0.639781 0.757822 0.003394 0.078222
C41   C     C_R   0.655980 0.321167 0.920282 -0.202745
C42   C     C_R   0.217438 0.233529 0.101981 -0.237315
C43   C     C_R   0.155970 0.821173 0.920280 -0.202775
C44   C     C_R   0.717489 0.733567 0.102011 -0.237279
C45   C     C_R   0.903143 0.378895 0.094289 -0.195822
C46   C     C_R   0.053592 0.347859 0.909595 -0.200304
C47   C     C_R   0.403142 0.878895 0.094288 -0.195767
C48   C     C_R   0.553582 0.847856 0.909598 -0.200296
C49   C     C_R   0.108048 0.774609 0.919086 -0.186992
C50   C     C_R   0.761076 0.686364 0.100320 -0.171331
C51   C     C_R   0.608058 0.274604 0.919088 -0.186994
C52   C     C_R   0.260999 0.186315 0.100278 -0.171322
C53   C     C_R   0.153439 0.739270 0.012158 0.016709
C54   C     C_R   0.737033 0.666123 0.998915 0.030130
C55   C     C_R   0.653450 0.239265 0.012161 0.016699
C56   C     C_R   0.236984 0.166091 0.998874 0.030165
C57   C     C_R   0.234827 0.758066 0.111651 -0.068262
C58   C     C_R   0.650543 0.684551 0.903053 -0.059339
C59   C     C_R   0.734837 0.258061 0.111655 -0.068249
C60   C     C_R   0.150515 0.184539 0.903000 -0.059362
C61   C     C_3   0.327919 0.732116 0.206971 0.652967
C62   C     C_3   0.599952 0.691346 0.779169 0.663212
C63   C     C_3   0.827926 0.232115 0.206991 0.652801
C64   C     C_3   0.099997 0.191375 0.779131 0.663243
C65   C     C_3   0.875307 0.285609 0.211217 -0.650855
C66   C     C_3   0.045588 0.239671 0.783921 -0.655306
C67   C     C_3   0.375300 0.785609 0.211202 -0.650892
C68   C     C_3   0.545484 0.739613 0.783942 -0.655259
C69   C     C_R   0.109544 0.552134 0.629961 0.165945
C70   C     C_R   0.114451 0.551862 0.540407 0.164882
C71   C     C_R   0.609550 0.052133 0.629965 0.165923
C72   C     C_R   0.614458 0.051861 0.540412 0.164855
C73   C     C_R   0.099303 0.502848 0.671360 0.031200
C74   C     C_R   0.108280 0.502378 0.489375 0.027211
C75   C     C_R   0.599304 0.002847 0.671361 0.031213
C76   C     C_R   0.608281 0.002377 0.489376 0.027276
C77   C     C_R   0.121043 0.453762 0.641183 -0.202641
C78   C     C_R   0.125012 0.453446 0.549597 -0.201211
C79   C     C_R   0.621041 0.953761 0.641181 -0.202689
C80   C     C_R   0.625010 0.953445 0.549595 -0.201201
C81   C     C_3   0.058654 0.604126 0.493934 -0.525906
C82   C     C_3   0.052697 0.604310 0.591193 -0.524268
C83   C     C_3   0.558668 0.104128 0.493943 -0.525900
C84   C     C_3   0.552710 0.104311 0.591203 -0.524255
C85   C     C_R   0.052804 0.546290 0.305719 -0.159686
C86   C     C_R   0.021689 0.546842 0.754261 -0.144703
C87   C     C_R   0.552804 0.046290 0.305719 -0.159666
C88   C     C_R   0.521688 0.046842 0.754260 -0.144691
C89   C     C_R   0.740727 0.456430 0.696068 -0.150475
C90   C     C_R   0.268826 0.454831 0.246659 -0.143063
C91   C     C_R   0.240787 0.956440 0.696003 -0.150580
C92   C     C_R   0.768841 0.954823 0.246772 -0.142876
C93   C     C_R   0.052556 0.455426 0.307647 -0.146664
C94   C     C_R   0.017934 0.455136 0.749047 -0.124337
C95   C     C_R   0.552556 0.955426 0.307647 -0.146654
C96   C     C_R   0.517934 0.955136 0.749048 -0.124338
C97   C     C_R   0.740747 0.547466 0.697238 -0.163325
C98   C     C_R   0.269270 0.546570 0.249046 -0.146828
C99   C     C_R   0.240843 0.047473 0.697166 -0.163120
C100  C     C_R   0.769286 0.046570 0.249149 -0.147074
C101  C     C_R   0.817609 0.367928 0.910290 0.151442
C102  C     C_R   0.141413 0.347527 0.093994 0.139453
C103  C     C_R   0.317604 0.867932 0.910288 0.151408
C104  C     C_R   0.641401 0.847527 0.093998 0.139462
C105  C     C_R   0.901589 0.624847 0.091360 -0.122428
C106  C     C_R   0.060178 0.652908 0.910588 -0.142415
C107  C     C_R   0.401572 0.124839 0.091350 -0.122455
C108  C     C_R   0.560183 0.152907 0.910589 -0.142424
C109  C     C_R   0.810345 0.637232 0.998237 0.055947
C110  C     C_R   0.124155 0.682990 0.004455 0.066118
C111  C     C_R   0.310318 0.137207 0.998220 0.055883
C112  C     C_R   0.624164 0.182986 0.004457 0.066108
H1    H     H_    0.746873 0.624908 0.821271 0.146001
H2    H     H_    0.186439 0.664273 0.179150 0.125717
H3    H     H_    0.246844 0.124849 0.821263 0.146026
H4    H     H_    0.686450 0.164269 0.179153 0.125700
H5    H     H_    0.529836 0.442456 0.588099 0.110647
H6    H     H_    0.471236 0.407577 0.374488 0.105757
H7    H     H_    0.029628 0.943634 0.589295 0.110770
H8    H     H_    0.970601 0.907327 0.376390 0.105601
H9    H     H_    0.493668 0.561395 0.296868 0.120634
H10   H     H_    0.554044 0.596138 0.511853 0.130909
H11   H     H_    0.994067 0.060253 0.295680 0.120631
H12   H     H_    0.055009 0.096399 0.510102 0.130900
H13   H     H_    0.625129 0.345000 0.844787 0.127439
H14   H     H_    0.253309 0.252818 0.180879 0.142664
H15   H     H_    0.125120 0.845006 0.844785 0.127445
H16   H     H_    0.753378 0.752878 0.180891 0.142637
H17   H     H_    0.041317 0.763632 0.842549 0.125887
H18   H     H_    0.822600 0.671835 0.179040 0.119813
H19   H     H_    0.541327 0.263627 0.842552 0.125883
H20   H     H_    0.322492 0.171762 0.178998 0.119817
H21   H     H_    0.927862 0.281611 0.192484 0.194082
H22   H     H_    0.968065 0.233370 0.739833 0.183262
H23   H     H_    0.427846 0.781614 0.192455 0.194122
H24   H     H_    0.467982 0.733260 0.739928 0.183295
H25   H     H_    0.902575 0.310334 0.286564 0.197196
H26   H     H_    0.062522 0.279666 0.763517 0.196659
H27   H     H_    0.402580 0.810331 0.286556 0.197179
H28   H     H_    0.562315 0.779609 0.763422 0.196644
H29   H     H_    0.122194 0.414854 0.677451 0.130269
H30   H     H_    0.128752 0.414251 0.518868 0.132052
H31   H     H_    0.622189 0.914853 0.677448 0.130291
H32   H     H_    0.628747 0.914249 0.518864 0.132063
H33   H     H_    0.987908 0.598879 0.413545 0.198515
H34   H     H_    0.092127 0.638805 0.648797 0.196871
H35   H     H_    0.487920 0.098884 0.413554 0.198506
H36   H     H_    0.592145 0.138805 0.648811 0.196869
H37   H     H_    0.927193 0.379582 0.179511 0.140926
H38   H     H_    0.003921 0.334171 0.825757 0.122047
H39   H     H_    0.427192 0.879582 0.179510 0.140908
H40   H     H_    0.503911 0.834169 0.825761 0.122024
H41   H     H_    0.102042 0.638337 0.495931 0.195481
H42   H     H_    0.978461 0.598982 0.564661 0.200081
H43   H     H_    0.602060 0.138336 0.495944 0.195486
H44   H     H_    0.478473 0.098987 0.564670 0.200081
H45   H     H_    0.075615 0.587731 0.333488 0.101688
H46   H     H_    0.038287 0.589131 0.752431 0.111330
H47   H     H_    0.575613 0.087731 0.333487 0.101683
H48   H     H_    0.538286 0.089131 0.752429 0.111324
H49   H     H_    0.725634 0.415859 0.662350 0.094164
H50   H     H_    0.292016 0.412644 0.260499 0.097000
H51   H     H_    0.225689 0.915865 0.662298 0.094216
H52   H     H_    0.792004 0.912633 0.260581 0.096831
H53   H     H_    0.072268 0.413612 0.337400 0.086674
H54   H     H_    0.028278 0.412687 0.738366 0.094899
H55   H     H_    0.572268 0.913613 0.337400 0.086662
H56   H     H_    0.528279 0.912687 0.738369 0.094897
H57   H     H_    0.727596 0.589576 0.668173 0.110569
H58   H     H_    0.292768 0.588443 0.269602 0.118522
H59   H     H_    0.227728 0.089590 0.668144 0.110457
H60   H     H_    0.792771 0.088448 0.269670 0.118466
H61   H     H_    0.930443 0.629626 0.177734 0.090937
H62   H     H_    0.015225 0.668232 0.826110 0.089016
H63   H     H_    0.430420 0.129623 0.177721 0.090949
H64   H     H_    0.515230 0.168231 0.826112 0.089015
H65   H     H_    0.406181 0.533715 0.488751 0.126050
H66   H     H_    0.621767 0.469898 0.399606 0.112821
H67   H     H_    0.906770 0.035148 0.488410 0.126216
H68   H     H_    0.121448 0.968532 0.400014 0.112732
N1    N     N_R   0.892620 0.603790 0.941770 -0.041557
N2    N     N_R   0.107380 0.603790 0.058230 -0.035876
N3    N     N_R   0.392620 0.103790 0.941770 -0.041578
N4    N     N_R   0.607380 0.103790 0.058230 -0.035872
N5    N     N_R   0.952270 0.397640 0.058010 -0.049620
N6    N     N_R   0.047730 0.397640 0.941990 -0.046936
N7    N     N_R   0.452270 0.897640 0.058010 -0.049618
N8    N     N_R   0.547730 0.897640 0.941990 -0.046941
N9    N     N_R   0.026310 0.529110 0.206760 -0.036224
N10   N     N_R   0.973690 0.529110 0.793240 -0.039588
N11   N     N_R   0.526310 0.029110 0.206760 -0.036226
N12   N     N_R   0.473690 0.029110 0.793240 -0.039577
N13   N     N_R   0.818570 0.472310 0.793020 -0.037653
N14   N     N_R   0.181430 0.472310 0.206980 -0.043149
N15   N     N_R   0.318570 0.972310 0.793020 -0.037664
N16   N     N_R   0.681430 0.972310 0.206980 -0.043125
N17   N     N_R   0.026930 0.472300 0.207330 -0.037061
N18   N     N_R   0.973070 0.472300 0.792670 -0.039555
N19   N     N_R   0.526930 0.972300 0.207330 -0.037074
N20   N     N_R   0.473070 0.972300 0.792670 -0.039542
N21   N     N_R   0.817960 0.529130 0.792460 -0.035100
N22   N     N_R   0.182040 0.529130 0.207540 -0.036535
N23   N     N_R   0.317960 0.029130 0.792460 -0.035140
N24   N     N_R   0.682040 0.029130 0.207540 -0.036488
N25   N     N_R   0.894850 0.397640 0.943830 -0.056869
N26   N     N_R   0.105150 0.397640 0.056170 -0.055779
N27   N     N_R   0.394850 0.897640 0.943830 -0.056869
N28   N     N_R   0.605150 0.897640 0.056170 -0.055798
N29   N     N_R   0.950040 0.603780 0.055950 -0.040322
N30   N     N_R   0.049960 0.603780 0.944050 -0.036293
N31   N     N_R   0.450040 0.103780 0.055950 -0.040327
N32   N     N_R   0.549960 0.103780 0.944050 -0.036297
Ni1   Ni    Ni4+2 0.934160 0.565860 0.869070 0.214503
Ni2   Ni    Ni4+2 0.065840 0.565860 0.130930 0.209719
Ni3   Ni    Ni4+2 0.434160 0.065860 0.869070 0.214474
Ni4   Ni    Ni4+2 0.565840 0.065860 0.130930 0.209715
Ni5   Ni    Ni4+2 0.067260 0.435560 0.132230 0.202013
Ni6   Ni    Ni4+2 0.932740 0.435560 0.867770 0.200442
Ni7   Ni    Ni4+2 0.567260 0.935560 0.132230 0.202030
Ni8   Ni    Ni4+2 0.432740 0.935560 0.867770 0.200419
C113  C     C_3   0.366989 0.682418 0.179293 -0.394350
C114  C     C_3   0.355543 0.685072 0.068186 -0.324927
C115  C     C_3   0.404763 0.636440 0.057248 -0.915594
H69   H     H_    0.482222 0.636932 0.124575 0.259761
H70   H     H_    0.374172 0.597286 0.061497 0.265418
H71   H     H_    0.394452 0.638975 0.976084 0.253251
H72   H     H_    0.279388 0.683939 0.997684 0.215167
H73   H     H_    0.386721 0.723064 0.061144 0.196148
H74   H     H_    0.443811 0.677941 0.247950 0.192506
H75   H     H_    0.333000 0.644401 0.180614 0.183160
C116  C     C_3   0.535490 0.642006 0.711589 -0.424618
C117  C     C_3   0.483811 0.615258 0.757288 -0.308961
C118  C     C_3   0.418939 0.569047 0.683061 -0.912829
H76   H     H_    0.364662 0.584901 0.597892 0.257269
H77   H     H_    0.461476 0.536038 0.680077 0.261398
H78   H     H_    0.381744 0.551438 0.717173 0.254231
H79   H     H_    0.536700 0.597847 0.841520 0.209190
H80   H     H_    0.439807 0.645899 0.763371 0.207886
H81   H     H_    0.482039 0.656106 0.624653 0.208279
H82   H     H_    0.579809 0.610053 0.709003 0.182645
C119  C     C_3   0.867008 0.182414 0.179337 -0.394164
C120  C     C_3   0.855570 0.185060 0.068233 -0.324926
C121  C     C_3   0.904797 0.136425 0.057312 -0.915629
H83   H     H_    0.982254 0.136919 0.124645 0.259757
H84   H     H_    0.874205 0.097272 0.061565 0.265356
H85   H     H_    0.894492 0.138956 0.976152 0.253265
H86   H     H_    0.779416 0.183924 0.997727 0.215158
H87   H     H_    0.886746 0.223051 0.061184 0.196140
H88   H     H_    0.943830 0.177939 0.248000 0.192581
H89   H     H_    0.833023 0.144397 0.180666 0.183235
C122  C     C_3   0.035444 0.142080 0.711438 -0.424462
C123  C     C_3   0.983659 0.115365 0.757040 -0.309227
C124  C     C_3   0.918619 0.069238 0.682670 -0.912792
H90   H     H_    0.864397 0.085170 0.597552 0.257188
H91   H     H_    0.961026 0.036182 0.679582 0.261363
H92   H     H_    0.881349 0.051668 0.716719 0.254245
H93   H     H_    0.036485 0.097886 0.841224 0.209201
H94   H     H_    0.939756 0.146045 0.763209 0.207953
H95   H     H_    0.982050 0.156225 0.624521 0.208358
H96   H     H_    0.079703 0.110098 0.708811 0.182816
O1    O     O_3   0.337653 0.720934 0.308023 -0.640949
C125  C     C_3   0.282149 0.754703 0.327238 0.290138
H97   H     H_    0.205169 0.746362 0.266068 0.081322
H98   H     H_    0.295202 0.798966 0.323513 0.096221
C126  C     C_3   0.308353 0.741967 0.442615 -0.938459
H99   H     H_    0.384775 0.750701 0.506278 0.267637
H100  H     H_    0.265016 0.767709 0.458939 0.209698
H101  H     H_    0.294754 0.698067 0.448943 0.254074
O2    O     O_3   0.655746 0.706895 0.740594 -0.648781
C127  C     C_3   0.725165 0.748079 0.802100 0.281759
H102  H     H_    0.796884 0.729586 0.843212 0.115077
H103  H     H_    0.723362 0.767675 0.868014 0.092733
C128  C     C_3   0.713680 0.792611 0.722493 -0.941167
H104  H     H_    0.641918 0.811544 0.678162 0.249932
H105  H     H_    0.768003 0.824858 0.769267 0.216344
H106  H     H_    0.722720 0.774779 0.660591 0.265701
O3    O     O_3   0.837648 0.220942 0.308039 -0.640975
C129  C     C_3   0.782121 0.254709 0.327220 0.290178
H107  H     H_    0.705145 0.246356 0.266044 0.081320
H108  H     H_    0.795156 0.298973 0.323473 0.096239
C130  C     C_3   0.808315 0.241987 0.442597 -0.938544
H109  H     H_    0.884727 0.250740 0.506266 0.267594
H110  H     H_    0.764950 0.267720 0.458893 0.209738
H111  H     H_    0.794746 0.198084 0.448951 0.254058
O4    O     O_3   0.155876 0.206893 0.740653 -0.648773
C131  C     C_3   0.225329 0.248052 0.802222 0.281791
H112  H     H_    0.297032 0.229540 0.843308 0.115112
H113  H     H_    0.223546 0.267623 0.868171 0.092719
C132  C     C_3   0.213893 0.292610 0.722686 -0.941236
H114  H     H_    0.142146 0.311562 0.678367 0.249935
H115  H     H_    0.268240 0.324839 0.769517 0.216368
H116  H     H_    0.222935 0.274798 0.660771 0.265676
C133  C     C_3   0.768941 0.333796 0.806673 -0.460458
C134  C     C_3   0.788544 0.272272 0.833585 -0.235850
C135  C     C_3   0.751275 0.238937 0.729273 -0.950453
H117  H     H_    0.673363 0.245051 0.668610 0.264005
H118  H     H_    0.787347 0.251356 0.690369 0.260771
H119  H     H_    0.765684 0.194686 0.751616 0.252006
H120  H     H_    0.866423 0.265001 0.892974 0.196532
H121  H     H_    0.753499 0.257354 0.871872 0.206448
H122  H     H_    0.691537 0.342533 0.752000 0.177720
H123  H     H_    0.800025 0.344666 0.761449 0.191944
C136  C     C_3   0.168885 0.329379 0.207542 -0.458846
C137  C     C_3   0.105319 0.283804 0.202909 -0.241240
C138  C     C_3   0.127797 0.273031 0.317523 -0.942529
H124  H     H_    0.204214 0.262525 0.378247 0.265429
H125  H     H_    0.110496 0.309762 0.346382 0.257327
H126  H     H_    0.085019 0.238039 0.313585 0.255857
H127  H     H_    0.029745 0.295858 0.143919 0.195938
H128  H     H_    0.114655 0.244786 0.173045 0.207946
H129  H     H_    0.245340 0.318629 0.264196 0.164344
H130  H     H_    0.160658 0.365128 0.247115 0.201168
C139  C     C_3   0.268918 0.833812 0.806655 -0.460422
C140  C     C_3   0.288488 0.772284 0.833536 -0.235882
C141  C     C_3   0.251195 0.738961 0.729204 -0.950483
H131  H     H_    0.173285 0.745087 0.668551 0.264012
H132  H     H_    0.287266 0.751378 0.690298 0.260771
H133  H     H_    0.265586 0.694706 0.751525 0.252001
H134  H     H_    0.366363 0.764999 0.892915 0.196538
H135  H     H_    0.253439 0.757368 0.871819 0.206460
H136  H     H_    0.191519 0.842565 0.751985 0.177784
H137  H     H_    0.300011 0.844678 0.761440 0.191938
C142  C     C_3   0.668843 0.829379 0.207536 -0.458837
C143  C     C_3   0.605299 0.783786 0.202890 -0.241216
C144  C     C_3   0.627720 0.773034 0.317483 -0.942495
H138  H     H_    0.704150 0.762577 0.378276 0.265429
H139  H     H_    0.610316 0.809758 0.346252 0.257309
H140  H     H_    0.584987 0.738017 0.313552 0.255876
H141  H     H_    0.529714 0.795808 0.143837 0.195919
H142  H     H_    0.614717 0.744766 0.173103 0.207958
H143  H     H_    0.745302 0.818646 0.264223 0.164302
H144  H     H_    0.660571 0.865125 0.247080 0.201189

loop_
_geom_bond_atom_site_label_1
_geom_bond_atom_site_label_2
_ccdc_geom_bond_type
C63   C65   S    
C22   C29   S    
C55   C59   A    
C115  H69   S    
C115  H71   S    
C123  H94   S    
C130  H111  S    
C137  H128  S    
N23   Ni3   S    
C104  C142  S    
C48   N8    A    
C5    C37   S    
C11   C76   S    
C118  H77   S    
N15   N23   A    
C10   C94   A    
C85   N9    A    
C63   C119  S    
C128  H106  S    
N13   N21   A    
C14   C90   A    
N8    N28   A    
C19   C20   S    
C143  C144  S    
C70   C74   A    
C96   H56   S    
N16   N24   A    
C18   H6    S    
C23   H67   S    
C65   H25   S    
C21   H65   S    
C33   C59   A    
C34   C60   A    
N18   Ni6   S    
C18   C25   S    
C1    H1    S    
C25   C29   S    
C5    C101  A    
C27   C31   S    
C142  C143  S    
C52   H20   S    
C41   H13   S    
C28   C32   S    
C119  H88   S    
C43   H15   S    
C51   H19   S    
C140  C141  S    
C17   C21   S    
C64   C66   S    
C19   C23   S    
N11   Ni4   S    
C91   N15   A    
C136  C137  S    
C36   C40   A    
C89   N13   A    
N22   Ni2   S    
C8    C104  A    
N20   Ni8   S    
C127  H103  S    
C68   H28   S    
C20   H8    S    
C136  H129  S    
C44   C50   A    
C131  C132  S    
C92   N16   A    
C125  H98   S    
C36   C68   S    
C57   C61   S    
C59   C63   S    
C62   C68   S    
C60   C64   S    
C61   O1    S    
C101  C133  S    
C2    H2    S    
C45   N5    A    
C114  H72   S    
C49   C53   A    
C87   H47   S    
C51   C55   A    
C6    C102  A    
C13   C97   A    
C69   C70   A    
C77   H29   S    
C42   H14   S    
C15   C91   A    
C12   C75   S    
N7    N27   A    
C73   C77   A    
C8    C40   S    
C75   C79   A    
C41   C51   A    
C42   C52   A    
C123  C124  S    
C106  N30   A    
C131  H113  S    
C100  H60   S    
C84   H44   S    
C34   C66   S    
C139  C140  S    
C135  H118  S    
N6    Ni6   S    
C133  C134  S    
C90   H50   S    
C103  N27   A    
O1    C125  S    
C83   H43   S    
C64   C122  S    
N2    N30   A    
C81   H41   S    
C119  C120  S    
C144  H139  S    
C69   C82   S    
C9    C85   A    
C66   H22   S    
C79   H31   S    
C31   C32   S    
C11   C87   A    
C138  H125  S    
C113  H75   S    
C24   H68   S    
C6    C38   S    
C67   H27   S    
C118  H76   S    
C1    C109  A    
N28   Ni7   S    
N12   N20   A    
N31   Ni4   S    
C7    C103  A    
O3    C129  S    
C108  N32   A    
C14   C98   A    
N14   Ni5   S    
N26   Ni5   S    
C86   N10   A    
N6    N26   A    
C30   H10   S    
N19   Ni7   S    
C16   C100  A    
C143  H141  S    
C120  H87   S    
C116  H82   S    
C93   N17   A    
C29   C30   S    
C126  H100  S    
C61   C67   S    
C83   C84   S    
C66   H26   S    
N32   Ni3   S    
C35   C67   S    
C121  H85   S    
C17   C18   S    
C88   H48   S    
C19   C28   S    
C102  N26   A    
C26   C30   S    
C74   C78   A    
C117  H79   S    
C13   C26   S    
C9    C74   S    
C47   N7    A    
N16   Ni7   S    
C140  H134  S    
C96   N20   A    
C21   C25   S    
C10   C86   A    
C141  H133  S    
C7    C39   S    
C56   C111  S    
C99   N23   A    
C18   C22   S    
C107  C111  A    
C24   C28   S    
C97   N21   A    
C95   H55   S    
C124  H92   S    
C115  H70   S    
C125  H97   S    
C130  H110  S    
N30   Ni1   S    
N24   Ni4   S    
C103  C139  S    
C134  H120  S    
C128  H105  S    
C37   C41   A    
C118  H78   S    
C98   H58   S    
C40   C44   A    
C129  H107  S    
N1    Ni1   S    
C142  H144  S    
C3    N3    A    
C64   O4    S    
C58   C62   S    
C139  H137  S    
C94   H54   S    
C125  C126  S    
C122  C123  S    
C77   C78   A    
N27   Ni8   S    
C50   C54   A    
C78   H30   S    
C54   C58   A    
C134  C135  S    
C10   C73   S    
N4    Ni4   S    
C107  N31   A    
C121  H83   S    
N14   N22   A    
C132  H116  S    
C105  N29   A    
C105  C109  A    
C122  H95   S    
C102  C136  S    
C3    C111  A    
C129  C130  S    
C29   H9    S    
C69   C73   A    
N12   Ni3   S    
C17   H5    S    
C84   H36   S    
C19   H7    S    
C141  H131  S    
O2    C127  S    
N3    Ni3   S    
C127  C128  S    
C91   H51   S    
C85   H45   S    
N17   Ni5   S    
C89   H49   S    
C82   H34   S    
C123  H93   S    
N8    Ni8   S    
C137  H127  S    
C76   C80   A    
C139  H136  S    
C135  H117  S    
C53   C57   A    
C63   O3    S    
C5    C45   A    
C33   C37   A    
C56   C60   A    
C7    C47   A    
C67   H23   S    
C8    C48   A    
O4    C131  S    
C90   N14   A    
C114  H73   S    
C120  C121  S    
C106  H62   S    
N21   Ni1   S    
C47   H39   S    
C16   C92   A    
C48   H40   S    
N10   N18   A    
C87   N11   A    
C88   N12   A    
C2    C110  A    
C1    N1    A    
C4    H4    S    
C119  H89   S    
C20   C27   S    
C21   C30   S    
N29   Ni2   S    
C35   C57   A    
C23   C32   S    
C24   C31   S    
C3    H3    S    
C100  N24   A    
C15   C28   S    
C124  H90   S    
C107  H63   S    
C108  H64   S    
C117  C118  S    
C104  N28   A    
C14   C25   S    
C144  H138  S    
C61   C113  S    
C72   C83   S    
C62   O2    S    
C108  C112  A    
C71   C72   A    
C133  H122  S    
C62   C116  S    
C22   C26   S    
C113  H74   S    
C127  H102  S    
C12   C96   A    
C143  H142  S    
C136  H130  S    
C53   C110  S    
C55   C112  S    
C32   H12   S    
C35   C39   A    
C22   H66   S    
C81   C82   S    
C33   C65   S    
N7    Ni7   S    
N5    Ni5   S    
C138  H124  S    
C17   C26   S    
C116  H81   S    
N11   N19   A    
C38   C42   A    
C36   C58   A    
C131  H112  S    
C122  H96   S    
C99   H59   S    
N3    N31   A    
C97   H57   S    
N1    N29   A    
C2    N2    A    
C70   C81   S    
C50   H18   S    
C20   C24   S    
C121  H84   S    
C23   C27   S    
C126  H99   S    
C92   H52   S    
C4    C112  A    
C93   H53   S    
C117  H80   S    
N15   Ni8   S    
N10   Ni1   S    
N4    N32   A    
C135  H119  S    
C140  H135  S    
N13   Ni6   S    
N25   Ni6   S    
C141  H132  S    
N5    N25   A    
C68   H24   S    
C124  H91   S    
C43   C49   A    
C39   C43   A    
C80   H32   S    
C130  H109  S    
C49   H17   S    
C46   N6    A    
C54   C109  S    
C94   N18   A    
C144  H140  S    
C134  H121  S    
C113  C114  S    
C138  H126  S    
N9    N17   A    
C128  H104  S    
C72   C76   A    
C4    N4    A    
C86   H46   S    
C101  N25   A    
C83   H35   S    
C137  C138  S    
C46   H38   S    
C81   H33   S    
C129  H108  S    
C142  H143  S    
C9    C93   A    
C132  H114  S    
C71   C84   S    
C106  C110  A    
C11   C95   A    
C44   H16   S    
C6    C46   A    
C13   C89   A    
C34   C38   A    
C98   N22   A    
C15   C99   A    
C120  H86   S    
C31   H11   S    
C71   C75   A    
C16   C27   S    
C132  H115  S    
C45   H37   S    
C114  C115  S    
C126  H101  S    
C65   H21   S    
N9    Ni2   S    
C79   C80   A    
C82   H42   S    
C95   N19   A    
C116  C117  S    
N2    Ni2   S    
C105  H61   S    
C133  H123  S    
C12   C88   A    
C52   C56   A    
