data_mof_unit_24675.cif
_audit_creation_date              2013-03-05T16:43:42-0500
_audit_creation_method            fapswitch 2.2
_symmetry_space_group_name_H-M    P1
_symmetry_Int_Tables_number       1
_space_group_crystal_system       triclinic
_cell_length_a                    15.696956
_cell_length_b                    10.675924
_cell_length_c                    9.898721
_cell_angle_alpha                 90.310124
_cell_angle_beta                  90.564296
_cell_angle_gamma                 90.283159
_cell_volume                      1658.69735978

loop_
_atom_site_label
_atom_site_type_symbol
_atom_site_description
_atom_site_fract_x
_atom_site_fract_y
_atom_site_fract_z
_atom_type_partial_charge
O1    O     O_R   0.500010 0.316790 0.614690 -0.619989
O2    O     O_R   0.500000 0.316760 0.385350 -0.596887
C1    C     C_R   0.501521 0.260230 0.499897 0.885248
O3    O     O_R   0.376780 0.500010 0.614650 -0.625214
O4    O     O_R   0.376770 0.499970 0.385310 -0.588547
C2    C     C_R   0.337946 0.499999 0.499434 0.920120
Zn1   Zn    Zn3+2 0.500010 0.500020 0.653130 0.949813
Zn2   Zn    Zn3+2 0.499990 0.499980 0.346870 0.966437
O5    O     O_R   0.500000 0.683240 0.614650 -0.622025
O6    O     O_R   0.499990 0.683210 0.385310 -0.626741
O7    O     O_R   0.623230 0.500030 0.614690 -0.605169
O8    O     O_R   0.623220 0.499990 0.385350 -0.627074
C3    C     C_R   0.501438 0.739829 0.500325 0.874197
C4    C     C_R   0.662025 0.500027 0.500526 0.904763
C5    C     C_3   0.972533 0.425622 0.599710 -0.177687
C6    C     C_3   0.027605 0.383566 0.479096 -0.141187
H1    H     H_    0.052501 0.287760 0.461529 0.144840
H2    H     H_    0.947833 0.364318 0.680811 0.134181
H3    H     H_    0.944286 0.423992 0.282699 0.136078
C7    C     C_1   0.248908 0.500448 0.498474 -0.157669
C8    C     C_1   0.751002 0.499902 0.501324 -0.169706
C9    C     C_3   0.029281 0.543156 0.620424 -0.176950
C10   C     C_3   0.082545 0.501089 0.499773 0.207234
C11   C     C_3   0.972156 0.618135 0.521974 -0.171863
C12   C     C_3   0.917279 0.500578 0.501212 0.199780
C13   C     C_3   0.027249 0.576101 0.401345 -0.152685
C14   C     C_3   0.970541 0.458554 0.380633 -0.154411
C15   C     C_1   0.173504 0.500862 0.498741 -0.060399
C16   C     C_1   0.826379 0.500081 0.501404 -0.089313
H4    H     H_    0.051839 0.637550 0.320289 0.138087
H5    H     H_    0.947145 0.713856 0.539645 0.129585
H6    H     H_    0.055470 0.577744 0.718388 0.137337
C17   C     C_R   0.492446 0.064614 0.620045 0.118809
C18   C     C_R   0.510791 0.128609 0.501752 -0.092340
C19   C     C_R   0.541769 0.064464 0.388741 -0.208099
H7    H     H_    0.561770 0.113619 0.298886 0.171805
C20   C     C_R   0.541855 0.934851 0.389150 -0.220422
H8    H     H_    0.562059 0.884839 0.299559 0.167074
C21   C     C_R   0.510620 0.871659 0.502340 -0.086904
C22   C     C_R   0.491931 0.936998 0.620114 0.099928
C23   C     C_3   0.414266 0.930549 0.706246 -0.480470
C24   C     C_3   0.415234 0.072501 0.706876 -0.446310
H9    H     H_    0.358282 0.889489 0.651960 0.203138
H10   H     H_    0.427561 0.889861 0.807304 0.200665
H11   H     H_    0.359582 0.114334 0.653640 0.204336
H12   H     H_    0.430030 0.113685 0.807881 0.214870
C25   C     C_R   0.440996 0.431422 0.069617 0.197657
N1    N     N_R   0.499430 0.499140 0.142800 -0.135073
C26   C     C_R   0.563244 0.556593 0.074667 -0.185421
H13   H     H_    0.612929 0.604838 0.131362 0.159912
C27   C     C_R   0.563883 0.556902 0.931295 0.004241
N2    N     N_R   0.499430 0.499180 0.857150 -0.120905
C28   C     C_R   0.440899 0.431626 0.927359 0.128778
C29   C     C_3   0.346591 0.446596 0.920098 -0.537277
C30   C     C_3   0.346689 0.446410 0.073723 0.193366
H14   H     H_    0.327423 0.538196 0.876650 0.189135
H15   H     H_    0.314860 0.363741 0.872797 0.236203
H16   H     H_    0.326503 0.536725 0.119503 0.127947
C31   C     C_R   0.635115 0.622549 0.866736 0.177170
C32   C     C_R   0.625746 0.746476 0.823364 -0.111571
C33   C     C_R   0.694856 0.810949 0.768339 -0.163873
C34   C     C_R   0.774480 0.753361 0.760818 -0.120229
C35   C     C_R   0.785210 0.631728 0.809503 -0.138474
C36   C     C_R   0.715871 0.566522 0.862912 -0.142797
H17   H     H_    0.565261 0.793275 0.833582 0.128445
H18   H     H_    0.686890 0.905997 0.733006 0.135508
H19   H     H_    0.828052 0.803416 0.718703 0.123837
H20   H     H_    0.847145 0.587796 0.805323 0.135113
H21   H     H_    0.724885 0.472398 0.900606 0.120720
Cl1   Cl    Cl    0.296214 0.311352 0.142891 -0.612674

loop_
_geom_bond_atom_site_label_1
_geom_bond_atom_site_label_2
_geom_bond_distance
_ccdc_geom_bond_type
C32   H17   1.080415 S    
C5    H2    1.110160 S    
Zn2   N1    2.019936 S    
C26   C27   1.419354 A    
C22   C23   1.496043 S    
C20   H8    1.083619 S    
O4    Zn2   1.974925 S    
C2    C7    1.397587 S    
C23   C24   1.515450 S    
C29   C30   1.520686 S    
C25   N1    1.365084 A    
C25   C28   1.408173 A    
Zn2   O8    1.967799 S    
C6    C14   1.546457 S    
C17   C18   1.390741 A    
C13   C14   1.546551 S    
C11   H5    1.110143 S    
C31   C32   1.401139 A    
C20   C21   1.402362 A    
O1    Zn1   1.990791 S    
C36   H21   1.083237 S    
N2    C28   1.363341 A    
Zn1   O7    1.974923 S    
C23   H9    1.112426 S    
C31   C36   1.405094 A    
O4    C2    1.288847 A    
C9    H6    1.110162 S    
C34   H19   1.082296 S    
C32   C33   1.398435 A    
O3    Zn1   1.967797 S    
C17   C24   1.495167 S    
O6    C3    1.286070 A    
C4    C8    1.396615 S    
O3    C2    1.287871 A    
N1    C26   1.358731 A    
O7    C4    1.288979 A    
C11   C13   1.547070 S    
Zn1   N2    2.019715 S    
C13   H4    1.110141 S    
C6    C10   1.530638 S    
O2    C1    1.287430 A    
C9    C10   1.531217 S    
C12   C16   1.426846 S    
C33   C34   1.398069 A    
C18   C19   1.400907 A    
C23   H10   1.111044 S    
C29   H14   1.112078 S    
C3    C21   1.414071 S    
C30   Cl1   1.784825 S    
C12   C14   1.530510 S    
C10   C15   1.427919 S    
C35   C36   1.398770 A    
C27   N2    1.384304 A    
C17   C22   1.362413 A    
C27   C31   1.470015 S    
C11   C12   1.530485 S    
C5    C12   1.530322 S    
Zn2   O6    1.990791 S    
C26   H13   1.082957 S    
C24   H12   1.112009 S    
C10   C13   1.530575 S    
C21   C22   1.389862 A    
Zn1   O5    1.994809 S    
C25   C30   1.490667 S    
C30   H16   1.112001 S    
C35   H20   1.082560 S    
C6    H1    1.110168 S    
O5    C3    1.286061 A    
C19   H7    1.083519 S    
C7    C15   1.183686 T    
C1    C18   1.413607 S    
C19   C20   1.383774 A    
C28   C29   1.490804 S    
C8    C16   1.183177 T    
C33   H18   1.082522 S    
C24   H11   1.112470 S    
C5    C9    1.546798 S    
O2    Zn2   1.994806 S    
C34   C35   1.397919 A    
C5    C6    1.546837 S    
C9    C11   1.546885 S    
O8    C4    1.287313 A    
H3    C14   1.110191 S    
O1    C1    1.284362 A    
C29   H15   1.111892 S    
