data_mof_unit_23329.cif
_audit_creation_date              2012-12-10T20:38:22-0500
_audit_creation_method            fapswitch 2.2
_symmetry_space_group_name_H-M    P1
_symmetry_Int_Tables_number       1
_space_group_crystal_system       triclinic
_cell_length_a                    9.876307
_cell_length_b                    10.674734
_cell_length_c                    16.851126
_cell_angle_alpha                 91.084475
_cell_angle_beta                  84.696292
_cell_angle_gamma                 90.528756
_cell_volume                      1768.59008504

loop_
_atom_site_label
_atom_site_type_symbol
_atom_type_description
_atom_site_fract_x
_atom_site_fract_y
_atom_site_fract_z
_atom_type_partial_charge
C1    C     C_R   0.499827 0.739458 0.499695 0.940905
C2    C     C_R   0.531442 0.510601 0.260150 -0.033506
C3    C     C_R   0.394700 0.936693 0.536032 0.127982
C4    C     C_R   0.480717 0.480525 0.651337 0.933990
C5    C     C_R   0.496597 0.870257 0.492359 -0.137505
C6    C     C_R   0.584248 0.929152 0.435039 -0.198435
C7    C     C_R   0.588135 0.059241 0.432863 0.462496
C8    C     C_R   0.497313 0.127220 0.487605 -0.250847
C9    C     C_R   0.394223 0.064295 0.533239 0.096353
C10   C     C_3   0.350991 0.076574 0.620505 -0.353292
C11   C     C_3   0.353795 0.935046 0.623470 -0.441474
C12   C     C_R   0.352560 0.403328 0.782534 0.414884
C13   C     C_R   0.921007 0.555728 0.561463 0.072908
C14   C     C_R   0.936865 0.441811 0.440783 -0.043939
C15   C     C_R   0.080642 0.441945 0.440664 -0.102281
C16   C     C_R   0.500182 0.260015 0.495709 0.943904
C17   C     C_R   0.062665 0.548342 0.563656 0.238575
C18   C     C_3   0.077230 0.675711 0.597661 -0.593590
C19   C     C_3   0.926190 0.692556 0.588862 0.611013
C20   C     C_R   0.519544 0.504896 0.346980 0.901361
C21   C     C_R   0.474000 0.430562 0.732790 -0.244386
C22   C     C_R   0.600415 0.403645 0.760862 -0.167029
C23   C     C_R   0.423452 0.470185 0.139524 -0.180663
C24   C     C_R   0.609874 0.374018 0.839001 -0.072148
C25   C     C_R   0.494248 0.377244 0.891960 0.135830
C26   C     C_R   0.363845 0.388722 0.865211 0.140207
C27   C     C_3   0.769416 0.612186 0.252933 -0.806695
C28   C     C_3   0.241461 0.392797 0.926705 -0.740897
C29   C     C_R   0.419151 0.469136 0.221426 -0.169125
C30   C     C_R   0.649046 0.557600 0.215041 0.131764
C31   C     C_R   0.652478 0.555749 0.131944 -0.100873
C32   C     C_R   0.540953 0.510752 0.094587 0.044170
C33   C     C_2   0.513676 0.389666 0.975943 -0.364634
C34   C     C_2   0.547754 0.500622 0.008157 0.388053
H1    H     H_    0.694947 0.409108 0.723062 0.225076
H2    H     H_    0.104289 0.673782 0.660036 0.268348
H3    H     H_    0.327771 0.433862 0.254409 0.162875
H4    H     H_    0.148349 0.733153 0.558682 0.225789
H5    H     H_    0.335682 0.436911 0.110981 0.145069
H6    H     H_    0.485977 0.309878 0.013373 0.169161
H7    H     H_    0.709431 0.361688 0.859879 0.184431
H8    H     H_    0.725753 0.285209 0.286385 0.371411
H9    H     H_    0.616893 0.745826 0.723754 0.393050
H10   H     H_    0.966277 0.717765 0.403507 0.347923
H11   H     H_    0.734835 0.686371 0.297041 0.270535
H12   H     H_    0.742773 0.587094 0.096088 0.151063
H13   H     H_    0.822863 0.537526 0.282305 0.236925
H14   H     H_    0.844264 0.655652 0.208191 0.239229
H15   H     H_    0.682605 0.782242 0.020870 0.371704
H16   H     H_    0.257390 0.465334 0.973044 0.226638
H17   H     H_    0.145830 0.418876 0.902432 0.273663
H18   H     H_    0.227458 0.300263 0.955429 0.238938
H19   H     H_    0.014548 0.474996 0.795506 0.400017
H20   H     H_    0.654785 0.874006 0.396019 0.221745
H21   H     H_    0.428601 0.123693 0.654783 0.197450
H22   H     H_    0.246131 0.113102 0.631932 0.278844
H23   H     H_    0.434915 0.898902 0.658287 0.234212
H24   H     H_    0.251524 0.892796 0.637824 0.232572
H25   H     H_    0.890154 0.398322 0.391673 0.179383
H26   H     H_    0.141863 0.397170 0.391837 0.156525
N1    N     N_R   0.857140 0.500860 0.500530 -0.113171
N2    N     N_R   0.142780 0.500820 0.500530 -0.103547
O1    O     O_R   0.385310 0.683210 0.499990 -0.648060
O2    O     O_2   0.763944 0.036266 0.302037 -0.281327
O3    O     O_3   0.649912 0.253221 0.323277 -0.594197
O4    O     O_2   0.840722 0.614777 0.737248 -0.298641
O5    O     O_2   0.883963 0.839404 0.720602 -0.219202
O6    O     O_3   0.664670 0.744460 0.669410 -0.535190
O7    O     O_2   0.782407 0.890301 0.544429 -0.201746
O8    O     O_2   0.023682 0.895994 0.504074 -0.291489
O9    O     O_3   0.875163 0.744058 0.427109 -0.572180
O10   O     O_2   0.731049 0.621890 0.909834 -0.276760
O11   O     O_2   0.491870 0.654454 0.889995 -0.255698
O12   O     O_R   0.614650 0.683240 0.500000 -0.525638
O13   O     O_3   0.586636 0.764424 0.011723 -0.509638
O14   O     O_2   0.201319 0.337342 0.658479 -0.282488
O15   O     O_2   0.122980 0.265854 0.790241 -0.310120
O16   O     O_3   0.095701 0.501790 0.760868 -0.534439
O17   O     O_R   0.371780 0.500000 0.615800 -0.549293
O18   O     O_R   0.601120 0.500040 0.615800 -0.597299
O19   O     O_R   0.385350 0.316760 0.500000 -0.593858
O20   O     O_R   0.614690 0.316790 0.500010 -0.570533
O21   O     O_R   0.398880 0.499960 0.384200 -0.643683
O22   O     O_R   0.628220 0.500000 0.384200 -0.603073
O23   O     O_2   0.830785 0.169204 0.411816 -0.261254
S1    S     S_3+6 0.713819 0.129059 0.366099 0.048753
S2    S     S_3+6 0.829332 0.723077 0.682855 0.112951
S3    S     S_3+6 0.901800 0.810495 0.515614 0.082809
S4    S     S_3+6 0.590643 0.636634 0.951455 0.053763
S5    S     S_3+6 0.191579 0.373009 0.745278 0.007692
Zn1   Zn    Zn3+2 0.346870 0.499980 0.499990 1.018037
Zn2   Zn    Zn3+2 0.653130 0.500020 0.500010 1.062867

loop_
_geom_bond_atom_site_label_1
_geom_bond_atom_site_label_2
_ccdc_geom_bond_type
C27   H14   S    
O10   S4    D    
C15   H26   S    
O8    S3    D    
C7    C8    A    
O23   S1    D    
O16   S5    S    
C22   H1    S    
C2    C29   A    
C1    C5    S    
C1    O12   A    
C23   C29   A    
C12   S5    S    
C4    O18   A    
C19   S2    S    
C30   C31   A    
C28   H17   S    
C7    S1    S    
O20   Zn2   S    
H10   O9    S    
C18   C19   S    
O12   Zn2   S    
C28   H16   S    
C8    C9    A    
C31   H12   S    
H8    O3    S    
H15   O13   S    
C11   H24   S    
C10   H22   S    
C9    C10   S    
O17   Zn1   S    
N1    Zn2   S    
C27   H11   S    
C8    C16   S    
C21   C22   A    
C27   C30   S    
C24   H7    S    
C6    H20   S    
C1    O1    A    
O2    S1    D    
C33   C34   D    
O15   S5    D    
C33   H6    S    
C13   C19   S    
C2    C20   S    
O3    S1    S    
C24   C25   A    
C4    O17   A    
C19   S3    S    
O4    S2    D    
H9    O6    S    
C25   C26   A    
C14   N1    A    
C12   C21   A    
C12   C26   A    
C32   C34   S    
O18   Zn2   S    
C3    C9    A    
C17   N2    A    
C31   C32   A    
N2    Zn1   S    
C25   C33   S    
C16   O20   A    
C17   C18   S    
C10   H21   S    
O7    S3    D    
C20   O22   A    
C22   C24   A    
O1    Zn1   S    
C27   H13   S    
O5    S2    D    
C3    C5    A    
C6    C7    A    
O21   Zn1   S    
C26   C28   S    
C13   C17   A    
C2    C30   A    
C23   C32   A    
H19   O16   S    
C18   H4    S    
C34   S4    S    
O11   S4    D    
C4    C21   S    
C28   H18   S    
C5    C6    A    
C23   H5    S    
C16   O19   A    
C15   N2    A    
C3    C11   S    
C10   C11   S    
O13   S4    S    
O9    S3    S    
O19   Zn1   S    
C13   N1    A    
C20   O21   A    
C29   H3    S    
O6    S2    S    
C14   C15   A    
O22   Zn2   S    
C14   H25   S    
C11   H23   S    
C18   H2    S    
O14   S5    D    
