data_mof_unit_19830.cif
_audit_creation_date              2012-12-11T16:35:20-0500
_audit_creation_method            fapswitch 2.2
_symmetry_space_group_name_H-M    P1
_symmetry_Int_Tables_number       1
_space_group_crystal_system       triclinic
_cell_length_a                    6.920552
_cell_length_b                    17.74022
_cell_length_c                    19.524835
_cell_angle_alpha                 108.946124
_cell_angle_beta                  90.596562
_cell_angle_gamma                 90.665342
_cell_volume                      2266.83264792

loop_
_atom_site_label
_atom_site_type_symbol
_atom_type_description
_atom_site_fract_x
_atom_site_fract_y
_atom_site_fract_z
_atom_type_partial_charge
O1    O     O_R   0.505700 0.440210 0.561730 -0.547768
O2    O     O_R   0.169350 0.406300 0.412660 -0.551112
O3    O     O_R   0.005650 0.559790 0.438270 -0.512292
C1    C     C_R   0.337188 0.382742 0.385092 0.675357
O4    O     O_R   0.175560 0.430650 0.559600 -0.554265
O5    O     O_R   0.011900 0.584320 0.586250 -0.529077
C2    C     C_R   0.345071 0.414455 0.580672 0.705764
O6    O     O_R   0.499450 0.415680 0.413750 -0.548164
O7    O     O_3   0.341370 0.550390 0.508570 -0.337703
V1    V     V_3+5 0.063940 0.490650 0.498410 1.472546
O8    O     O_R   0.682570 0.593700 0.587340 -0.529976
C3    C     C_R   0.853821 0.617163 0.614901 0.820587
O9    O     O_R   0.676370 0.569350 0.440400 -0.526663
C4    C     C_R   0.845024 0.582467 0.417283 0.895023
V2    V     V_3+5 0.564750 0.509350 0.501590 1.501247
O10   O     O_3   0.837190 0.449610 0.491430 -0.398363
C5    C     C_R   0.033083 0.728746 0.327313 0.592301
C6    C     C_R   0.014533 0.683887 0.374152 0.532699
C7    C     C_R   0.858285 0.629661 0.366689 -0.268518
C8    C     C_R   0.723253 0.619271 0.308949 0.049648
C9    C     C_R   0.745686 0.664186 0.261813 -0.167117
H1    H     H_    0.641533 0.657290 0.218260 0.209688
C10   C     C_R   0.898032 0.719777 0.271176 -0.109163
C11   C     C_R   0.750734 0.825129 0.226298 0.051036
C12   C     C_R   0.744528 0.865783 0.174243 0.141978
C13   C     C_R   0.910518 0.865514 0.130673 -0.170046
C14   C     C_R   0.065145 0.816203 0.134210 -0.285517
H2    H     H_    0.188811 0.811875 0.099749 0.170149
C15   C     C_R   0.059602 0.768717 0.179012 0.687871
C16   C     C_R   0.904341 0.772916 0.225665 0.022953
C17   C     C_R   0.028196 0.902317 0.741916 0.549209
C18   C     C_R   0.064733 0.912018 0.674770 -0.005999
C19   C     C_R   0.008508 0.852176 0.611312 -0.212754
C20   C     C_R   0.932766 0.780076 0.613592 0.604045
C21   C     C_R   0.914411 0.765130 0.680339 -0.128342
C22   C     C_R   0.948833 0.829573 0.746195 -0.140077
C23   C     C_R   0.873449 0.687176 0.682808 -0.110604
C24   C     C_R   0.875285 0.674719 0.750984 0.068910
C25   C     C_R   0.876767 0.740516 0.816187 -0.012237
C26   C     C_R   0.909871 0.818482 0.813967 -0.101105
C27   C     C_R   0.884699 0.597294 0.755768 -0.298798
C28   C     C_R   0.872414 0.584241 0.822275 -0.166049
C29   C     C_R   0.854418 0.648338 0.885607 0.711537
C30   C     C_R   0.858884 0.725895 0.883020 -0.253819
H3    H     H_    0.029133 0.860190 0.559159 0.202060
H4    H     H_    0.910636 0.546842 0.708259 0.128127
H5    H     H_    0.878743 0.524263 0.824757 0.173548
H6    H     H_    0.853964 0.774002 0.934026 0.120172
H7    H     H_    0.926005 0.420851 0.192589 0.164777
C31   C     C_R   0.560442 0.243950 0.379407 -0.125215
C32   C     C_R   0.692302 0.184848 0.377805 -0.108487
C33   C     C_R   0.744593 0.130409 0.312131 -0.119179
C34   C     C_R   0.661156 0.133310 0.247861 -0.167726
C35   C     C_R   0.522048 0.191119 0.247456 0.064556
C36   C     C_R   0.477680 0.250077 0.314720 0.066237
C37   C     C_R   0.428991 0.191383 0.182045 -0.154237
C38   C     C_R   0.310247 0.257895 0.183931 0.000073
C39   C     C_R   0.258103 0.314012 0.252140 0.045975
C40   C     C_R   0.349298 0.312668 0.317108 -0.155755
C41   C     C_R   0.246697 0.273610 0.120013 0.012842
C42   C     C_R   0.099830 0.328687 0.123770 0.687488
C43   C     C_R   0.034945 0.376723 0.190092 -0.225348
C44   C     C_R   0.119429 0.372545 0.253321 -0.272419
H8    H     H_    0.522205 0.283948 0.432157 0.105357
H9    H     H_    0.755003 0.181616 0.427791 0.122748
H10   H     H_    0.850035 0.085375 0.310876 0.124170
H11   H     H_    0.712713 0.090861 0.198971 0.123588
H12   H     H_    0.071501 0.415895 0.302534 0.156115
C45   C     C_R   0.525014 0.308603 0.712886 0.715627
C46   C     C_R   0.522787 0.358919 0.669956 0.019170
C47   C     C_R   0.355910 0.361615 0.627414 -0.137588
C48   C     C_R   0.195617 0.312916 0.630236 -0.205230
H13   H     H_    0.066300 0.312801 0.598549 0.152725
C49   C     C_R   0.200141 0.262773 0.672969 -0.196378
H14   H     H_    0.074711 0.225842 0.673418 0.206279
C50   C     C_R   0.365697 0.259410 0.713931 -0.015347
C51   C     C_R   0.228674 0.210025 0.810387 -0.196916
H15   H     H_    0.103512 0.246954 0.813169 0.206723
C52   C     C_R   0.247124 0.168047 0.859536 -0.152625
H16   H     H_    0.131710 0.172307 0.897481 0.165057
C53   C     C_R   0.412469 0.122678 0.860782 -0.100641
C54   C     C_R   0.552379 0.114442 0.806384 -0.029932
C55   C     C_R   0.531693 0.156676 0.756648 0.705641
C56   C     C_R   0.373307 0.206812 0.759975 -0.020572
O11   O     O_R   0.273230 0.084330 0.086440 -0.535388
O12   O     O_R   0.596660 0.069390 0.940470 -0.544238
O13   O     O_R   0.760270 0.915710 0.913690 -0.549884
C57   C     C_R   0.427236 0.079757 0.915161 0.772813
O14   O     O_R   0.603330 0.093680 0.087390 -0.548342
O15   O     O_R   0.766990 0.940160 0.061660 -0.544876
C58   C     C_R   0.435915 0.118183 0.115121 0.692482
O16   O     O_R   0.266510 0.059870 0.938470 -0.516291
O17   O     O_3   0.431050 0.949630 0.991510 -0.373611
V3    V     V_3+5 0.708490 0.009340 0.001580 1.439481
O18   O     O_R   0.096270 0.930570 0.059390 -0.549467
C59   C     C_R   0.926099 0.915220 0.081248 0.716838
O19   O     O_R   0.089600 0.906290 0.912460 -0.511974
C60   C     C_R   0.920312 0.886195 0.883073 0.820742
V4    V     V_3+5 0.207670 0.990600 0.998190 1.487046
O20   O     O_3   0.935250 0.050360 0.008480 -0.366840
F1    F     F_    0.178819 0.783447 0.338706 -0.656223
F2    F     F_    0.082288 0.962937 0.802137 -0.715349
C61   C     C_3   0.170653 0.985163 0.670968 -0.608203
H17   H     H_    0.185928 0.984527 0.614211 0.200364
H18   H     H_    0.093644 0.039976 0.701448 0.225007
H19   H     H_    0.317653 0.987622 0.694979 0.216309
F3    F     F_    0.881598 0.725086 0.549480 -0.673152
F4    F     F_    0.147122 0.695525 0.428531 -0.613850
C62   C     C_3   0.347918 0.243494 0.049061 -0.653603
H20   H     H_    0.253315 0.197739 0.012220 0.201087
H21   H     H_    0.369578 0.292363 0.025775 0.246681
H22   H     H_    0.494345 0.221129 0.053765 0.184937
F5    F     F_    0.027889 0.339519 0.062681 -0.665160
F6    F     F_    0.681203 0.309367 0.756020 -0.672833
C63   C     C_3   0.695464 0.412057 0.673524 -0.697179
H23   H     H_    0.643544 0.473977 0.688016 0.194151
H24   H     H_    0.804437 0.409878 0.714833 0.245427
H25   H     H_    0.769339 0.394378 0.620646 0.203763
C64   C     C_3   0.557778 0.559854 0.295432 -0.633810
H26   H     H_    0.613164 0.499954 0.290984 0.164467
H27   H     H_    0.453173 0.578950 0.340274 0.238695
H28   H     H_    0.478144 0.554616 0.244355 0.217655
C65   C     C_3   0.717826 0.058067 0.798366 -0.604594
H29   H     H_    0.824960 0.082977 0.842916 0.235391
H30   H     H_    0.663669 0.999115 0.798993 0.182316
H31   H     H_    0.791649 0.047483 0.746246 0.241801
F7    F     F_    0.665530 0.148706 0.704356 -0.687027
C66   C     C_3   0.597929 0.840179 0.284209 -0.609823
H32   H     H_    0.460994 0.809554 0.260234 0.285044
H33   H     H_    0.639898 0.819588 0.330045 0.224084
H34   H     H_    0.574279 0.905219 0.308486 0.198003
C67   C     C_3   0.559252 0.906149 0.163918 -0.661279
H35   H     H_    0.505783 0.879330 0.107323 0.217800
H36   H     H_    0.438173 0.899283 0.197958 0.192583
H37   H     H_    0.584342 0.970677 0.176523 0.178698
F8    F     F_    0.205751 0.717421 0.176058 -0.665619
F9    F     F_    0.841392 0.635550 0.950227 -0.647533

loop_
_geom_bond_atom_site_label_1
_geom_bond_atom_site_label_2
_ccdc_geom_bond_type
O17   V3    S    
C36   C40   A    
C14   C15   A    
C19   H3    S    
C27   C28   A    
O18   C59   A    
C1    O6    A    
C66   H32   S    
C50   C56   S    
C53   C54   A    
O11   C58   A    
C65   H29   S    
C51   H15   S    
C13   C14   A    
C5    C10   A    
C49   C50   A    
C20   F3    S    
C21   C23   A    
C23   C24   A    
C6    C7    A    
C62   H21   S    
O5    C3    A    
C24   C25   A    
O12   C57   A    
C65   H30   S    
C63   H23   S    
O13   V3    S    
O19   C60   A    
C3    C23   S    
C31   H8    S    
C37   C38   A    
C45   C50   A    
C5    C6    A    
C20   C21   A    
C32   H9    S    
O14   V3    S    
C5    F1    S    
C41   C62   S    
O12   V3    S    
C35   C36   A    
O8    V2    S    
C37   C58   S    
C7    C8    A    
C67   H35   S    
C63   H24   S    
C27   H4    S    
C46   C47   A    
O1    V2    S    
O14   C58   A    
O7    V1    S    
O17   V4    S    
O13   C60   A    
C64   H27   S    
O9    C4    A    
C42   C43   A    
O19   V4    S    
O15   V3    S    
C6    F4    S    
C51   C52   A    
C13   C59   S    
C35   C37   A    
C45   F6    S    
C49   H14   S    
C32   C33   A    
C10   C16   S    
C57   O16   A    
C22   C26   A    
C11   C12   A    
C24   C27   A    
C48   C49   A    
C62   H22   S    
C25   C26   A    
C52   C53   A    
C38   C41   A    
C51   C56   A    
C12   C13   A    
C34   C35   A    
C41   C42   A    
C21   C22   A    
O2    C1    A    
C29   C30   A    
C17   F2    S    
C15   C16   A    
O11   V4    S    
C55   C56   A    
V3    O20   S    
O8    C3    A    
C63   H25   S    
C43   C44   A    
C31   C32   A    
C18   C61   S    
C61   H18   S    
O3    C4    A    
O6    V2    S    
O9    V2    S    
C42   F5    S    
C28   C29   A    
O2    V1    S    
C66   H34   S    
C54   C65   S    
C61   H17   S    
C33   H10   S    
C33   C34   A    
O4    C2    A    
C64   H28   S    
C39   C44   A    
C44   H12   S    
H7    C43   S    
O1    C2    A    
C4    C7    S    
C17   C18   A    
C55   F7    S    
C48   H13   S    
C65   H31   S    
C66   H33   S    
O5    V1    S    
C64   H26   S    
O15   C59   A    
C25   C30   A    
C46   C63   S    
C31   C36   A    
V4    O20   S    
C18   C19   A    
C9    C10   A    
C39   C40   A    
C47   C48   A    
O3    V1    S    
V1    O10   S    
C62   H20   S    
C2    C47   S    
C38   C39   A    
C67   H37   S    
V2    O10   S    
C1    C40   S    
C19   C20   A    
C29   F9    S    
C61   H19   S    
O18   V4    S    
C28   H5    S    
O7    V2    S    
C45   C46   A    
C34   H11   S    
C11   C16   A    
C53   C57   S    
C52   H16   S    
O4    V1    S    
C15   F8    S    
C8    C9    A    
C67   H36   S    
C54   C55   A    
C14   H2    S    
C11   C66   S    
C17   C22   A    
C26   C60   S    
C9    H1    S    
C12   C67   S    
C8    C64   S    
C30   H6    S    
O16   V4    S    
