data_mof_unit_61849.cif
_audit_creation_date              2013-03-05T15:42:00-0500
_audit_creation_method            fapswitch 2.2
_symmetry_space_group_name_H-M    P1
_symmetry_Int_Tables_number       1
_space_group_crystal_system       triclinic
_cell_length_a                    26.245859
_cell_length_b                    26.246919
_cell_length_c                    22.296681
_cell_angle_alpha                 90.000485
_cell_angle_beta                  53.944551
_cell_angle_gamma                 90.000014
_cell_volume                      12417.4183622

loop_
_atom_site_label
_atom_site_type_symbol
_atom_site_description
_atom_site_fract_x
_atom_site_fract_y
_atom_site_fract_z
_atom_type_partial_charge
Zn1   Zn    Zn3+2 0.823660 0.707100 0.438580 0.969477
Zn2   Zn    Zn3+2 0.823660 0.292900 0.438580 0.969623
Zn3   Zn    Zn3+2 0.323660 0.207100 0.438580 0.969648
Zn4   Zn    Zn3+2 0.323660 0.792900 0.438580 0.969781
Zn5   Zn    Zn3+2 0.676410 0.707120 0.561420 0.978981
Zn6   Zn    Zn3+2 0.676410 0.292880 0.561420 0.978819
Zn7   Zn    Zn3+2 0.176410 0.207120 0.561420 0.978985
Zn8   Zn    Zn3+2 0.176410 0.792880 0.561420 0.978615
Zn9   Zn    Zn3+2 0.737810 0.792950 0.438580 0.966958
Zn10  Zn    Zn3+2 0.737810 0.207050 0.438580 0.966842
Zn11  Zn    Zn3+2 0.237810 0.292950 0.438580 0.966879
Zn12  Zn    Zn3+2 0.237810 0.707050 0.438580 0.966905
Zn13  Zn    Zn3+2 0.762240 0.792950 0.561420 0.999846
Zn14  Zn    Zn3+2 0.762240 0.207050 0.561420 1.000131
Zn15  Zn    Zn3+2 0.262240 0.292950 0.561420 0.999815
Zn16  Zn    Zn3+2 0.262240 0.707050 0.561420 0.999888
O1    O     O_3   0.750030 0.750030 0.500000 -0.491253
O2    O     O_3   0.750030 0.249970 0.500000 -0.491254
O3    O     O_3   0.250030 0.250030 0.500000 -0.491257
O4    O     O_3   0.250030 0.749970 0.500000 -0.491187
O5    O     O_R   0.698090 0.780090 0.663980 -0.616448
O6    O     O_R   0.698090 0.219910 0.663980 -0.616014
O7    O     O_R   0.198090 0.280090 0.663980 -0.616128
O8    O     O_R   0.198090 0.719910 0.663980 -0.616586
O9    O     O_R   0.862050 0.719970 0.336020 -0.636105
O10   O     O_R   0.862050 0.280030 0.336020 -0.635961
O11   O     O_R   0.362050 0.219970 0.336020 -0.636104
O12   O     O_R   0.362050 0.780030 0.336020 -0.636160
O13   O     O_R   0.698510 0.635460 0.542990 -0.642999
O14   O     O_R   0.698510 0.364540 0.542990 -0.642777
O15   O     O_R   0.198510 0.135460 0.542990 -0.642728
O16   O     O_R   0.198510 0.864540 0.542990 -0.642796
O17   O     O_R   0.741470 0.864610 0.457010 -0.645150
O18   O     O_R   0.741470 0.135390 0.457010 -0.645092
O19   O     O_R   0.241470 0.364610 0.457010 -0.645098
O20   O     O_R   0.241470 0.635390 0.457010 -0.644926
O21   O     O_R   0.613960 0.720010 0.542990 -0.640119
O22   O     O_R   0.613960 0.279990 0.542990 -0.640509
O23   O     O_R   0.113960 0.220010 0.542990 -0.640188
O24   O     O_R   0.113960 0.779990 0.542990 -0.640644
O25   O     O_R   0.843120 0.780070 0.542990 -0.636642
O26   O     O_R   0.843120 0.219930 0.542990 -0.636366
O27   O     O_R   0.343120 0.280070 0.542990 -0.636609
O28   O     O_R   0.343120 0.719930 0.542990 -0.636153
O29   O     O_R   0.656940 0.780080 0.457010 -0.643467
O30   O     O_R   0.656940 0.219920 0.457010 -0.643489
O31   O     O_R   0.156940 0.280080 0.457010 -0.643560
O32   O     O_R   0.156940 0.719920 0.457010 -0.643284
O33   O     O_R   0.886110 0.719980 0.457010 -0.644350
O34   O     O_R   0.886110 0.280020 0.457010 -0.644669
O35   O     O_R   0.386110 0.219980 0.457010 -0.644388
O36   O     O_R   0.386110 0.780020 0.457010 -0.644627
O37   O     O_R   0.801570 0.635440 0.457010 -0.642347
O38   O     O_R   0.801570 0.364560 0.457010 -0.642246
O39   O     O_R   0.301570 0.135440 0.457010 -0.642315
O40   O     O_R   0.301570 0.864560 0.457010 -0.642010
O41   O     O_R   0.758570 0.864610 0.542990 -0.635674
O42   O     O_R   0.758570 0.135390 0.542990 -0.635968
O43   O     O_R   0.258570 0.364610 0.542990 -0.635922
O44   O     O_R   0.258570 0.635390 0.542990 -0.635993
O45   O     O_R   0.638020 0.720010 0.663980 -0.640536
O46   O     O_R   0.638020 0.279990 0.663980 -0.641031
O47   O     O_R   0.138020 0.220010 0.663980 -0.641021
O48   O     O_R   0.138020 0.779990 0.663980 -0.641044
O49   O     O_R   0.801960 0.780050 0.336020 -0.640364
O50   O     O_R   0.801960 0.219950 0.336020 -0.640359
O51   O     O_R   0.301960 0.280050 0.336020 -0.640333
O52   O     O_R   0.301960 0.719950 0.336020 -0.640502
C1    C     C_R   0.650541 0.750045 0.699015 0.816169
C2    C     C_R   0.650541 0.249955 0.699015 0.816666
C3    C     C_R   0.150541 0.250045 0.699015 0.816353
C4    C     C_R   0.150542 0.749956 0.699015 0.816377
C5    C     C_R   0.849521 0.750002 0.300986 0.820945
C6    C     C_R   0.849521 0.249996 0.300986 0.820982
C7    C     C_R   0.349521 0.250004 0.300986 0.820957
C8    C     C_R   0.349520 0.749997 0.300986 0.820947
C9    C     C_R   0.749999 0.611394 0.500242 0.855598
C10   C     C_R   0.749936 0.388606 0.499888 0.855768
C11   C     C_R   0.249999 0.111394 0.500242 0.855911
C12   C     C_R   0.249936 0.888606 0.499888 0.855954
C13   C     C_R   0.749801 0.888655 0.500251 0.854975
C14   C     C_R   0.750245 0.111344 0.499872 0.855152
C15   C     C_R   0.250245 0.388656 0.499872 0.855209
C16   C     C_R   0.249800 0.611344 0.500251 0.854806
C17   C     C_R   0.611456 0.749886 0.499885 0.857409
C18   C     C_R   0.611267 0.249860 0.500258 0.857049
C19   C     C_R   0.111271 0.250136 0.500254 0.857145
C20   C     C_R   0.111271 0.749863 0.500254 0.857081
C21   C     C_R   0.888729 0.750185 0.499872 0.854173
C22   C     C_R   0.888729 0.249815 0.499872 0.854250
C23   C     C_R   0.388732 0.250188 0.499867 0.854236
C24   C     C_R   0.388542 0.750065 0.500243 0.854270
C25   C     C_2   0.049632 0.720894 0.456888 -0.160462
C26   C     C_2   0.049628 0.279110 0.456896 -0.160772
C27   C     C_2   0.549639 0.220902 0.456874 -0.160702
C28   C     C_2   0.548842 0.780168 0.458469 -0.159922
C29   C     C_2   0.054619 0.749566 0.503017 -0.291741
C30   C     C_2   0.054621 0.250430 0.503014 -0.291385
C31   C     C_2   0.554597 0.249533 0.503058 -0.291611
C32   C     C_2   0.556391 0.748036 0.499477 -0.291273
H1    H     H_    0.088491 0.696527 0.416414 0.176658
H2    H     H_    0.088481 0.303487 0.416435 0.176506
H3    H     H_    0.588528 0.196582 0.416338 0.176565
H4    H     H_    0.584889 0.808340 0.423623 0.176504
H5    H     H_    0.016595 0.773389 0.545286 0.155316
H6    H     H_    0.016606 0.226594 0.545269 0.155613
H7    H     H_    0.516522 0.273281 0.545415 0.155511
H8    H     H_    0.522472 0.718664 0.533554 0.154815
C33   C     C_2   0.992733 0.719843 0.458476 -0.160682
C34   C     C_2   0.992731 0.280157 0.458479 -0.160927
C35   C     C_2   0.492719 0.219823 0.458505 -0.160644
C36   C     C_2   0.493508 0.779107 0.456925 -0.161810
C37   C     C_2   0.944232 0.752040 0.499411 -0.289510
C38   C     C_2   0.944228 0.247963 0.499417 -0.288894
C39   C     C_2   0.444259 0.252069 0.499360 -0.289237
C40   C     C_2   0.442451 0.750349 0.502963 -0.289049
H9    H     H_    0.991477 0.691635 0.423711 0.177393
H10   H     H_    0.991478 0.308362 0.423708 0.177199
H11   H     H_    0.491419 0.191561 0.423829 0.177375
H12   H     H_    0.495063 0.803534 0.416542 0.177341
H13   H     H_    0.944161 0.781468 0.533362 0.156071
H14   H     H_    0.944150 0.218539 0.533380 0.156261
H15   H     H_    0.444259 0.281566 0.533183 0.156140
H16   H     H_    0.438267 0.726436 0.545118 0.157321
C41   C     C_3   0.031909 0.735487 0.043686 -0.444232
C42   C     C_3   0.031182 0.266958 0.043685 -0.444014
C43   C     C_3   0.531754 0.234935 0.043683 -0.444161
C44   C     C_3   0.530291 0.769527 0.043686 -0.443808
C45   C     C_3   0.963402 0.802608 0.042969 -0.401515
C46   C     C_3   0.965816 0.196762 0.042961 -0.401507
C47   C     C_3   0.463943 0.302763 0.042963 -0.401369
C48   C     C_3   0.468414 0.696218 0.042962 -0.401711
C49   C     C_3   0.007576 0.803002 0.956929 -0.473152
C50   C     C_3   0.009987 0.196434 0.956922 -0.473410
C51   C     C_3   0.508090 0.303128 0.956923 -0.473188
C52   C     C_3   0.512597 0.695945 0.956922 -0.473558
H17   H     H_    0.110014 0.768309 0.940175 0.113367
H18   H     H_    0.110738 0.235342 0.940189 0.113490
H19   H     H_    0.610166 0.267537 0.940198 0.113424
H20   H     H_    0.611353 0.739292 0.940193 0.113540
H21   H     H_    0.049625 0.763219 0.065230 0.155661
H22   H     H_    0.050134 0.240564 0.065240 0.155811
H23   H     H_    0.549754 0.262359 0.065249 0.155690
H24   H     H_    0.550491 0.744611 0.065245 0.155833
H25   H     H_    0.914717 0.812780 0.062481 0.182220
H26   H     H_    0.917636 0.184815 0.062489 0.182330
H27   H     H_    0.415360 0.313349 0.062501 0.182307
H28   H     H_    0.420857 0.682415 0.062491 0.182201
H29   H     H_    0.979220 0.832102 0.064570 0.178818
H30   H     H_    0.982973 0.168515 0.064541 0.178726
H31   H     H_    0.480093 0.331982 0.064534 0.178768
H32   H     H_    0.486914 0.669361 0.064540 0.178495
H33   H     H_    0.045830 0.831368 0.937699 0.177270
H34   H     H_    0.049500 0.169395 0.937670 0.177135
H35   H     H_    0.546623 0.331218 0.937662 0.177202
H36   H     H_    0.553389 0.670385 0.937669 0.176926
H37   H     H_    0.981337 0.816157 0.934858 0.193767
H38   H     H_    0.984372 0.181607 0.934863 0.193691
H39   H     H_    0.481961 0.316641 0.934873 0.193735
H40   H     H_    0.487743 0.679355 0.934865 0.193509
C53   C     C_1   0.110797 0.749879 0.778374 -0.091129
C54   C     C_1   0.110786 0.250132 0.778374 -0.091065
C55   C     C_1   0.610791 0.249871 0.778374 -0.090939
C56   C     C_1   0.610782 0.750133 0.778374 -0.091135
C57   C     C_3   0.963401 0.749408 0.073305 0.257717
C58   C     C_3   0.963367 0.250594 0.073306 0.257649
C59   C     C_3   0.463392 0.249413 0.073305 0.257559
C60   C     C_3   0.463333 0.750607 0.073305 0.257826
C61   C     C_3   0.075698 0.736615 0.957247 0.136401
C62   C     C_3   0.075027 0.265843 0.957248 0.136421
C63   C     C_3   0.575561 0.236081 0.957245 0.136199
C64   C     C_3   0.574191 0.768441 0.957248 0.136339
C65   C     C_3   0.036463 0.749231 0.926812 0.152111
C66   C     C_3   0.036419 0.250778 0.926812 0.152194
C67   C     C_3   0.536449 0.249222 0.926811 0.151982
C68   C     C_3   0.536378 0.750779 0.926812 0.152459
C69   C     C_3   0.981764 0.709708 0.957287 0.087972
C70   C     C_3   0.979970 0.288477 0.957299 0.087524
C71   C     C_3   0.481368 0.210079 0.957300 0.087695
C72   C     C_3   0.478146 0.786434 0.957297 0.087192
C73   C     C_3   0.939500 0.709621 0.043810 -0.431156
C74   C     C_3   0.937678 0.288571 0.043822 -0.431093
C75   C     C_3   0.439071 0.210028 0.043822 -0.430947
C76   C     C_3   0.435846 0.786576 0.043821 -0.431070
C77   C     C_1   0.077368 0.749695 0.845132 -0.029120
C78   C     C_1   0.077345 0.250320 0.845132 -0.029159
C79   C     C_1   0.577358 0.249684 0.845131 -0.028968
C80   C     C_1   0.577329 0.750321 0.845132 -0.029340
C81   C     C_1   0.922571 0.749728 0.154848 -0.080227
C82   C     C_1   0.922555 0.250269 0.154848 -0.080207
C83   C     C_1   0.422569 0.249736 0.154848 -0.080159
C84   C     C_1   0.422537 0.750281 0.154848 -0.080309
C85   C     C_1   0.889169 0.749907 0.221615 -0.137793
C86   C     C_1   0.889165 0.250090 0.221616 -0.137623
C87   C     C_1   0.389171 0.249912 0.221615 -0.137689
C88   C     C_1   0.389157 0.750097 0.221615 -0.137874
H41   H     H_    0.940188 0.670951 0.063832 0.181436
H42   H     H_    0.936541 0.327683 0.063888 0.181066
H43   H     H_    0.439304 0.171253 0.063896 0.181475
H44   H     H_    0.432799 0.826077 0.063886 0.180893
H45   H     H_    0.889517 0.717948 0.066838 0.176991
H46   H     H_    0.888131 0.278461 0.066817 0.177300
H47   H     H_    0.389192 0.218789 0.066809 0.177135
H48   H     H_    0.386834 0.774631 0.066814 0.177461
H49   H     H_    0.003265 0.671359 0.937322 0.199180
H50   H     H_    0.999723 0.327313 0.937380 0.198838
H51   H     H_    0.502499 0.171616 0.937390 0.199313
H52   H     H_    0.496003 0.825699 0.937378 0.198618
H53   H     H_    0.032541 0.697433 0.065207 0.218110
H54   H     H_    0.030061 0.305497 0.065196 0.218178
H55   H     H_    0.531994 0.196755 0.065184 0.218183
H56   H     H_    0.527286 0.808492 0.065194 0.218214
C89   C     C_2   0.740609 0.028049 0.458479 -0.161906
C90   C     C_2   0.742479 0.971951 0.456886 -0.163361
C91   C     C_2   0.242478 0.528048 0.456886 -0.163122
C92   C     C_2   0.240608 0.471950 0.458479 -0.162014
C93   C     C_2   0.752351 0.056083 0.499398 -0.287233
C94   C     C_2   0.748105 0.943917 0.503012 -0.287099
C95   C     C_2   0.248104 0.556083 0.503012 -0.287487
C96   C     C_2   0.252350 0.443917 0.499399 -0.287412
H57   H     H_    0.729754 0.046679 0.423734 0.176238
H58   H     H_    0.738348 0.953320 0.416417 0.176116
H59   H     H_    0.238347 0.546678 0.416416 0.176217
H60   H     H_    0.229754 0.453319 0.423735 0.176249
H61   H     H_    0.764837 0.039189 0.533324 0.157334
H62   H     H_    0.750788 0.960810 0.545284 0.158946
H63   H     H_    0.250786 0.539191 0.545285 0.158692
H64   H     H_    0.264836 0.460812 0.533325 0.157270
C97   C     C_2   0.800919 0.471943 0.458434 -0.157571
C98   C     C_2   0.800656 0.528057 0.456926 -0.157574
C99   C     C_2   0.300919 0.971943 0.458434 -0.157226
C100  C     C_2   0.300656 0.028057 0.456926 -0.157443
C101  C     C_2   0.748290 0.443885 0.499524 -0.294951
C102  C     C_2   0.748888 0.556116 0.502930 -0.295234
C103  C     C_2   0.248290 0.943885 0.499525 -0.294918
C104  C     C_2   0.248888 0.056116 0.502931 -0.295178
H65   H     H_    0.846505 0.453315 0.423495 0.177838
H66   H     H_    0.845294 0.546683 0.416582 0.178204
H67   H     H_    0.346505 0.953315 0.423494 0.177977
H68   H     H_    0.345294 0.046683 0.416583 0.178244
H69   H     H_    0.701887 0.460769 0.533728 0.152763
H70   H     H_    0.703867 0.539233 0.545017 0.152544
H71   H     H_    0.201887 0.960769 0.533729 0.152760
H72   H     H_    0.203867 0.039233 0.545017 0.152560
N1    N     N_R   0.112172 0.689242 0.926211 0.214183
O53   O     O_R   0.085161 0.644831 0.948644 -0.402890
O54   O     O_R   0.173245 0.691462 0.879351 -0.371833
N2    N     N_R   0.109353 0.314106 0.926195 0.214232
O55   O     O_R   0.080368 0.357766 0.948620 -0.403442
O56   O     O_R   0.170485 0.313575 0.879323 -0.370773
N3    N     N_R   0.611607 0.188523 0.926183 0.214253
O57   O     O_R   0.584197 0.144253 0.948586 -0.402173
O58   O     O_R   0.672699 0.190403 0.879329 -0.371297
N4    N     N_R   0.606156 0.817559 0.926194 0.214254
O59   O     O_R   0.575075 0.860307 0.948616 -0.403461
O60   O     O_R   0.667272 0.818857 0.879325 -0.369882
N5    N     N_2   0.944424 0.720291 0.929606 -0.300795
H73   H     H_    0.916169 0.752180 0.951785 0.242506
C105  C     C_3   0.912520 0.676998 0.925361 -0.794552
H74   H     H_    0.887830 0.689131 0.900934 0.249482
H75   H     H_    0.877302 0.661226 0.981634 0.239378
H76   H     H_    0.947134 0.646965 0.889182 0.253623
N6    N     N_2   0.943191 0.275636 0.929565 -0.300617
H77   H     H_    0.916505 0.242935 0.951563 0.242936
C106  C     C_3   0.909197 0.317327 0.925589 -0.792544
H78   H     H_    0.885289 0.303620 0.900891 0.250905
H79   H     H_    0.942281 0.348258 0.889797 0.252913
H80   H     H_    0.873091 0.332482 0.981972 0.239071
N7    N     N_2   0.444166 0.221098 0.929557 -0.300870
H81   H     H_    0.416330 0.253222 0.951543 0.242692
C107  C     C_3   0.411663 0.178142 0.925617 -0.792749
H82   H     H_    0.387280 0.190540 0.900925 0.249991
H83   H     H_    0.376106 0.162725 0.982018 0.239265
H84   H     H_    0.445831 0.147759 0.889826 0.253594
N8    N     N_2   0.442048 0.771147 0.929563 -0.300551
H85   H     H_    0.416961 0.737731 0.951573 0.242970
C108  C     C_3   0.406077 0.811050 0.925581 -0.790837
H86   H     H_    0.382866 0.795595 0.900893 0.251633
H87   H     H_    0.437641 0.842675 0.889768 0.252535
H88   H     H_    0.369258 0.825815 0.981964 0.238917

loop_
_geom_bond_atom_site_label_1
_geom_bond_atom_site_label_2
_geom_bond_distance
_ccdc_geom_bond_type
Zn7   O47   1.909623 S    
C107  H84   1.111113 S    
O25   C21   1.271915 A    
C52   C68   1.555114 S    
N1    O54   1.301138 A    
Zn9   O29   1.939406 S    
C76   H48   1.113354 S    
C3    C54   1.430503 S    
Zn5   O21   1.939757 S    
Zn2   O2    1.940188 S    
Zn14  O2    1.940046 S    
Zn11  O31   1.939406 S    
N8    H85   1.031138 S    
C58   C74   1.549849 S    
C1    C56   1.430505 S    
O23   C19   1.271756 A    
Zn12  O32   1.939405 S    
C105  H76   1.111193 S    
C73   H41   1.113225 S    
C2    C55   1.430506 S    
C34   H10   1.086379 S    
Zn13  O25   1.939707 S    
C33   H9    1.086361 S    
N3    O57   1.301612 A    
C43   H55   1.112488 S    
C89   C90   1.472949 S    
O33   C21   1.274321 A    
Zn15  O3    1.940032 S    
Zn12  O52   1.909579 S    
C96   H64   1.080753 S    
C97   C98   1.473316 S    
Zn10  O50   1.909579 S    
Zn4   O36   1.939713 S    
C49   H33   1.113310 S    
C84   C88   1.203537 T    
O14   C10   1.271796 A    
C55   C79   1.203356 T    
Zn16  O4    1.940046 S    
N8    C108  1.447317 S    
O43   C15   1.271846 A    
C11   C104  1.451702 S    
C72   N8    1.459689 S    
C5    C85   1.430715 S    
C70   N6    1.459602 S    
O42   C14   1.271846 A    
C52   H36   1.113352 S    
C27   C31   1.341556 D    
C93   H61   1.080750 S    
N3    O58   1.301141 A    
C46   H26   1.113047 S    
C26   C30   1.341563 D    
C43   C63   1.558465 S    
C107  H82   1.110516 S    
O50   C6    1.281603 A    
C63   N3    1.470220 S    
C44   C60   1.550769 S    
C100  C104  1.341648 D    
C51   H35   1.113357 S    
O46   C2    1.281357 A    
C99   H67   1.086373 S    
N5    H73   1.031177 S    
Zn16  O44   1.939673 S    
Zn8   O24   1.939755 S    
N7    H81   1.031201 S    
Zn1   O37   1.939633 S    
O27   C23   1.271932 A    
N4    O60   1.301154 A    
C8    C88   1.430714 S    
O20   C16   1.274275 A    
O35   C23   1.274322 A    
C60   C84   1.469888 S    
C47   H31   1.113165 S    
Zn11  O19   1.939627 S    
O34   C22   1.274326 A    
C59   C75   1.549885 S    
C41   H21   1.113420 S    
C60   C76   1.549894 S    
C74   H42   1.113192 S    
C46   H30   1.113081 S    
C53   C77   1.203356 T    
C4    C53   1.430506 S    
Zn6   O22   1.939755 S    
C42   H54   1.112427 S    
Zn3   O3    1.940175 S    
Zn16  O28   1.939708 S    
Zn12  O20   1.939634 S    
Zn2   O34   1.939713 S    
C106  H78   1.110495 S    
C66   C70   1.565447 S    
Zn5   O13   1.939673 S    
C20   C29   1.451484 S    
O28   C24   1.271901 A    
C33   C37   1.341609 D    
C105  H74   1.110563 S    
Zn14  O26   1.939708 S    
C19   C30   1.451475 S    
C29   H5    1.080725 S    
C44   H24   1.113477 S    
C17   C32   1.451416 S    
Zn15  O7    1.909390 S    
C47   C59   1.551504 S    
Zn16  O8    1.909383 S    
O10   C6    1.281441 A    
C108  H86   1.110584 S    
Zn4   O40   1.939626 S    
Zn9   O17   1.939627 S    
C12   C103  1.451703 S    
C62   N2    1.470196 S    
C46   C50   1.551238 S    
C89   H57   1.086381 S    
O26   C22   1.271919 A    
O11   C7    1.281440 A    
O6    C2    1.281386 A    
Zn4   O12   1.909533 S    
C27   H3    1.086368 S    
C68   C80   1.472391 S    
C71   C75   1.559842 S    
C71   N7    1.459646 S    
O17   C13   1.274275 A    
Zn14  O42   1.939673 S    
Zn6   O2    1.939721 S    
C71   H51   1.110870 S    
C32   H8    1.080709 S    
C39   H15   1.080808 S    
Zn7   O15   1.939673 S    
N2    O56   1.301107 A    
Zn3   O35   1.939712 S    
Zn13  O5    1.909390 S    
C48   H28   1.113109 S    
O7    C3    1.281389 A    
N6    H77   1.031223 S    
C51   H39   1.111153 S    
Zn10  O18   1.939634 S    
Zn1   O33   1.939712 S    
C90   C94   1.341548 D    
O49   C5    1.281615 A    
C25   H1    1.086358 S    
C36   H12   1.086373 S    
C41   H53   1.112450 S    
C91   H59   1.086379 S    
C67   C71   1.565476 S    
C83   C87   1.203535 T    
C42   C58   1.550760 S    
C64   N4    1.470209 S    
C63   C67   1.566263 S    
C42   H22   1.113406 S    
C75   H43   1.113262 S    
C49   H37   1.111109 S    
C89   C93   1.341552 D    
N5    C105  1.447287 S    
O31   C19   1.274224 A    
C41   C57   1.550748 S    
C91   C92   1.472949 S    
C92   H60   1.086386 S    
C14   C93   1.451306 S    
C45   H29   1.113094 S    
N4    O59   1.301620 A    
C42   C62   1.558459 S    
C16   C95   1.451309 S    
C91   C95   1.341549 D    
O16   C12   1.271796 A    
O39   C11   1.274254 A    
C46   C58   1.551479 S    
C57   C81   1.469891 S    
C59   C83   1.469891 S    
C69   H49   1.110872 S    
C21   C37   1.451498 S    
C65   C69   1.565428 S    
C48   C52   1.551234 S    
Zn11  O3    1.940201 S    
Zn12  O4    1.940188 S    
O32   C20   1.274211 A    
O13   C9    1.271795 A    
Zn2   O10   1.909533 S    
C43   C59   1.550774 S    
C43   H23   1.113503 S    
Zn5   O1    1.939734 S    
C47   H27   1.113103 S    
C18   C31   1.451533 S    
C24   C40   1.451437 S    
Zn14  O6    1.909383 S    
C103  H71   1.080694 S    
C70   C74   1.559855 S    
C102  H70   1.080700 S    
C50   C66   1.555089 S    
C45   C49   1.551249 S    
C7    C87   1.430711 S    
C35   H11   1.086387 S    
Zn9   O1    1.940201 S    
Zn6   O14   1.939679 S    
Zn8   O4    1.939721 S    
Zn8   O48   1.909630 S    
C44   C64   1.558463 S    
Zn7   O3    1.939734 S    
N7    C107  1.447358 S    
C56   C80   1.203359 T    
Zn2   O38   1.939626 S    
O37   C9    1.274255 A    
C48   H32   1.113165 S    
O41   C13   1.271845 A    
O36   C24   1.274319 A    
C90   H58   1.086382 S    
O51   C7    1.281605 A    
Zn11  O51   1.909573 S    
C107  H83   1.111147 S    
C97   H65   1.086373 S    
O22   C18   1.271770 A    
O12   C8    1.281441 A    
C25   C29   1.341564 D    
Zn10  O30   1.939405 S    
C36   C40   1.341610 D    
C72   C76   1.559852 S    
C41   C61   1.558475 S    
N2    O55   1.301579 A    
O8    C4    1.281390 A    
C54   C78   1.203360 T    
C62   C66   1.566211 S    
C101  H69   1.080696 S    
N6    C106  1.447214 S    
C28   H4    1.086379 S    
C34   C38   1.341611 D    
C23   C39   1.451553 S    
O19   C15   1.274274 A    
C40   H16   1.080705 S    
C50   H38   1.111113 S    
Zn3   O39   1.939633 S    
C74   H46   1.113317 S    
Zn15  O43   1.939679 S    
H17   C61   1.115590 S    
C73   H45   1.113317 S    
C48   C60   1.551512 S    
N1    O53   1.301589 A    
C105  H75   1.111236 S    
O40   C12   1.274254 A    
C99   C103  1.341651 D    
Zn1   O9    1.909540 S    
O15   C11   1.271796 A    
C76   H44   1.113262 S    
C61   N1    1.470196 S    
Zn13  O1    1.940032 S    
O52   C8    1.281603 A    
C37   H13   1.080729 S    
C31   H7    1.080787 S    
C28   C32   1.341567 D    
C47   C51   1.551241 S    
C30   H6    1.080752 S    
C45   C57   1.551520 S    
O29   C17   1.274216 A    
C65   C77   1.472394 S    
C52   H40   1.111159 S    
O45   C1    1.281350 A    
H19   C63   1.115619 S    
Zn6   O46   1.909630 S    
C67   C79   1.472389 S    
C108  H87   1.110973 S    
O21   C17   1.271735 A    
C57   C73   1.549881 S    
C106  H79   1.110964 S    
C27   C35   1.473078 S    
C66   C78   1.472401 S    
C10   C101  1.451703 S    
C15   C96   1.451306 S    
O44   C16   1.271846 A    
C61   C65   1.566233 S    
C104  H72   1.080701 S    
C50   H34   1.113282 S    
Zn8   O16   1.939679 S    
C49   C65   1.555063 S    
Zn10  O2    1.940188 S    
Zn5   O45   1.909623 S    
C69   C73   1.559852 S    
C13   C94   1.451310 S    
C70   H50   1.110865 S    
C38   H14   1.080755 S    
Zn3   O11   1.909540 S    
C9    C102  1.451702 S    
C28   C36   1.473088 S    
O38   C10   1.274254 A    
C26   C34   1.473080 S    
C98   C102  1.341648 D    
O9    C5    1.281432 A    
C45   H25   1.113057 S    
C22   C38   1.451489 S    
C97   C101  1.341651 D    
C58   C82   1.469884 S    
C106  H80   1.110983 S    
Zn9   O49   1.909573 S    
C98   H66   1.086369 S    
C82   C86   1.203539 T    
Zn15  O27   1.939707 S    
Zn4   O4    1.940188 S    
C81   C85   1.203537 T    
C68   C72   1.565480 S    
Zn13  O41   1.939679 S    
Zn1   O1    1.940175 S    
C26   H2    1.086375 S    
H20   C64   1.115630 S    
C108  H88   1.111041 S    
O5    C1    1.281394 A    
C99   C100  1.473315 S    
C100  H68   1.086369 S    
C6    C86   1.430708 S    
Zn7   O23   1.939757 S    
C35   C39   1.341609 D    
C75   H47   1.113352 S    
O18   C14   1.274275 A    
C95   H63   1.080748 S    
C72   H52   1.110870 S    
C92   C96   1.341549 D    
C69   N5    1.459642 S    
O47   C3    1.281355 A    
C94   H62   1.080750 S    
C44   H56   1.112486 S    
O24   C20   1.271750 A    
C64   C68   1.566263 S    
O48   C4    1.281355 A    
C25   C33   1.473080 S    
H18   C62   1.115525 S    
O30   C18   1.274222 A    
C51   C67   1.555119 S    
