data_mof_unit_35708.cif
_audit_creation_date              2012-12-10T20:55:02-0500
_audit_creation_method            fapswitch 2.2
_symmetry_space_group_name_H-M    P1
_symmetry_Int_Tables_number       1
_space_group_crystal_system       triclinic
_cell_length_a                    15.835143
_cell_length_b                    15.050827
_cell_length_c                    10.728612
_cell_angle_alpha                 87.622157
_cell_angle_beta                  89.015297
_cell_angle_gamma                 90.731857
_cell_volume                      2554.15979284

loop_
_atom_site_label
_atom_site_type_symbol
_atom_type_description
_atom_site_fract_x
_atom_site_fract_y
_atom_site_fract_z
_atom_type_partial_charge
C1    C     C_R   0.338812 0.499190 0.500868 0.931940
C2    C     C_R   0.661144 0.500802 0.497136 0.881622
C3    C     C_R   0.952402 0.423758 0.483228 0.343115
C4    C     C_R   0.039397 0.421684 0.501737 0.323733
C5    C     C_1   0.823993 0.506193 0.475070 0.034743
C6    C     C_1   0.175877 0.495942 0.489482 0.031305
C7    C     C_1   0.250535 0.496892 0.496256 -0.197582
C8    C     C_1   0.749325 0.503591 0.485260 -0.210375
C9    C     C_R   0.423601 0.951924 0.506722 -0.270626
C10   C     C_R   0.575822 0.954064 0.495529 -0.295126
C11   C     C_R   0.499615 0.905135 0.500247 -0.039730
C12   C     C_R   0.576750 0.048529 0.493761 0.454494
C13   C     C_R   0.422950 0.045905 0.505752 0.429131
C14   C     C_R   0.500004 0.094977 0.500696 -0.145550
C15   C     C_1   0.499694 0.807218 0.500279 0.094581
C16   C     C_1   0.500312 0.192873 0.501023 0.169515
C17   C     C_R   0.505639 0.502256 0.258763 0.953056
C18   C     C_R   0.497341 0.498104 0.740405 1.027266
C19   C     C_R   0.469477 0.667085 0.091694 0.489047
C20   C     C_R   0.383435 0.608404 0.884259 0.508767
C21   C     C_R   0.411141 0.723821 0.031578 -0.054973
C22   C     C_R   0.362644 0.691424 0.932738 -0.054989
C23   C     C_R   0.450785 0.559142 0.936241 -0.171006
C24   C     C_R   0.478236 0.578180 0.053895 -0.206193
C25   C     C_R   0.514712 0.507112 0.124718 -0.240071
C26   C     C_R   0.495338 0.494092 0.872920 -0.245328
C27   C     C_R   0.547661 0.432689 0.065314 0.350146
C28   C     C_R   0.550642 0.436110 0.934997 0.330863
C29   C     C_R   0.960100 0.585735 0.446210 0.012636
C30   C     C_R   0.049176 0.581407 0.444509 0.012625
C31   C     C_R   0.913210 0.505998 0.466679 -0.088405
C32   C     C_R   0.087106 0.499688 0.478423 -0.078987
H1    H     H_    0.364331 0.915315 0.512720 0.164754
H2    H     H_    0.634712 0.918534 0.494874 0.154543
N1    N     N_1   0.500000 0.270550 0.500000 -0.095668
N2    N     N_1   0.500000 0.729450 0.500000 -0.084951
O1    O     O_R   0.378020 0.573650 0.500040 -0.596445
O2    O     O_R   0.621980 0.573650 0.499960 -0.631951
O3    O     O_R   0.378020 0.426320 0.500100 -0.637026
O4    O     O_R   0.621980 0.426320 0.499900 -0.589166
O5    O     O_R   0.500000 0.573680 0.316780 -0.579068
O6    O     O_R   0.500000 0.573680 0.683220 -0.613832
O7    O     O_R   0.500000 0.426350 0.316830 -0.597128
O8    O     O_R   0.500000 0.426350 0.683170 -0.585550
Zn1   Zn    Zn3+2 0.500000 0.598370 0.500000 0.990310
Zn2   Zn    Zn3+2 0.500000 0.401630 0.500000 1.000265
O9    O     O_3   0.584001 0.363651 0.135488 -0.643799
C33   C     C_3   0.550627 0.278992 0.106135 0.125252
H3    H     H_    0.583524 0.228460 0.165355 0.144707
H4    H     H_    0.565258 0.262225 0.008618 0.178196
C34   C     C_3   0.455136 0.268669 0.133424 -0.372835
H5    H     H_    0.442069 0.278746 0.233710 0.237256
H6    H     H_    0.419495 0.318862 0.077488 0.215722
C35   C     C_3   0.423390 0.176367 0.100935 -1.000855
H7    H     H_    0.435609 0.165059 0.000604 0.283624
H8    H     H_    0.354279 0.170826 0.119252 0.271332
H9    H     H_    0.455393 0.124247 0.158540 0.254144
O10   O     O_3   0.603289 0.382276 0.866562 -0.640759
C36   C     C_3   0.688677 0.389747 0.903140 0.086420
H10   H     H_    0.707594 0.324654 0.945656 0.166669
H11   H     H_    0.700804 0.441984 0.971888 0.129849
C37   C     C_3   0.744332 0.411375 0.787998 -0.301241
H12   H     H_    0.732144 0.362117 0.715794 0.261460
H13   H     H_    0.728112 0.478559 0.749637 0.200073
C38   C     C_3   0.837954 0.410438 0.819686 -0.981582
H14   H     H_    0.851373 0.457607 0.894014 0.255384
H15   H     H_    0.876264 0.430877 0.735592 0.277032
H16   H     H_    0.856837 0.342484 0.851412 0.267366
O11   O     O_3   0.524675 0.703781 0.174700 -0.594324
C39   C     C_3   0.606096 0.710000 0.118726 0.110331
H17   H     H_    0.604789 0.745654 0.025471 0.116302
H18   H     H_    0.632684 0.642692 0.107197 0.095935
C40   C     C_3   0.665427 0.759795 0.202474 -0.336641
H19   H     H_    0.665551 0.726597 0.297023 0.236546
H20   H     H_    0.730007 0.757184 0.161604 0.177108
C41   C     C_3   0.640992 0.856910 0.212555 -0.864952
H21   H     H_    0.643662 0.891772 0.119253 0.241406
H22   H     H_    0.686086 0.889834 0.274220 0.234690
H23   H     H_    0.576372 0.861975 0.253019 0.287653
O12   O     O_3   0.335277 0.572817 0.791279 -0.646374
C42   C     C_3   0.267027 0.522422 0.846929 0.018913
H24   H     H_    0.210014 0.535440 0.790387 0.148007
H25   H     H_    0.250049 0.542172 0.943506 0.129404
C43   C     C_3   0.284730 0.422434 0.846405 -0.320130
H26   H     H_    0.278325 0.398921 0.750142 0.220787
H27   H     H_    0.349740 0.408607 0.877186 0.224913
C44   C     C_3   0.224236 0.369735 0.934424 -0.982477
H28   H     H_    0.236471 0.385873 0.032677 0.265622
H29   H     H_    0.234047 0.297435 0.924516 0.279008
H30   H     H_    0.157797 0.385868 0.912737 0.257497
C45   C     C_3   0.402703 0.818245 0.074342 -0.354749
C46   C     C_3   0.349434 0.820518 0.194396 -0.316607
C47   C     C_3   0.330889 0.916097 0.226266 -0.947197
H31   H     H_    0.390742 0.953480 0.239895 0.268040
H32   H     H_    0.294888 0.949877 0.150445 0.263898
H33   H     H_    0.292218 0.916244 0.313261 0.256374
H34   H     H_    0.288516 0.784493 0.182828 0.210617
H35   H     H_    0.383650 0.787446 0.272725 0.249272
H36   H     H_    0.466195 0.847702 0.089360 0.218353
H37   H     H_    0.374345 0.862412 0.002106 0.211825
C48   C     C_3   0.289935 0.744526 0.879030 -0.373532
C49   C     C_3   0.319939 0.813219 0.777141 -0.317245
C50   C     C_3   0.261672 0.893483 0.772182 -0.913594
H38   H     H_    0.195297 0.871816 0.758365 0.260433
H39   H     H_    0.265056 0.929277 0.860473 0.262427
H40   H     H_    0.281190 0.940396 0.694322 0.279167
H41   H     H_    0.385385 0.837009 0.793574 0.222568
H42   H     H_    0.320748 0.781494 0.685436 0.234247
H43   H     H_    0.241615 0.700626 0.838790 0.196376
H44   H     H_    0.256080 0.776901 0.956199 0.199302
C51   C     C_3   0.104229 0.661377 0.402470 -0.384393
C52   C     C_3   0.136456 0.712757 0.512951 -0.323351
C53   C     C_3   0.193165 0.790237 0.466451 -0.921294
H45   H     H_    0.252414 0.764702 0.425242 0.268402
H46   H     H_    0.160317 0.832429 0.395558 0.262989
H47   H     H_    0.209457 0.832216 0.544826 0.262392
H48   H     H_    0.082406 0.739014 0.566772 0.208983
H49   H     H_    0.172985 0.668493 0.576883 0.234031
H50   H     H_    0.158689 0.638980 0.345553 0.196538
H51   H     H_    0.070022 0.707316 0.338422 0.206287
C54   C     C_3   0.915565 0.674074 0.426921 -0.365852
C55   C     C_3   0.897758 0.693972 0.288395 -0.350072
C56   C     C_3   0.887165 0.793558 0.261754 -0.927024
H52   H     H_    0.834064 0.818580 0.318829 0.276147
H53   H     H_    0.946043 0.830140 0.283883 0.264950
H54   H     H_    0.874019 0.806546 0.161403 0.251409
H55   H     H_    0.950175 0.670714 0.228270 0.218454
H56   H     H_    0.839364 0.657838 0.262678 0.211261
H57   H     H_    0.855252 0.674768 0.481298 0.190560
H58   H     H_    0.953877 0.728252 0.465648 0.203443
O13   O     O_3   0.903950 0.346220 0.492343 -0.638429
C57   C     C_3   0.911906 0.300117 0.380367 0.124359
H59   H     H_    0.890654 0.230416 0.401097 0.168715
H60   H     H_    0.978695 0.296801 0.346325 0.148730
C58   C     C_3   0.855722 0.340828 0.278159 -0.369826
H61   H     H_    0.789471 0.343763 0.313604 0.252282
H62   H     H_    0.877974 0.409541 0.252398 0.211520
C59   C     C_3   0.857963 0.286991 0.160938 -0.987861
H63   H     H_    0.924075 0.278341 0.127746 0.267780
H64   H     H_    0.822805 0.322791 0.086391 0.269218
H65   H     H_    0.827397 0.220972 0.179465 0.261558
O14   O     O_3   0.078828 0.342584 0.534351 -0.643736
C60   C     C_3   0.060138 0.319948 0.661185 0.101398
H66   H     H_    0.990875 0.312490 0.678417 0.187288
H67   H     H_    0.085260 0.372090 0.721734 0.123771
C61   C     C_3   0.101142 0.231353 0.696839 -0.318641
H68   H     H_    0.084638 0.181753 0.627037 0.228260
H69   H     H_    0.170927 0.240316 0.696688 0.224441
C62   C     C_3   0.070707 0.195412 0.825281 -0.978822
H70   H     H_    0.082311 0.244725 0.897248 0.266742
H71   H     H_    0.105066 0.133609 0.850768 0.270684
H72   H     H_    0.002006 0.179638 0.823984 0.267820
O15   O     O_3   0.346907 0.088403 0.523478 -0.642848
C63   C     C_3   0.319206 0.124851 0.408010 0.027622
H73   H     H_    0.295735 0.071026 0.349531 0.156113
H74   H     H_    0.370362 0.162390 0.356050 0.147310
C64   C     C_3   0.247024 0.188762 0.431450 -0.274354
H75   H     H_    0.192729 0.150843 0.474756 0.215902
H76   H     H_    0.267912 0.239788 0.496769 0.240812
C65   C     C_3   0.218736 0.235456 0.310464 -0.948193
H77   H     H_    0.271114 0.277028 0.268337 0.262051
H78   H     H_    0.164724 0.279299 0.330315 0.293085
H79   H     H_    0.198386 0.185850 0.242869 0.254160
O16   O     O_3   0.652171 0.096145 0.499004 -0.631949
C66   C     C_3   0.705135 0.081946 0.394112 0.075689
H80   H     H_    0.721425 0.148101 0.349677 0.167519
H81   H     H_    0.674994 0.042823 0.320349 0.113521
C67   C     C_3   0.786869 0.037774 0.437109 -0.333195
H82   H     H_    0.817968 0.079769 0.506256 0.236656
H83   H     H_    0.772237 0.971885 0.483216 0.211092
C68   C     C_3   0.848131 0.024970 0.328190 -1.003238
H84   H     H_    0.817806 0.985592 0.255583 0.273305
H85   H     H_    0.904585 0.989038 0.362281 0.271913
H86   H     H_    0.869215 0.090184 0.286223 0.264566

loop_
_geom_bond_atom_site_label_1
_geom_bond_atom_site_label_2
_ccdc_geom_bond_type
C58   C59   S    
C6    C32   S    
C68   H84   S    
C47   H31   S    
C60   C61   S    
C40   H19   S    
C51   C52   S    
C18   C26   S    
C43   C44   S    
C54   H58   S    
C44   H28   S    
C17   O7    A    
C42   H24   S    
C46   H35   S    
C56   H52   S    
O4    Zn2   S    
C68   H85   S    
C66   H80   S    
C22   C48   S    
C3    O13   S    
C41   H22   S    
O16   C66   S    
C19   C21   A    
C43   H27   S    
C53   H45   S    
C62   H71   S    
C16   N1    T    
C4    O14   S    
C52   H48   S    
C56   H53   S    
C48   H43   S    
C60   H66   S    
C60   H67   S    
C51   H50   S    
C23   C26   A    
C55   H55   S    
C9    C13   A    
O2    Zn1   S    
C37   H13   S    
C11   C15   S    
C43   H26   S    
C33   C34   S    
C52   H49   S    
C57   H59   S    
C38   H15   S    
C29   C54   S    
C23   C24   A    
C41   H23   S    
C49   H42   S    
C39   H17   S    
C45   H37   S    
C63   H74   S    
C1    O1    A    
C53   H47   S    
C67   H83   S    
C36   H10   S    
C66   H81   S    
C21   C22   A    
C64   H75   S    
C40   H20   S    
O11   C39   S    
C39   C40   S    
C52   C53   S    
C42   H25   S    
O8    Zn2   S    
C46   H34   S    
C61   H69   S    
C67   C68   S    
C68   H86   S    
C35   H8    S    
C36   H11   S    
C20   O12   S    
C34   H5    S    
C48   C49   S    
C58   H61   S    
C41   H21   S    
C63   C64   S    
C10   H2    S    
C10   C11   A    
C62   H72   S    
C45   C46   S    
C56   H54   S    
O10   C36   S    
C53   H46   S    
C51   H51   S    
C34   H6    S    
O6    Zn1   S    
C65   H78   S    
C64   H76   S    
C65   H79   S    
C29   C30   A    
C18   O8    A    
C12   O16   S    
C61   C62   S    
C2    O2    A    
O9    C33   S    
C20   C23   A    
C38   H16   S    
C37   H12   S    
C63   H73   S    
N2    Zn1   S    
C50   H39   S    
C24   C25   A    
C3    C31   A    
C9    C11   A    
C13   O15   S    
C54   C55   S    
C4    C32   A    
C10   C12   A    
C9    H1    S    
O3    Zn2   S    
C33   H3    S    
C12   C14   A    
C47   H33   S    
C66   C67   S    
C44   H29   S    
C40   C41   S    
C14   C16   S    
C19   O11   S    
C25   C27   A    
C20   C22   A    
O1    Zn1   S    
C3    C4    A    
C49   H41   S    
C15   N2    T    
C50   H38   S    
C42   C43   S    
C61   H68   S    
C21   C45   S    
C27   O9    S    
C58   H62   S    
C35   H7    S    
C67   H82   S    
C36   C37   S    
C37   C38   S    
C1    C7    S    
C2    C8    S    
C54   H57   S    
O12   C42   S    
C59   H65   S    
C5    C8    T    
C6    C7    T    
C59   H64   S    
C28   O10   S    
C64   C65   S    
C26   C28   A    
C30   C51   S    
C34   C35   S    
C17   C25   S    
C65   H77   S    
C18   O6    A    
C19   C24   A    
C48   H44   S    
C29   C31   A    
C62   H70   S    
C30   C32   A    
C47   H32   S    
C57   C58   S    
C33   H4    S    
C46   C47   S    
C50   H40   S    
C55   H56   S    
C49   C50   S    
O7    Zn2   S    
C17   O5    A    
C59   H63   S    
C1    O3    A    
C2    O4    A    
C57   H60   S    
C38   H14   S    
C44   H30   S    
C27   C28   A    
C55   C56   S    
O5    Zn1   S    
O14   C60   S    
C39   H18   S    
C45   H36   S    
O15   C63   S    
C13   C14   A    
N1    Zn2   S    
O13   C57   S    
C5    C31   S    
C35   H9    S    
