data_mof_unit_24596.cif
_audit_creation_date              2012-12-10T16:57:43-0500
_audit_creation_method            fapswitch 2.2
_symmetry_space_group_name_H-M    P1
_symmetry_Int_Tables_number       1
_space_group_crystal_system       triclinic
_cell_length_a                    7.813882
_cell_length_b                    8.558562
_cell_length_c                    18.91014
_cell_angle_alpha                 91.33223
_cell_angle_beta                  84.370664
_cell_angle_gamma                 94.163421
_cell_volume                      1255.04099366

loop_
_atom_site_label
_atom_site_type_symbol
_atom_type_description
_atom_site_fract_x
_atom_site_fract_y
_atom_site_fract_z
_atom_type_partial_charge
C1    C     C_R   0.546023 0.794701 0.498083 0.959504
C2    C     C_R   0.453972 0.205287 0.501673 0.974138
C3    C     C_2   0.569926 0.958614 0.496926 -0.355566
C4    C     C_2   0.430061 0.041357 0.502405 -0.350601
C5    C     C_R   0.499447 0.496810 0.635348 0.877000
C6    C     C_R   0.499856 0.499722 0.365333 0.839096
C7    C     C_R   0.326874 0.473280 0.750948 -0.164145
C8    C     C_R   0.569206 0.343196 0.258594 -0.196054
C9    C     C_R   0.297826 0.424503 0.821131 0.138034
C10   C     C_R   0.544176 0.297053 0.189035 0.125893
C11   C     C_R   0.436146 0.372974 0.854873 0.021043
C12   C     C_R   0.442774 0.385134 0.149723 0.039791
C13   C     C_R   0.599150 0.367714 0.816689 -0.173381
C14   C     C_R   0.368764 0.518402 0.180605 -0.161077
C15   C     C_R   0.629008 0.416719 0.746306 0.001119
C16   C     C_R   0.393579 0.565363 0.250260 -0.019729
C17   C     C_R   0.489822 0.468660 0.712382 -0.165800
C18   C     C_R   0.493060 0.474696 0.289530 -0.120650
C19   C     C_R   0.424192 0.350554 0.074648 0.318698
C20   C     C_R   0.420369 0.344752 0.931803 0.304214
H1    H     H_    0.218590 0.511434 0.725886 0.189147
H2    H     H_    0.642610 0.271988 0.289561 0.170626
H3    H     H_    0.706974 0.331738 0.842800 0.183565
H4    H     H_    0.295338 0.589012 0.149472 0.199226
H5    H     H_    0.701702 0.010563 0.491760 0.183001
H6    H     H_    0.298288 0.989409 0.507517 0.184660
N1    N     N_R   0.551543 0.285876 0.962304 -0.173773
N2    N     N_R   0.289474 0.402834 0.044435 -0.171310
N3    N     N_R   0.553625 0.289013 0.032459 -0.128307
N4    N     N_R   0.287925 0.400220 0.974396 -0.130407
N5    N     N_2   0.950330 0.457950 0.481240 -0.181628
N6    N     N_2   0.049670 0.542050 0.518760 -0.187379
O1    O     O_R   0.389250 0.738570 0.504600 -0.624646
O2    O     O_R   0.610750 0.261430 0.495400 -0.626056
O3    O     O_R   0.678400 0.711620 0.492580 -0.649823
O4    O     O_R   0.321600 0.288380 0.507420 -0.645423
O5    O     O_R   0.355380 0.513500 0.607880 -0.594920
O6    O     O_R   0.644620 0.486500 0.392120 -0.591837
O7    O     O_R   0.644530 0.486550 0.595850 -0.644431
O8    O     O_R   0.355470 0.513450 0.404150 -0.624691
Zn1   Zn    Zn3+2 0.306930 0.517990 0.508030 0.980213
Zn2   Zn    Zn3+2 0.693070 0.482010 0.491970 0.974454
N7    N     N_3   0.127528 0.425396 0.857630 -0.423214
H7    H     H_    0.074935 0.309533 0.859329 0.220140
H8    H     H_    0.047745 0.488999 0.829616 0.200999
N8    N     N_3   0.617245 0.158316 0.159474 -0.427065
H9    H     H_    0.750789 0.172380 0.161350 0.209245
H10   H     H_    0.570104 0.064189 0.191789 0.204665
C21   C     C_2   0.807547 0.415360 0.711550 0.374421
H11   H     H_    0.860401 0.507847 0.675965 0.129860
O9    O     O_2   0.899331 0.311500 0.723676 -0.587009
C22   C     C_2   0.320440 0.711269 0.280242 0.417806
H12   H     H_    0.355887 0.759926 0.330681 0.060212
O10   O     O_2   0.220612 0.780245 0.248528 -0.558009
C23   C     C_2   0.995453 0.302549 0.468267 0.695057
H13   H     H_    0.014188 0.228476 0.512259 0.021272
O11   O     O_2   0.002259 0.247976 0.407983 -0.600028
C24   C     C_2   0.006325 0.698337 0.530507 0.670960
H14   H     H_    0.983916 0.769710 0.486112 0.024529
O12   O     O_2   0.006576 0.757097 0.589873 -0.615630

loop_
_geom_bond_atom_site_label_1
_geom_bond_atom_site_label_2
_ccdc_geom_bond_type
C10   N8    S    
C4    H6    S    
C23   H13   S    
C6    O6    A    
C15   C17   A    
N5    Zn2   S    
C5    O5    A    
N1    N3    A    
C9    C11   A    
C8    H2    S    
N5    N6    D    
O2    Zn2   S    
C13   C15   A    
N6    C24   S    
N7    H7    S    
O1    Zn1   S    
C2    O2    A    
C21   O9    D    
N2    N4    A    
C1    O1    A    
C20   N4    A    
C15   C21   S    
C19   N2    A    
N7    H8    S    
C1    O3    A    
O4    Zn1   S    
C10   C12   A    
C2    C4    S    
C12   C19   S    
C16   C18   A    
O8    Zn1   S    
C20   N1    A    
C12   C14   A    
O6    Zn2   S    
O7    Zn2   S    
N8    H10   S    
C23   O11   D    
C14   C16   A    
O5    Zn1   S    
C6    C18   S    
C6    O8    A    
C11   C20   S    
C9    N7    S    
C5    C17   S    
N6    Zn1   S    
C14   H4    S    
C3    C4    D    
C19   N3    A    
C5    O7    A    
C11   C13   A    
C3    H5    S    
C22   H12   S    
C13   H3    S    
C8    C10   A    
C21   H11   S    
C2    O4    A    
C7    C9    A    
O3    Zn2   S    
N8    H9    S    
N5    C23   S    
C24   H14   S    
C7    H1    S    
C24   O12   D    
C8    C18   A    
C16   C22   S    
C22   O10   D    
C1    C3    S    
C7    C17   A    
