data_mof_unit_52290.cif
_audit_creation_date              2012-12-10T17:02:11-0500
_audit_creation_method            fapswitch 2.2
_symmetry_space_group_name_H-M    P1
_symmetry_Int_Tables_number       1
_space_group_crystal_system       triclinic
_cell_length_a                    10.496016
_cell_length_b                    10.685341
_cell_length_c                    9.989417
_cell_angle_alpha                 90.01396
_cell_angle_beta                  89.41665
_cell_angle_gamma                 90.162862
_cell_volume                      1120.2855614

loop_
_atom_site_label
_atom_site_type_symbol
_atom_type_description
_atom_site_fract_x
_atom_site_fract_y
_atom_site_fract_z
_atom_type_partial_charge
C1    C     C_R   0.500129 0.262458 0.499799 0.910752
C2    C     C_2   0.502041 0.130375 0.497742 -0.402605
C3    C     C_2   0.600122 0.522987 0.924624 -0.322411
C4    C     C_R   0.259881 0.484052 0.500909 0.908249
C5    C     C_2   0.593470 0.547360 0.075117 0.524353
C6    C     C_R   0.491511 0.737419 0.499930 0.980847
C7    C     C_R   0.737166 0.475510 0.499396 0.889691
C8    C     C_R   0.128020 0.349807 0.730167 -0.156688
C9    C     C_R   0.060136 0.303791 0.840273 -0.146532
C10   C     C_R   0.927873 0.299445 0.838165 -0.162074
C11   C     C_R   0.862889 0.340780 0.725938 -0.163048
C12   C     C_R   0.063864 0.397165 0.616810 0.108585
C13   C     C_R   0.929644 0.391668 0.614859 0.058850
C14   C     C_3   0.763980 0.692185 0.062452 0.052602
C15   C     C_3   0.892529 0.632856 0.025366 -0.292676
C16   C     C_3   0.962067 0.707825 0.917041 -0.965310
C17   C     C_3   0.822722 0.300698 0.234734 0.141868
C18   C     C_3   0.924755 0.199830 0.211770 -0.415123
C19   C     C_3   0.864581 0.074356 0.174923 -0.982009
C20   C     C_3   0.498437 0.928522 0.161702 0.100660
C21   C     C_3   0.411147 0.986156 0.056642 -0.350840
C22   C     C_3   0.487919 0.040379 0.939493 -0.976659
C23   C     C_R   0.127701 0.445049 0.501422 -0.209818
C24   C     C_R   0.064390 0.447984 0.378967 -0.304119
C25   C     C_R   0.935150 0.429465 0.375155 0.494489
C26   C     C_R   0.867319 0.430240 0.497155 -0.289965
C27   C     C_2   0.447974 0.935076 0.389217 0.526671
C28   C     C_2   0.467114 0.868618 0.501273 -0.449506
C29   C     C_2   0.438749 0.070325 0.401852 -0.275190
H1    H     H_    0.114199 0.465829 0.285305 0.187117
H2    H     H_    0.712618 0.727504 0.973076 0.115906
H3    H     H_    0.953069 0.628880 0.115899 0.245320
H4    H     H_    0.878746 0.535524 0.989408 0.238783
H5    H     H_    0.905380 0.708996 0.823722 0.272415
H6    H     H_    0.055633 0.663774 0.894787 0.274226
H7    H     H_    0.978430 0.805417 0.951345 0.262779
H8    H     H_    0.875270 0.259798 0.921553 0.141552
H9    H     H_    0.760751 0.304748 0.145349 0.155718
H10   H     H_    0.759740 0.273542 0.320314 0.128082
H11   H     H_    0.990799 0.229873 0.130541 0.223834
H12   H     H_    0.691119 0.529979 0.873448 0.195930
H13   H     H_    0.981171 0.187156 0.304299 0.222248
H14   H     H_    0.801959 0.040834 0.257833 0.263411
H15   H     H_    0.940572 0.003994 0.157241 0.273014
H16   H     H_    0.807612 0.083228 0.082318 0.255358
H17   H     H_    0.552011 0.851022 0.113715 0.163759
H18   H     H_    0.571182 0.998353 0.194038 0.121844
H19   H     H_    0.345259 0.913084 0.018408 0.234046
H20   H     H_    0.353074 0.061771 0.102642 0.211003
H21   H     H_    0.552537 0.115686 0.974997 0.260071
H22   H     H_    0.422090 0.080712 0.864707 0.272539
H23   H     H_    0.413725 0.505890 0.898892 0.160500
H24   H     H_    0.545253 0.965931 0.890127 0.262045
H25   H     H_    0.464152 0.911332 0.599876 0.130125
H26   H     H_    0.385013 0.121495 0.327411 0.174173
H27   H     H_    0.435882 0.444726 0.101401 0.100860
H28   H     H_    0.230097 0.339923 0.733494 0.165468
H29   H     H_    0.110837 0.267334 0.925535 0.127003
H30   H     H_    0.761200 0.325051 0.724673 0.165053
H31   H     H_    0.559938 0.084369 0.572270 0.147730
H32   H     H_    0.783739 0.776959 0.123329 0.154022
N1    N     N_2   0.501340 0.501330 0.852150 -0.206323
N2    N     N_2   0.501380 0.501360 0.147810 -0.215019
O1    O     O_R   0.499980 0.319060 0.613040 -0.630555
O2    O     O_3   0.877442 0.421275 0.251348 -0.625753
O3    O     O_3   0.424505 0.876186 0.267410 -0.615324
O4    O     O_R   0.500020 0.319100 0.386900 -0.640214
O5    O     O_R   0.316750 0.499980 0.613090 -0.630435
O6    O     O_R   0.316790 0.500020 0.386950 -0.620083
O7    O     O_R   0.499980 0.680900 0.613100 -0.612780
O8    O     O_R   0.500020 0.680940 0.386960 -0.528312
O9    O     O_R   0.683210 0.499980 0.613050 -0.628244
O10   O     O_R   0.683250 0.500020 0.386910 -0.524729
O11   O     O_3   0.690940 0.609128 0.143033 -0.568146
Zn1   Zn    Zn3+2 0.499970 0.499970 0.650990 0.915709
Zn2   Zn    Zn3+2 0.500030 0.500030 0.349010 0.991234

loop_
_geom_bond_atom_site_label_1
_geom_bond_atom_site_label_2
_ccdc_geom_bond_type
C5    O11   S    
C23   C24   A    
C19   H16   S    
C24   C25   A    
C10   H8    S    
C8    H28   S    
C27   C29   S    
C9    C10   A    
C1    C2    S    
C17   O2    S    
C22   H21   S    
C14   H2    S    
C8    C12   A    
C21   H19   S    
C21   H20   S    
C17   C18   S    
C8    C9    A    
H27   N2    S    
C15   H3    S    
C7    O10   A    
C27   O3    S    
H23   N1    S    
C21   C22   S    
C12   C13   A    
O5    Zn1   S    
C11   C13   A    
C12   C23   A    
C16   H7    S    
C7    C26   S    
C2    C29   D    
C11   H30   S    
C14   O11   S    
C20   O3    S    
C4    O6    A    
C1    O4    A    
O1    Zn1   S    
C19   H14   S    
C18   C19   S    
C22   H24   S    
C2    H31   S    
C17   H9    S    
O9    Zn1   S    
C16   H6    S    
C17   H10   S    
C6    O8    A    
C13   C26   A    
O10   Zn2   S    
C24   H1    S    
N1    Zn1   S    
C20   H18   S    
N2    Zn2   S    
C15   C16   S    
C1    O1    A    
C19   H15   S    
O8    Zn2   S    
C27   C28   D    
C25   O2    S    
C20   C21   S    
C5    N2    D    
O6    Zn2   S    
C6    O7    A    
C9    H29   S    
C10   C11   A    
C3    N1    D    
C7    O9    A    
C4    O5    A    
C4    C23   S    
C28   H25   S    
C14   C15   S    
C3    H12   S    
O7    Zn1   S    
C18   H11   S    
O4    Zn2   S    
C29   H26   S    
C18   H13   S    
C16   H5    S    
C25   C26   A    
C14   H32   S    
C15   H4    S    
C6    C28   S    
C22   H22   S    
C3    C5    S    
C20   H17   S    
