data_mof_unit_44172.cif
_audit_creation_date              2012-12-10T18:03:34-0500
_audit_creation_method            fapswitch 2.2
_symmetry_space_group_name_H-M    P1
_symmetry_Int_Tables_number       1
_space_group_crystal_system       triclinic
_cell_length_a                    10.814358
_cell_length_b                    9.518156
_cell_length_c                    19.385559
_cell_angle_alpha                 89.914735
_cell_angle_beta                  90.23959
_cell_angle_gamma                 90.057756
_cell_volume                      1995.38817327

loop_
_atom_site_label
_atom_site_type_symbol
_atom_type_description
_atom_site_fract_x
_atom_site_fract_y
_atom_site_fract_z
_atom_type_partial_charge
C1    C     C_R   0.871747 0.500050 0.499958 -0.008306
C2    C     C_R   0.128253 0.499950 0.500039 -0.008308
C3    C     C_R   0.590411 0.575517 0.964282 -0.179975
C4    C     C_R   0.409588 0.424475 0.035719 -0.179975
C5    C     C_R   0.590664 0.574945 0.036122 -0.184285
C6    C     C_R   0.409336 0.425045 0.963879 -0.184286
C7    C     C_R   0.500251 0.499422 0.072379 0.125056
C8    C     C_R   0.499748 0.500569 0.927622 0.125057
C9    C     C_R   0.262077 0.499965 0.499970 0.788298
C10   C     C_R   0.737923 0.500035 0.500029 0.788295
C11   C     C_R   0.499462 0.500094 0.368077 0.809555
C12   C     C_R   0.500541 0.499905 0.631923 0.809563
C13   C     C_R   0.063739 0.372894 0.493943 -0.202049
C14   C     C_R   0.936261 0.627107 0.506054 -0.202053
C15   C     C_R   0.935909 0.372947 0.493884 -0.195221
C16   C     C_R   0.064091 0.627053 0.506113 -0.195225
C17   C     C_R   0.387627 0.516957 0.742893 0.118030
C18   C     C_R   0.612376 0.483032 0.257107 0.118028
C19   C     C_R   0.387496 0.519022 0.256321 0.120576
C20   C     C_R   0.612508 0.480987 0.743680 0.120575
C21   C     C_R   0.389052 0.517977 0.815024 -0.195994
C22   C     C_R   0.610949 0.482009 0.184976 -0.195994
C23   C     C_R   0.389225 0.518119 0.184193 -0.197424
C24   C     C_R   0.610777 0.481884 0.815808 -0.197436
C25   C     C_R   0.499874 0.500557 0.851653 0.032366
C26   C     C_R   0.500127 0.499436 0.148347 0.032362
C27   C     C_R   0.421062 0.074448 0.458209 -0.024407
C28   C     C_R   0.578938 0.925552 0.541791 -0.024407
C29   C     C_R   0.578944 0.074394 0.541788 -0.023057
C30   C     C_R   0.421056 0.925606 0.458211 -0.023057
C31   C     C_R   0.500257 0.499552 0.707069 -0.070166
C32   C     C_R   0.499747 0.500449 0.292931 -0.070174
Cu1   Cu    Cu3+1 0.500000 0.640660 0.500000 0.928592
Cu2   Cu    Cu3+1 0.500000 0.359340 0.500000 0.928595
H1    H     H_    0.357828 0.130556 0.424735 0.113166
H2    H     H_    0.642171 0.869443 0.575265 0.113166
H3    H     H_    0.642160 0.130487 0.575274 0.114326
H4    H     H_    0.357840 0.869513 0.424725 0.114326
H5    H     H_    0.111766 0.273648 0.488871 0.148843
H6    H     H_    0.888234 0.726352 0.511125 0.148845
H7    H     H_    0.887612 0.273705 0.488843 0.149441
H8    H     H_    0.112388 0.726295 0.511154 0.149441
H9    H     H_    0.303311 0.533445 0.842747 0.135247
H10   H     H_    0.696689 0.466534 0.157253 0.135249
H11   H     H_    0.303743 0.533321 0.155777 0.132531
H12   H     H_    0.696258 0.466685 0.844224 0.132528
H13   H     H_    0.660040 0.636033 0.937337 0.129577
H14   H     H_    0.339959 0.363960 0.062664 0.129576
H15   H     H_    0.660395 0.635175 0.063372 0.127477
H16   H     H_    0.339605 0.364815 0.936629 0.127476
N1    N     N_R   0.500000 0.852070 0.500000 -0.157377
N2    N     N_R   0.500000 0.147930 0.500000 -0.157377
O1    O     O_R   0.319640 0.618740 0.500000 -0.589631
O2    O     O_R   0.680360 0.381260 0.500000 -0.589629
O3    O     O_R   0.680360 0.618740 0.500000 -0.592051
O4    O     O_R   0.319640 0.381260 0.500000 -0.592045
O5    O     O_R   0.500020 0.618830 0.400190 -0.589074
O6    O     O_R   0.499980 0.381170 0.599810 -0.589072
O7    O     O_R   0.499980 0.618830 0.599810 -0.577068
O8    O     O_R   0.500020 0.381170 0.400190 -0.577065
C33   C     C_3   0.264529 0.531609 0.705871 -0.411701
C34   C     C_3   0.233359 0.685529 0.692455 -0.810481
H17   H     H_    0.304711 0.735217 0.659423 0.270451
H18   H     H_    0.142670 0.692756 0.665591 0.235295
H19   H     H_    0.227489 0.743695 0.741966 0.246112
H20   H     H_    0.264434 0.473354 0.656292 0.195154
H21   H     H_    0.189708 0.484099 0.737455 0.196869
C35   C     C_3   0.735474 0.468371 0.294129 -0.411689
C36   C     C_3   0.766639 0.314448 0.307544 -0.810473
H22   H     H_    0.695287 0.264764 0.340578 0.270448
H23   H     H_    0.857329 0.307215 0.334407 0.235291
H24   H     H_    0.772504 0.256280 0.258034 0.246109
H25   H     H_    0.810298 0.515877 0.262545 0.196866
H26   H     H_    0.735573 0.526626 0.343708 0.195147
C37   C     C_3   0.264986 0.540291 0.292596 -0.420643
C38   C     C_3   0.207568 0.400134 0.313526 -0.838150
H27   H     H_    0.268219 0.343767 0.350602 0.255329
H28   H     H_    0.116875 0.419032 0.338500 0.245628
H29   H     H_    0.192592 0.333215 0.267338 0.250200
H30   H     H_    0.276657 0.608065 0.338754 0.200638
H31   H     H_    0.198838 0.596030 0.258082 0.198312
C39   C     C_3   0.735019 0.459716 0.707405 -0.420643
C40   C     C_3   0.792426 0.599868 0.686457 -0.838158
H32   H     H_    0.883124 0.580965 0.661489 0.245628
H33   H     H_    0.731777 0.656206 0.649370 0.255335
H34   H     H_    0.807390 0.666816 0.732636 0.250202
H35   H     H_    0.801175 0.404006 0.741926 0.198314
H36   H     H_    0.723353 0.391915 0.661256 0.200635

loop_
_geom_bond_atom_site_label_1
_geom_bond_atom_site_label_2
_ccdc_geom_bond_type
Cu1   O3    S    
C30   N1    A    
Cu2   O4    S    
C23   H11   S    
C20   C39   S    
C38   H29   S    
C7    C26   S    
C28   C29   A    
C38   H28   S    
C28   N1    A    
C18   C35   S    
C39   H35   S    
C30   H4    S    
C23   C26   A    
C36   H23   S    
C2    C13   A    
C34   H18   S    
C17   C33   S    
C21   H9    S    
C12   O7    A    
C33   H20   S    
C22   H10   S    
C20   C24   A    
C35   C36   S    
C1    C15   A    
C2    C16   A    
C37   H30   S    
C12   O6    A    
Cu1   O7    S    
C27   C30   A    
Cu2   O8    S    
C8    C25   S    
C5    H15   S    
C33   C34   S    
C4    C7    A    
C19   C32   A    
Cu1   O1    S    
C24   C25   A    
C15   H7    S    
C4    C6    A    
C3    C8    A    
C5    C7    A    
C37   H31   S    
C6    C8    A    
C27   H1    S    
C35   H25   S    
C17   C21   A    
C36   H24   S    
C19   C23   A    
C37   C38   S    
C34   H17   S    
C33   H21   S    
C40   H32   S    
Cu1   Cu2   S    
C9    O4    A    
C38   H27   S    
C10   O3    A    
C40   H33   S    
C11   C32   S    
Cu2   O2    S    
C13   C15   A    
C12   C31   S    
C17   C31   A    
C14   C16   A    
C9    O1    A    
C11   O8    A    
C16   H8    S    
C27   N2    A    
C4    H14   S    
C21   C25   A    
Cu1   O5    S    
C6    H16   S    
C34   H19   S    
C18   C22   A    
C1    C10   S    
C3    C5    A    
Cu1   N1    S    
Cu2   N2    S    
C24   H12   S    
C19   C37   S    
C39   H36   S    
C3    H13   S    
C36   H22   S    
C10   O2    A    
C13   H5    S    
C14   H6    S    
C40   H34   S    
C18   C32   A    
C28   H2    S    
C39   C40   S    
C22   C26   A    
C29   H3    S    
Cu2   O6    S    
C1    C14   A    
C11   O5    A    
C2    C9    S    
C35   H26   S    
C29   N2    A    
C20   C31   A    
