data_mof_unit_20421.cif
_audit_creation_date              2012-12-11T15:57:33-0500
_audit_creation_method            fapswitch 2.2
_symmetry_space_group_name_H-M    P1
_symmetry_Int_Tables_number       1
_space_group_crystal_system       triclinic
_cell_length_a                    10.749389
_cell_length_b                    10.760447
_cell_length_c                    16.970273
_cell_angle_alpha                 99.60992
_cell_angle_beta                  99.925663
_cell_angle_gamma                 61.135593
_cell_volume                      1685.3315758

loop_
_atom_site_label
_atom_site_type_symbol
_atom_type_description
_atom_site_fract_x
_atom_site_fract_y
_atom_site_fract_z
_atom_type_partial_charge
C1    C     C_R   0.355203 0.773463 0.400595 0.558802
C2    C     C_2   0.312099 0.309011 0.809806 -0.101525
C3    C     C_2   0.357365 0.192797 0.755968 -0.150118
C4    C     C_R   0.365963 0.343148 0.358383 0.547436
C5    C     C_2   0.381384 0.197351 0.675441 -0.158517
C6    C     C_1   0.847475 0.328514 0.704914 -0.033803
C7    C     C_1   0.894850 0.293087 0.771508 -0.034785
C8    C     C_1   0.339031 0.811479 0.708969 -0.040499
C9    C     C_1   0.312781 0.838689 0.777037 -0.041032
C10   C     C_R   0.898188 0.306325 0.088326 0.539626
C11   C     C_R   0.290801 0.260579 0.121783 0.579483
C12   C     C_2   0.844929 0.322770 0.164133 -0.145311
C13   C     C_R   0.294575 0.892197 0.084443 0.560092
C14   C     C_R   0.944264 0.272920 0.854045 0.562867
C15   C     C_R   0.303243 0.287857 0.889818 0.531459
C16   C     C_R   0.779269 0.375150 0.406118 0.559139
C17   C     C_R   0.278559 0.884600 0.856743 0.533158
C18   C     C_R   0.358013 0.770657 0.626941 0.553796
C19   C     C_R   0.365044 0.344903 0.578861 0.551602
C20   C     C_R   0.777833 0.378755 0.628830 0.552316
C21   C     C_1   0.324198 0.316483 0.276664 -0.021208
C22   C     C_1   0.304501 0.291444 0.205929 -0.011036
C23   C     C_2   0.890681 0.205612 0.202083 -0.157434
C24   C     C_2   0.861206 0.323467 0.337270 -0.124969
C25   C     C_2   0.847146 0.095012 0.306033 0.604324
C26   C     C_3   0.641790 0.824358 0.169918 0.055051
C27   C     C_3   0.760509 0.753301 0.237263 -0.271885
C28   C     C_3   0.909200 0.695274 0.210960 -0.441487
C29   C     C_3   0.410824 0.576986 0.142901 -0.000854
C30   C     C_3   0.394014 0.537279 0.051741 -0.262015
C31   C     C_3   0.525243 0.402726 0.025069 -0.437405
C32   C     C_2   0.865555 0.212838 0.284855 0.017634
C33   C     C_2   0.335380 0.838759 0.328189 -0.098603
C34   C     C_2   0.355420 0.811482 0.154385 0.245705
C35   C     C_2   0.442260 0.842755 0.213234 0.216335
C36   C     C_2   0.451265 0.814325 0.295608 -0.110718
C37   C     C_2   0.304956 0.315504 0.638608 -0.107777
Cr1   Cr    Cr6+3 0.608020 0.610770 0.522990 1.025076
Cr2   Cr    Cr6+3 0.289390 0.599570 0.488050 1.036082
Cr3   Cr    Cr6+3 0.602610 0.289690 0.489020 1.069472
Cr4   Cr    Cr6+3 0.053780 0.052210 0.965970 1.025626
Cr5   Cr    Cr6+3 0.060060 0.372530 0.992430 0.996954
Cr6   Cr    Cr6+3 0.372600 0.061970 0.991430 1.010443
H1    H     H_    0.950013 0.099526 0.172152 0.171675
H2    H     H_    0.895436 0.953135 0.384901 0.323324
H3    H     H_    0.670999 0.888994 0.139545 0.197671
H4    H     H_    0.634141 0.741584 0.122964 0.098143
H5    H     H_    0.748742 0.831364 0.290964 0.211966
H6    H     H_    0.751106 0.663473 0.254658 0.117737
H7    H     H_    0.922626 0.619545 0.156290 0.181532
H8    H     H_    0.991550 0.638718 0.259696 0.156884
H9    H     H_    0.926208 0.783343 0.197910 0.196243
H10   H     H_    0.395266 0.503244 0.173928 0.172380
H11   H     H_    0.521847 0.559425 0.164158 0.103502
H12   H     H_    0.474239 0.107656 0.650835 0.161746
H13   H     H_    0.297801 0.521436 0.035345 0.203431
H14   H     H_    0.379531 0.624011 0.018048 0.160746
H15   H     H_    0.618001 0.423981 0.034099 0.148564
H16   H     H_    0.507157 0.372295 0.960066 0.159563
H17   H     H_    0.549258 0.313307 0.059567 0.194449
H18   H     H_    0.277726 0.415724 0.794618 0.097750
H19   H     H_    0.207352 0.401239 0.661007 0.114238
H20   H     H_    0.784812 0.429187 0.192993 0.081198
H21   H     H_    0.895025 0.395172 0.320851 0.083568
H22   H     H_    0.555895 0.771446 0.329671 0.138585
H23   H     H_    0.229637 0.886493 0.295197 0.147414
H24   H     H_    0.391232 0.087501 0.773541 0.160176
O1    O     O_R   0.749250 0.499990 0.439200 -0.530191
O2    O     O_R   0.411120 0.181190 0.091480 -0.488476
O3    O     O_R   0.364220 0.944920 0.062310 -0.507484
O4    O     O_R   0.477870 0.725740 0.440280 -0.506989
O5    O     O_R   0.158740 0.906940 0.874970 -0.510164
O6    O     O_R   0.930920 0.176940 0.885610 -0.483992
O7    O     O_R   0.910730 0.394510 0.895320 -0.502759
O8    O     O_R   0.185840 0.361180 0.920280 -0.508844
O9    O     O_R   0.399210 0.173040 0.915160 -0.512257
O10   O     O_R   0.353170 0.937370 0.898860 -0.509602
O11   O     O_3   0.162150 0.162240 0.983280 -0.294574
O12   O     O_R   0.299400 0.468710 0.556310 -0.501736
O13   O     O_R   0.260770 0.742210 0.412610 -0.487570
O14   O     O_R   0.297990 0.466320 0.394220 -0.510307
O15   O     O_R   0.487720 0.253870 0.385870 -0.480022
O16   O     O_R   0.721940 0.304340 0.422320 -0.452518
O17   O     O_R   0.750770 0.502570 0.614050 -0.505241
O18   O     O_R   0.479280 0.728140 0.602370 -0.495730
O19   O     O_R   0.262290 0.744790 0.587460 -0.503027
O20   O     O_2   0.774809 0.049797 0.259394 -0.535261
O21   O     O_R   0.915137 0.033584 0.377952 -0.681717
O22   O     O_3   0.509740 0.918890 0.200941 -0.548511
O23   O     O_R   0.489240 0.256450 0.560730 -0.512018
O24   O     O_3   0.306264 0.717858 0.164491 -0.599078
O25   O     O_R   0.723350 0.306730 0.584410 -0.488913
O26   O     O_3   0.500010 0.500010 0.500020 -0.261988
O27   O     O_R   0.170650 0.915100 0.051290 -0.499786
O28   O     O_R   0.941960 0.184500 0.049060 -0.491050
O29   O     O_R   0.922640 0.402670 0.071640 -0.533139
O30   O     O_R   0.196880 0.368740 0.083740 -0.521035

loop_
_geom_bond_atom_site_label_1
_geom_bond_atom_site_label_2
_ccdc_geom_bond_type
C27   H5    S    
C15   O8    A    
C5    C37   D    
C35   C36   S    
Cr3   O26   S    
C37   H19   S    
C1    C33   S    
Cr6   O11   S    
C20   O25   A    
C12   C23   D    
Cr5   O8    S    
C1    O4    A    
Cr5   O29   S    
C14   O7    A    
C31   H15   S    
C30   C31   S    
C28   H8    S    
C13   O3    A    
C30   H14   S    
C25   O20   D    
C33   C36   D    
C34   C35   D    
C31   H16   S    
C34   O24   S    
Cr2   O26   S    
C19   C37   S    
C28   H7    S    
C7    C14   S    
C4    O14   A    
C8    C9    T    
C16   O1    A    
C2    H18   S    
C25   C32   S    
C15   O9    A    
C16   C24   S    
C21   C22   T    
Cr3   O16   S    
C33   H23   S    
Cr5   O7    S    
C18   O18   A    
Cr1   O18   S    
C14   O6    A    
Cr3   O15   S    
H2    O21   S    
Cr2   O14   S    
Cr5   O30   S    
Cr4   O11   S    
C12   H20   S    
C36   H22   S    
C30   H13   S    
C25   O21   S    
C8    C18   S    
C23   H1    S    
C26   O22   S    
Cr2   O12   S    
C31   H17   S    
C24   C32   D    
C29   C30   S    
Cr4   O27   S    
C10   O29   A    
C17   O10   A    
C26   C27   S    
C18   O19   A    
Cr3   O25   S    
C19   O12   A    
C2    C15   S    
C10   C12   S    
C26   H4    S    
Cr4   O5    S    
C35   O22   S    
C9    C17   S    
Cr1   O1    S    
Cr5   O11   S    
Cr6   O3    S    
C20   O17   A    
C29   O24   S    
Cr6   O9    S    
Cr1   O4    S    
Cr1   O17   S    
C5    H12   S    
C3    H24   S    
C3    C5    S    
C11   O2    A    
C6    C7    T    
Cr6   O10   S    
C6    C20   S    
C11   C22   S    
C13   O27   A    
C11   O30   A    
C23   C32   S    
C2    C3    D    
C13   C34   S    
C19   O23   A    
Cr2   O13   S    
C4    C21   S    
C28   H9    S    
Cr4   O28   S    
C29   H10   S    
C10   O28   A    
Cr1   O26   S    
C16   O16   A    
C26   H3    S    
Cr4   O6    S    
C4    O15   A    
C17   O5    A    
C24   H21   S    
C29   H11   S    
C27   C28   S    
C1    O13   A    
Cr2   O19   S    
Cr3   O23   S    
Cr6   O2    S    
C27   H6    S    
