data_mof_unit_43879.cif
_audit_creation_date              2012-12-10T17:22:12-0500
_audit_creation_method            fapswitch 2.2
_symmetry_space_group_name_H-M    P1
_symmetry_Int_Tables_number       1
_space_group_crystal_system       triclinic
_cell_length_a                    15.878312
_cell_length_b                    10.859122
_cell_length_c                    9.611761
_cell_angle_alpha                 91.015789
_cell_angle_beta                  90.480155
_cell_angle_gamma                 93.242285
_cell_volume                      1654.31737768

loop_
_atom_site_label
_atom_site_type_symbol
_atom_type_description
_atom_site_fract_x
_atom_site_fract_y
_atom_site_fract_z
_atom_type_partial_charge
C1    C     C_R   0.506792 0.263417 0.499721 0.795454
C2    C     C_3   0.949485 0.406535 0.605948 0.026833
C3    C     C_3   0.917114 0.500775 0.500780 0.231232
C4    C     C_3   0.954871 0.630865 0.543538 -0.434264
C5    C     C_3   0.053368 0.634547 0.543275 0.019106
C6    C     C_1   0.824863 0.500522 0.501339 -0.052483
C7    C     C_1   0.175261 0.502085 0.497903 -0.108782
C8    C     C_1   0.250747 0.500515 0.498349 -0.184377
C9    C     C_R   0.566051 0.128886 0.747465 -0.136940
C10   C     C_R   0.561544 0.073522 0.876922 -0.155297
C11   C     C_R   0.520817 0.957834 0.889002 -0.150366
C12   C     C_R   0.340358 0.499482 0.499515 0.831913
C13   C     C_R   0.492501 0.892396 0.769895 -0.170008
C14   C     C_R   0.504949 0.942073 0.635387 0.092789
C15   C     C_R   0.529580 0.068427 0.627675 0.098797
C16   C     C_R   0.515265 0.130018 0.501314 -0.106414
C17   C     C_R   0.497202 0.061707 0.379035 -0.214522
C18   C     C_R   0.490340 0.934392 0.381706 -0.210763
C19   C     C_R   0.493826 0.872633 0.508342 -0.112118
C20   C     C_R   0.614045 0.663388 0.148269 -0.133221
C21   C     C_R   0.669760 0.742829 0.077992 -0.221176
C22   C     C_R   0.669706 0.742350 0.934571 -0.193923
C23   C     C_R   0.496218 0.737676 0.502145 0.778145
C24   C     C_R   0.613702 0.662753 0.860489 -0.130790
C25   C     C_R   0.556070 0.579829 0.927608 0.175862
C26   C     C_R   0.556253 0.579786 0.077076 0.171628
C27   C     C_R   0.444566 0.425097 0.068976 0.231784
C28   C     C_R   0.446508 0.424900 0.921568 -0.067092
C29   C     C_R   0.659645 0.500406 0.500444 0.807847
C30   C     C_3   0.047235 0.408399 0.603155 -0.429330
C31   C     C_3   0.046346 0.467664 0.352326 -0.380363
C32   C     C_3   0.948932 0.469912 0.352685 -0.358663
C33   C     C_1   0.749303 0.500499 0.501346 -0.147624
C34   C     C_3   0.083033 0.504538 0.498182 0.235795
Cu1   Cu    Cu3+1 0.499990 0.499990 0.640660 0.919368
Cu2   Cu    Cu3+1 0.500010 0.500010 0.359340 0.923388
H1    H     H_    0.072761 0.431054 0.709356 0.147623
H2    H     H_    0.929612 0.433470 0.712516 0.133258
H3    H     H_    0.930315 0.699554 0.471135 0.188269
H4    H     H_    0.487907 0.106602 0.280739 0.157008
H5    H     H_    0.599223 0.218383 0.742351 0.169033
H6    H     H_    0.587286 0.122084 0.968445 0.141883
H7    H     H_    0.512566 0.917498 0.990567 0.142629
H8    H     H_    0.457866 0.805959 0.787236 0.172409
H9    H     H_    0.480441 0.884326 0.283886 0.164163
H10   H     H_    0.068473 0.315505 0.574513 0.207094
H11   H     H_    0.618931 0.672416 0.258197 0.198805
H12   H     H_    0.713042 0.805768 0.135582 0.156826
H13   H     H_    0.712746 0.805124 0.879995 0.160722
H14   H     H_    0.617443 0.671453 0.750869 0.200443
H15   H     H_    0.403296 0.363605 0.861746 0.153932
H16   H     H_    0.072801 0.530787 0.271868 0.159166
H17   H     H_    0.064657 0.373291 0.322890 0.181980
H18   H     H_    0.920709 0.379229 0.315040 0.202831
H19   H     H_    0.928765 0.540233 0.278354 0.160338
H20   H     H_    0.076210 0.652925 0.652061 0.148631
H21   H     H_    0.932978 0.656415 0.649384 0.151187
N1    N     N_R   0.500800 0.501210 0.147910 -0.216119
N2    N     N_R   0.500820 0.501290 0.852040 -0.221700
O1    O     O_R   0.499990 0.319640 0.618810 -0.587953
O2    O     O_R   0.500000 0.319660 0.381240 -0.601507
O3    O     O_R   0.379430 0.499990 0.618840 -0.574094
O4    O     O_R   0.379440 0.500020 0.381260 -0.577737
O5    O     O_R   0.500000 0.680340 0.618760 -0.613007
O6    O     O_R   0.500010 0.680360 0.381190 -0.598896
O7    O     O_R   0.620560 0.499980 0.618740 -0.593820
O8    O     O_R   0.620570 0.500010 0.381160 -0.588101
I1    I     I_    0.895393 0.221056 0.571982 -0.468709
C35   C     C_3   0.376926 0.339314 0.130826 -0.369885
C36   C     C_3   0.289012 0.386428 0.107367 -0.854644
H22   H     H_    0.285767 0.481732 0.150045 0.269884
H23   H     H_    0.272943 0.386028 0.994700 0.239193
H24   H     H_    0.241341 0.325666 0.160751 0.239561
H25   H     H_    0.379530 0.246357 0.081099 0.162967
H26   H     H_    0.384992 0.324379 0.241874 0.258919
C37   C     C_3   0.090610 0.741276 0.452905 -0.402159
C38   C     C_3   0.079001 0.867946 0.519970 -0.826546
H27   H     H_    0.011126 0.884452 0.532552 0.267188
H28   H     H_    0.110774 0.875064 0.623421 0.247390
H29   H     H_    0.107571 0.940933 0.452800 0.247724
H30   H     H_    0.159359 0.732964 0.438462 0.210849
H31   H     H_    0.060533 0.737782 0.347999 0.211546

loop_
_geom_bond_atom_site_label_1
_geom_bond_atom_site_label_2
_ccdc_geom_bond_type
C10   H6    S    
C5    H20   S    
Cu1   Cu2   S    
C31   H16   S    
C3    C6    S    
Cu2   O8    S    
C7    C8    T    
C38   H27   S    
C2    I1    S    
C28   H15   S    
C38   H29   S    
C15   C16   A    
C29   C33   S    
Cu1   N2    S    
C18   C19   A    
C29   O8    A    
C16   C17   A    
C4    H21   S    
C11   H7    S    
C36   H22   S    
Cu2   O4    S    
C9    C10   A    
C32   H19   S    
C27   C35   S    
C21   H12   S    
C13   C14   A    
C35   C36   S    
C32   H18   S    
C38   H28   S    
C24   H14   S    
C30   C34   S    
Cu2   N1    S    
C24   C25   A    
C1    O1    A    
C37   H31   S    
C12   O4    A    
Cu2   O6    S    
Cu1   O7    S    
C25   C26   A    
C31   H17   S    
C30   H1    S    
Cu1   O1    S    
C17   H4    S    
C19   C23   S    
C12   O3    A    
C2    H2    S    
C31   C32   S    
C4    H3    S    
C8    C12   S    
C5    C34   S    
C36   H24   S    
C17   C18   A    
C31   C34   S    
C35   H25   S    
C1    C16   S    
C37   C38   S    
C26   N1    A    
Cu1   O5    S    
C22   H13   S    
C23   O5    A    
C7    C34   S    
C22   C24   A    
C3    C4    S    
C18   H9    S    
C28   N2    A    
C14   C19   A    
C30   H10   S    
C4    C5    S    
C27   N1    A    
C1    O2    A    
C37   H30   S    
C9    H5    S    
C6    C33   T    
C2    C30   S    
C23   O6    A    
C5    C37   S    
C2    C3    S    
C9    C15   A    
C11   C13   A    
C20   C26   A    
C35   H26   S    
Cu1   O3    S    
C3    C32   S    
C20   H11   S    
C10   C11   A    
C29   O7    A    
C20   C21   A    
C27   C28   A    
C14   C15   A    
C36   H23   S    
C25   N2    A    
C21   C22   A    
C13   H8    S    
Cu2   O2    S    
