data_mof_unit_47359.cif
_audit_creation_date              2012-12-10T17:53:21-0500
_audit_creation_method            fapswitch 2.2
_symmetry_space_group_name_H-M    P1
_symmetry_Int_Tables_number       1
_space_group_crystal_system       triclinic
_cell_length_a                    23.372443
_cell_length_b                    10.690173
_cell_length_c                    9.923701
_cell_angle_alpha                 91.110745
_cell_angle_beta                  90.909867
_cell_angle_gamma                 92.191234
_cell_volume                      2476.869426

loop_
_atom_site_label
_atom_site_type_symbol
_atom_type_description
_atom_site_fract_x
_atom_site_fract_y
_atom_site_fract_z
_atom_type_partial_charge
C1    C     C_R   0.502449 0.260635 0.499144 0.902389
C2    C     C_R   0.122182 0.570624 0.604518 0.620350
C3    C     C_R   0.241830 0.617621 0.464909 -0.187107
C4    C     C_R   0.389731 0.499654 0.499420 0.938586
C5    C     C_R   0.301359 0.616444 0.470938 0.427985
C6    C     C_R   0.327967 0.503717 0.499525 -0.261344
C7    C     C_R   0.295070 0.396839 0.535368 0.399436
C8    C     C_R   0.235777 0.403125 0.539705 -0.178497
C9    C     C_R   0.209367 0.511638 0.500486 0.139891
C10   C     C_R   0.759907 0.427094 0.600902 0.728724
C11   C     C_R   0.700568 0.428845 0.598853 -0.460679
C12   C     C_R   0.967257 0.389201 0.289978 0.606116
C13   C     C_R   0.672371 0.500466 0.503465 -0.264140
C14   C     C_R   0.703727 0.571556 0.410875 0.594491
C15   C     C_R   0.763016 0.569669 0.413087 -0.303536
C16   C     C_R   0.503234 0.739525 0.500808 0.905278
C17   C     C_R   0.791111 0.497615 0.507850 0.059660
C18   C     C_R   0.584727 0.140549 0.675624 -0.356217
C19   C     C_R   0.621213 0.080313 0.764580 0.398289
C20   C     C_R   0.627954 0.951135 0.748244 0.482015
C21   C     C_R   0.590498 0.881452 0.661991 -0.264557
C22   C     C_R   0.548330 0.940214 0.584747 0.016799
C23   C     C_R   0.026763 0.393338 0.287621 0.605954
C24   C     C_R   0.547062 0.071345 0.586592 -0.017157
C25   C     C_R   0.508584 0.128642 0.497096 -0.184888
C26   C     C_R   0.474698 0.058463 0.404046 0.552029
C27   C     C_R   0.474427 0.931123 0.406859 -0.293695
C28   C     C_R   0.610412 0.500585 0.500995 0.934564
C29   C     C_R   0.508844 0.872273 0.499937 -0.163095
C30   C     C_R   0.423561 0.338992 0.133978 -0.053827
C31   C     C_R   0.385188 0.260182 0.061303 -0.132155
C32   C     C_R   0.384996 0.259641 0.921859 -0.177744
C33   C     C_R   0.423184 0.338020 0.854236 -0.089543
C34   C     C_R   0.058889 0.452580 0.393464 -0.214634
C35   C     C_R   0.462025 0.420712 0.924683 0.044007
C36   C     C_R   0.462280 0.420562 0.069123 0.108824
C37   C     C_R   0.536101 0.575939 0.075363 -0.208223
C38   C     C_R   0.538204 0.572300 0.932341 0.511864
C39   C     C_R   0.881842 0.554714 0.613523 0.673737
C40   C     C_R   0.878612 0.441403 0.403205 0.633636
C41   C     C_R   0.938468 0.444230 0.398234 -0.218313
C42   C     C_R   0.970219 0.504448 0.504803 -0.161781
C43   C     C_R   0.941808 0.560116 0.613934 -0.218753
C44   C     C_3   0.615845 0.200934 0.956204 0.116305
C45   C     C_R   0.030503 0.508808 0.502321 -0.159395
C46   C     C_3   0.650236 0.256765 0.076742 -0.366724
C47   C     C_3   0.677150 0.155598 0.160786 -0.678214
C48   C     C_3   0.724069 0.920187 0.775136 0.106134
C49   C     C_3   0.737750 0.841773 0.649235 -0.449485
C50   C     C_3   0.798107 0.873622 0.600710 -0.769967
C51   C     C_3   0.631882 0.589715 0.868185 0.104113
C52   C     C_3   0.668197 0.621797 0.995264 -0.411185
C53   C     C_3   0.731275 0.596153 0.973757 -0.744256
C54   C     C_3   0.350436 0.783845 0.572129 0.034686
C55   C     C_3   0.300259 0.835559 0.651718 -0.363252
C56   C     C_R   0.062288 0.569015 0.608898 -0.211953
C57   C     C_3   0.321261 0.931434 0.759043 -0.890924
C58   C     C_3   0.328946 0.208861 0.465584 0.085759
C59   C     C_3   0.274722 0.127940 0.432287 -0.404219
C60   C     C_3   0.286595 0.022433 0.331942 -0.804439
C61   C     C_R   0.033483 0.624495 0.716854 0.608561
C62   C     C_R   0.973949 0.620000 0.719409 0.600788
C63   C     C_R   0.118830 0.456710 0.394579 0.621184
F1    F     F_    0.938228 0.330996 0.185377 -0.541699
F2    F     F_    0.677167 0.645924 0.322071 -0.691497
F3    F     F_    0.439381 0.112653 0.314559 -0.721294
F4    F     F_    0.052502 0.338716 0.181014 -0.544679
F5    F     F_    0.062530 0.683220 0.821099 -0.547311
F6    F     F_    0.948199 0.674759 0.825923 -0.554903
F7    F     F_    0.787066 0.356077 0.691980 -0.627248
H1    H     H_    0.676696 0.373169 0.670299 0.206252
H2    H     H_    0.421211 0.330131 0.747253 0.226192
H3    H     H_    0.220786 0.702278 0.437661 0.168811
H4    H     H_    0.210002 0.323147 0.571872 0.168960
H5    H     H_    0.583913 0.129930 0.993450 0.152003
H6    H     H_    0.592296 0.278050 0.909752 0.088573
H7    H     H_    0.684442 0.322117 0.040557 0.244099
H8    H     H_    0.621356 0.310991 0.141740 0.185813
H9    H     H_    0.643374 0.091121 0.200743 0.234737
H10   H     H_    0.701503 0.200098 0.247197 0.244572
H11   H     H_    0.707014 0.101133 0.098917 0.293214
H12   H     H_    0.787370 0.625035 0.342155 0.192763
H13   H     H_    0.755135 0.898605 0.856502 0.194246
H14   H     H_    0.730965 0.021760 0.754888 0.195636
H15   H     H_    0.734184 0.740639 0.672422 0.234835
H16   H     H_    0.706765 0.860138 0.566579 0.235294
H17   H     H_    0.801899 0.973457 0.571898 0.269246
H18   H     H_    0.807446 0.814415 0.511272 0.258850
H19   H     H_    0.830198 0.856281 0.681261 0.298972
H20   H     H_    0.655337 0.625638 0.779768 0.197149
H21   H     H_    0.627596 0.486065 0.853914 0.113387
H22   H     H_    0.664145 0.721899 0.024392 0.296315
H23   H     H_    0.587330 0.241352 0.677455 0.191052
H24   H     H_    0.652940 0.562760 0.079098 0.236876
H25   H     H_    0.736253 0.497886 0.938957 0.276453
H26   H     H_    0.755544 0.611866 0.070083 0.285494
H27   H     H_    0.749677 0.660076 0.897673 0.273881
H28   H     H_    0.380253 0.863124 0.548470 0.172536
H29   H     H_    0.375072 0.720311 0.636388 0.161558
H30   H     H_    0.269972 0.880002 0.582033 0.241263
H31   H     H_    0.276816 0.757551 0.702053 0.250737
H32   H     H_    0.351249 0.888197 0.830823 0.271131
H33   H     H_    0.284223 0.965847 0.815711 0.282841
H34   H     H_    0.596187 0.781868 0.652729 0.202120
H35   H     H_    0.343407 0.012412 0.711085 0.256707
H36   H     H_    0.363696 0.146279 0.494453 0.192633
H37   H     H_    0.343536 0.259762 0.374639 0.144556
H38   H     H_    0.257775 0.087677 0.526552 0.241293
H39   H     H_    0.241370 0.186428 0.387581 0.244073
H40   H     H_    0.296353 0.061210 0.231767 0.262245
H41   H     H_    0.248198 0.958356 0.321292 0.268241
H42   H     H_    0.323271 0.967999 0.366779 0.290279
H43   H     H_    0.445620 0.877945 0.338539 0.208262
H44   H     H_    0.564376 0.640019 0.132751 0.197064
H45   H     H_    0.422110 0.333529 0.240658 0.220919
H46   H     H_    0.355674 0.198725 0.113533 0.169222
H47   H     H_    0.355229 0.197811 0.865634 0.179276
N1    N     N_R   0.852019 0.496789 0.509004 -0.340628
N2    N     N_R   0.148618 0.514361 0.499153 -0.352689
N3    N     N_R   0.499460 0.498800 0.142780 -0.150187
N4    N     N_R   0.499440 0.498720 0.857170 -0.167021
O1    O     O_R   0.500000 0.316780 0.614690 -0.666370
O2    O     O_R   0.583850 0.500050 0.614640 -0.645754
O3    O     O_R   0.583840 0.500030 0.385310 -0.580039
O4    O     O_2   0.853231 0.607471 0.715680 -0.484546
O5    O     O_3   0.653244 0.147530 0.862016 -0.611510
O6    O     O_3   0.668457 0.889651 0.822446 -0.635545
O7    O     O_3   0.578292 0.647922 0.869123 -0.612444
O8    O     O_3   0.332699 0.726061 0.447580 -0.644410
O9    O     O_3   0.320693 0.289621 0.577586 -0.665950
O10   O     O_2   0.846871 0.383706 0.303793 -0.463347
O11   O     O_2   0.147507 0.403561 0.292728 -0.461989
O12   O     O_2   0.154071 0.626448 0.704810 -0.470671
O13   O     O_R   0.500000 0.316750 0.385360 -0.601288
O14   O     O_R   0.416160 0.499970 0.614690 -0.633859
O15   O     O_R   0.416150 0.499950 0.385360 -0.628597
O16   O     O_R   0.500000 0.683250 0.614640 -0.597767
O17   O     O_R   0.500000 0.683220 0.385310 -0.598075
Zn1   Zn    Zn3+2 0.500000 0.500020 0.653130 0.948678
Zn2   Zn    Zn3+2 0.500000 0.499980 0.346870 0.973755

loop_
_geom_bond_atom_site_label_1
_geom_bond_atom_site_label_2
_ccdc_geom_bond_type
C40   N1    A    
C39   O4    S    
C22   C29   A    
C27   C29   A    
C41   C42   A    
C57   H35   S    
C35   C36   A    
C47   H9    S    
C32   H47   S    
O15   Zn2   S    
C28   O2    A    
C7    C8    A    
O14   Zn1   S    
C57   H32   S    
O16   Zn1   S    
C12   C23   A    
C44   O5    S    
C26   C27   A    
C12   C41   A    
C3    C9    A    
C51   O7    S    
O1    Zn1   S    
C18   C19   A    
C51   H20   S    
O13   Zn2   S    
C30   C31   A    
C12   F1    S    
C11   H1    S    
C53   H25   S    
C10   C17   A    
O2    Zn1   S    
C10   F7    S    
C58   H37   S    
C23   F4    S    
C44   H6    S    
C1    O1    A    
C7    O9    S    
C33   H2    S    
C51   H21   S    
C46   C47   S    
C21   H34   S    
C19   C20   A    
C45   C56   A    
C8    C9    A    
C55   H30   S    
C13   C28   S    
C52   H24   S    
N3    Zn2   S    
C50   H18   S    
C4    O15   A    
C5    O8    S    
C59   C60   S    
C13   C14   A    
C53   H26   S    
C1    C25   S    
C47   H10   S    
C59   H39   S    
C3    H3    S    
C44   C46   S    
C15   H12   S    
C30   H45   S    
C57   H33   S    
C2    O12   S    
C51   C52   S    
C26   F3    S    
C49   H15   S    
C35   N4    A    
C24   C25   A    
C20   O6    S    
C4    C6    S    
C46   H8    S    
C39   C43   A    
C37   H44   S    
C53   H27   S    
C25   C26   A    
C48   H14   S    
C62   F6    S    
C58   H36   S    
C42   C45   A    
C44   H5    S    
C37   C38   A    
C60   H42   S    
C63   N2    A    
C50   H19   S    
C31   C32   A    
C23   C34   A    
C8    H4    S    
C34   C45   A    
C63   O11   S    
O17   Zn2   S    
C50   H17   S    
C4    O14   A    
C17   N1    S    
C40   C41   A    
C40   O10   S    
C55   C57   S    
C9    N2    S    
C18   C24   A    
C54   H29   S    
C52   H22   S    
C42   C43   A    
C1    O13   A    
C27   H43   S    
C31   H46   S    
C52   C53   S    
C15   C17   A    
C54   O8    S    
C54   C55   S    
C48   C49   S    
C16   O16   A    
C14   C15   A    
C49   H16   S    
O3    Zn2   S    
C16   O17   A    
C3    C5    A    
C46   H7    S    
C38   O7    S    
C2    N2    A    
C28   O3    A    
C6    C7    A    
C39   N1    A    
C55   H31   S    
C19   O5    S    
C59   H38   S    
C48   H13   S    
C30   C36   A    
C32   C33   A    
N4    Zn1   S    
C16   C29   S    
C60   H41   S    
C2    C56   A    
C48   O6    S    
C11   C13   A    
C61   F5    S    
C5    C6    A    
C37   N3    A    
C58   O9    S    
C34   C63   A    
C33   C35   A    
C14   F2    S    
C22   C24   A    
C47   H11   S    
C61   C62   A    
C36   N3    A    
C58   C59   S    
C38   N4    A    
C60   H40   S    
C10   C11   A    
C20   C21   A    
C49   C50   S    
C18   H23   S    
C56   C61   A    
C54   H28   S    
C21   C22   A    
C43   C62   A    
