data_mof_unit_47638.cif
_audit_creation_date              2013-03-05T15:45:33-0500
_audit_creation_method            fapswitch 2.2
_symmetry_space_group_name_H-M    P1
_symmetry_Int_Tables_number       1
_space_group_crystal_system       triclinic
_cell_length_a                    8.38098
_cell_length_b                    14.445774
_cell_length_c                    19.106269
_cell_angle_alpha                 92.579702
_cell_angle_beta                  94.19868
_cell_angle_gamma                 91.386667
_cell_volume                      2303.76714441

loop_
_atom_site_label
_atom_site_type_symbol
_atom_site_description
_atom_site_fract_x
_atom_site_fract_y
_atom_site_fract_z
_atom_type_partial_charge
P1    P     P_3+3 0.937730 0.712710 0.546710 0.516485
O1    O     O_2   0.108370 0.727470 0.525290 -0.318663
O2    O     O_3   0.865330 0.611210 0.531230 -0.415563
O3    O     O_3   0.346360 0.671710 0.401620 -0.364990
O4    O     O_2   0.212731 0.838246 0.436467 -0.423875
O5    O     O_3   0.969648 0.730944 0.637817 -0.549657
O6    O     O_3   0.371478 0.837980 0.322245 -0.482215
H1    H     H_    0.135342 0.868766 0.302943 0.089561
C1    C     C_3   0.247117 0.843396 0.206056 -0.746447
P2    P     P_3+3 0.357970 0.428340 0.344000 0.496145
P3    P     P_3+3 0.902397 0.608240 0.275480 0.532460
O7    O     O_2   0.182890 0.456530 0.332150 -0.309899
O8    O     O_3   0.933230 0.625130 0.368420 -0.284805
O9    O     O_2   0.052480 0.560214 0.250988 -0.380015
O10   O     O_3   0.338869 0.307352 0.332978 -0.550181
O11   O     O_3   0.916997 0.713607 0.232000 -0.577477
C2    C     C_3   0.784897 0.774111 0.232287 0.178666
C3    C     C_3   0.815923 0.845132 0.175325 -0.732381
H2    H     H_    0.922930 0.888607 0.193170 0.183116
C4    C     C_3   0.731241 0.273673 0.323202 0.386813
H3    H     H_    0.656819 0.326918 0.347319 0.048146
C5    C     C_3   0.641763 0.179843 0.315763 -0.840050
H4    H     H_    0.589330 0.165321 0.365352 0.217094
H5    H     H_    0.541314 0.180341 0.274658 0.258821
H6    H     H_    0.723705 0.123541 0.302157 0.279839
Ba1   Ba    Ba6+2 0.150350 0.545800 0.464500 1.644691
C6    C     C_3   0.015570 0.648816 0.668706 0.388223
H7    H     H_    0.913560 0.598204 0.665470 0.130383
C7    C     C_3   0.066792 0.671672 0.745690 -0.840560
H8    H     H_    0.987497 0.723735 0.768127 0.265789
C8    C     C_3   0.292262 0.268279 0.394151 0.449489
H9    H     H_    0.193268 0.306896 0.415748 0.116238
H10   H     H_    0.395442 0.268664 0.434042 0.098520
C9    C     C_3   0.235770 0.168205 0.375748 -0.992272
H11   H     H_    0.121890 0.166525 0.342257 0.298276
H12   H     H_    0.218597 0.130309 0.423670 0.212691
H13   H     H_    0.324910 0.130444 0.346577 0.275193
P4    P     P_3+3 0.872570 0.287280 0.453240 0.475046
O12   O     O_2   0.701930 0.272470 0.474700 -0.401533
O13   O     O_3   0.944970 0.388780 0.468720 -0.378054
O14   O     O_3   0.463940 0.328280 0.598320 -0.379327
O15   O     O_3   0.877690 0.264463 0.362262 -0.571715
P5    P     P_3+3 0.896884 0.372207 0.722693 0.504768
O16   O     O_3   0.372010 0.546630 0.581240 -0.367309
O17   O     O_3   0.877070 0.374860 0.631520 -0.371039
O18   O     O_2   0.770379 0.437883 0.750067 -0.324763
O19   O     O_3   0.829478 0.262451 0.744170 -0.473562
Ba2   Ba    Ba6+2 0.659830 0.454190 0.535450 1.603914
P6    P     P_3+3 0.363490 0.796349 0.406828 0.540990
C10   C     C_3   0.225765 0.822008 0.282761 0.426910
H14   H     H_    0.187490 0.748219 0.284932 0.159683
H15   H     H_    0.361159 0.816256 0.190010 0.234103
O20   O     O_3   0.438280 0.453360 0.418700 -0.456571
C11   C     C_3   0.582040 0.738141 0.701840 0.293066
H16   H     H_    0.685039 0.699481 0.684268 0.087737
C12   C     C_3   0.609092 0.766653 0.782121 -0.756340
P7    P     P_3+3 0.446012 0.569951 0.669393 0.500453
O21   O     O_2   0.627420 0.543410 0.667830 -0.343861
O22   O     O_3   0.433091 0.690324 0.686339 -0.571301
H17   H     H_    0.844786 0.806956 0.126176 0.244507
C13   C     C_3   0.942254 0.195700 0.728345 0.244279
H18   H     H_    0.003267 0.210270 0.680009 0.064226
H19   H     H_    0.033162 0.194558 0.773589 0.086800
C14   C     C_3   0.854763 0.101080 0.716360 -0.508050
H20   H     H_    0.748956 0.098563 0.747961 0.259221
P8    P     P_3+3 0.442431 0.209256 0.605632 0.480548
C15   C     C_3   0.412817 0.245282 0.737349 0.319816
O23   O     O_2   0.574982 0.165234 0.564275 -0.394743
O24   O     O_3   0.492901 0.183941 0.693365 -0.475836
H21   H     H_    0.345664 0.260897 0.843815 0.108666
C16   C     C_3   0.422635 0.214459 0.813932 -0.786975
C17   C     C_R   0.008111 0.943464 0.542839 -0.067945
C18   C     C_R   0.816675 0.809784 0.508682 0.169830
C19   C     C_R   0.668419 0.782849 0.475632 -0.431136
C20   C     C_R   0.552641 0.844555 0.454162 0.260680
C21   C     C_R   0.593059 0.939260 0.457691 -0.216953
C22   C     C_R   0.747504 0.970923 0.484588 0.060941
C23   C     C_R   0.858437 0.907295 0.513979 -0.006714
C24   C     C_R   0.941823 0.101964 0.508035 -0.046494
C25   C     C_R   0.049893 0.039179 0.540294 0.055609
C26   C     C_R   0.987284 0.199063 0.506224 0.285868
C27   C     C_R   0.133661 0.229407 0.541094 -0.519066
C28   C     C_R   0.242113 0.166667 0.569879 0.208442
C29   C     C_R   0.200784 0.072428 0.568907 -0.209225
C30   C     C_R   0.792264 0.065178 0.480165 -0.116460
H22   H     H_    0.507367 0.987412 0.436195 0.156274
H23   H     H_    0.168385 0.302083 0.541835 0.161871
H24   H     H_    0.093991 0.897558 0.566828 0.191281
H25   H     H_    0.706900 0.109432 0.455799 0.166353
C31   C     C_R   0.629976 0.503627 0.293901 -0.379896
C32   C     C_R   0.474079 0.473006 0.274828 0.281965
C33   C     C_R   0.420024 0.462983 0.203378 -0.220515
C34   C     C_R   0.522753 0.486010 0.150813 0.108900
C35   C     C_R   0.679026 0.520891 0.172258 -0.227685
C36   C     C_R   0.728301 0.533886 0.244009 0.247838
C37   C     C_R   0.510649 0.545623 0.028494 -0.108601
C38   C     C_R   0.453297 0.541176 0.957902 -0.088993
C39   C     C_R   0.351261 0.467753 0.929628 0.121418
C40   C     C_R   0.306964 0.399288 0.975467 -0.163772
C41   C     C_R   0.362013 0.404890 0.046936 -0.112514
C42   C     C_R   0.464940 0.478305 0.074528 0.116540
C43   C     C_R   0.147080 0.419337 0.828190 -0.243339
C44   C     C_R   0.098852 0.414309 0.756099 0.209904
C45   C     C_R   0.339838 0.499782 0.731396 0.278963
C46   C     C_R   0.389534 0.502715 0.803015 -0.283009
C47   C     C_R   0.295431 0.462319 0.852746 0.019440
C48   C     C_R   0.198000 0.451944 0.708082 -0.495517
H26   H     H_    0.502364 0.536269 0.819553 0.180971
H27   H     H_    0.488809 0.596720 0.926023 0.182510
H28   H     H_    0.589296 0.603314 0.046826 0.192633
H29   H     H_    0.299395 0.436750 0.189122 0.154214
H30   H     H_    0.231800 0.340320 0.956151 0.145376
H31   H     H_    0.326271 0.350649 0.080316 0.148411
H32   H     H_    0.066998 0.392116 0.864638 0.169990
H33   H     H_    0.759140 0.542830 0.133899 0.147493
H34   H     H_    0.675741 0.503790 0.348166 0.185795
H35   H     H_    0.116606 0.617883 0.642560 0.107076
H36   H     H_    0.189108 0.701867 0.750603 0.266564
H37   H     H_    0.063681 0.608603 0.776504 0.239582
H38   H     H_    0.151288 0.807362 0.171136 0.205409
C49   C     C_2   0.579983 0.823703 0.659351 1.023496
O25   O     O_2   0.699829 0.873837 0.660182 -0.671014
O26   O     O_R   0.441975 0.845043 0.618315 -0.743618
H39   H     H_    0.457428 0.903013 0.591468 0.298930
C50   C     C_2   0.704185 0.697875 0.825063 1.049311
O27   O     O_2   0.741469 0.623945 0.798642 -0.597397
O28   O     O_R   0.754955 0.719373 0.895411 -0.738302
H40   H     H_    0.723026 0.783332 0.912236 0.320163
H41   H     H_    0.683719 0.831604 0.788115 0.180034
C51   C     C_2   0.453280 0.788240 0.813962 1.117268
O29   O     O_2   0.405224 0.742385 0.860857 -0.661754
O30   O     O_R   0.362999 0.861238 0.788985 -0.743262
H42   H     H_    0.261526 0.869204 0.814189 0.325853
C52   C     C_2   0.248131 0.945724 0.194955 1.122978
O31   O     O_2   0.159620 0.976435 0.148311 -0.624405
O32   O     O_R   0.352915 0.005253 0.236817 -0.730145
H43   H     H_    0.343590 0.071985 0.223171 0.326307
H44   H     H_    0.810101 0.091197 0.660253 0.189924
C53   C     C_2   0.960391 0.022461 0.735500 1.090386
O33   O     O_2   0.924002 0.970510 0.780902 -0.601745
O34   O     O_R   0.098347 0.007898 0.700543 -0.816015
H45   H     H_    0.152744 0.948736 0.713701 0.367568
H46   H     H_    0.283936 0.248146 0.719223 -0.008017
H47   H     H_    0.467012 0.316080 0.736237 0.112939
C54   C     C_2   0.590131 0.225777 0.850024 1.202193
O35   O     O_2   0.664459 0.158131 0.868289 -0.567653
O36   O     O_R   0.660184 0.313671 0.865780 -0.736260
H48   H     H_    0.588417 0.365431 0.850698 0.290895
C55   C     C_2   0.786707 0.827321 0.302180 0.965580
O37   O     O_2   0.689817 0.887669 0.311538 -0.602344
O38   O     O_R   0.905663 0.811935 0.354545 -0.764078
H49   H     H_    0.923284 0.867624 0.388182 0.312523
C56   C     C_2   0.355881 0.117165 0.818470 1.176119
O39   O     O_2   0.414023 0.052514 0.786605 -0.545252
O40   O     O_R   0.230556 0.101094 0.861156 -0.800580
H50   H     H_    0.199609 0.032946 0.862104 0.342381
C57   C     C_2   0.630831 0.687065 0.462125 1.117710
O41   O     O_2   0.655828 0.649729 0.405911 -0.621037
O42   O     O_R   0.547981 0.642335 0.510563 -0.749503
H51   H     H_    0.496643 0.584872 0.487030 0.389732
H52   H     H_    0.286017 0.025321 0.591709 0.174143
C58   C     C_2   0.625010 0.724282 0.214317 0.897396
O43   O     O_2   0.577254 0.707538 0.152977 -0.645413
O44   O     O_R   0.531831 0.696807 0.267739 -0.774631
H53   H     H_    0.428182 0.664050 0.248896 0.321500
H54   H     H_    0.158973 0.450099 0.652786 0.153821
C59   C     C_2   0.681920 0.909670 0.156962 1.177761
O45   O     O_2   0.674220 0.983840 0.189806 -0.585364
O46   O     O_R   0.573667 0.887313 0.099161 -0.750908
H55   H     H_    0.492738 0.937329 0.090496 0.332810
C60   C     C_2   0.768110 0.303012 0.251156 0.950610
O47   O     O_2   0.661314 0.304277 0.204079 -0.662045
O48   O     O_R   0.924848 0.328632 0.238059 -0.735425
H56   H     H_    0.934029 0.347814 0.188084 0.324192

loop_
_geom_bond_atom_site_label_1
_geom_bond_atom_site_label_2
_geom_bond_distance
_ccdc_geom_bond_type
P8    O23   1.542852 D    
C60   O47   1.222648 D    
C34   C35   1.417052 A    
H1    C10   1.106054 S    
C6    C7    1.521095 S    
C9    H13   1.104374 S    
C53   O34   1.392606 S    
O46   H55   1.013668 S    
O36   H48   1.009798 S    
C24   C30   1.407701 A    
C25   C29   1.405183 A    
C15   H46   1.112230 S    
C38   C39   1.408892 A    
P7    O21   1.579006 D    
Ba1   O16   2.795718 S    
O26   H39   1.012076 S    
C59   O46   1.397873 S    
C14   H44   1.111115 S    
C22   C23   1.426871 A    
C7    H37   1.107593 S    
C57   O41   1.214338 D    
C28   C29   1.395556 A    
O44   H53   1.013462 S    
P4    O15   1.758426 S    
P2    O10   1.753015 S    
C55   O38   1.388902 S    
O42   H51   0.998569 S    
P4    O12   1.529089 D    
C9    H11   1.108617 S    
P3    O9    1.543265 D    
P7    O22   1.761772 S    
P8    O24   1.755359 S    
C27   H23   1.081832 S    
C16   C56   1.508622 S    
O2    Ba2   2.822337 S    
C3    H2    1.106189 S    
P1    O1    1.528734 D    
C18   C19   1.390547 A    
C13   H19   1.110633 S    
P2    O20   1.556215 S    
C41   C42   1.409116 A    
C17   C23   1.411263 A    
C54   O36   1.396812 S    
P8    C28   1.846070 S    
O5    C6    1.398519 S    
O30   H42   1.013961 S    
C5    H6    1.111237 S    
C18   C23   1.440511 A    
C8    H10   1.109770 S    
H21   C16   1.110195 S    
C31   H34   1.078701 S    
C56   O40   1.397477 S    
P4    Ba2   3.425931 S    
C12   H41   1.111785 S    
Ba1   Ba2   4.604758 S    
C1    C52   1.502662 S    
P2    Ba1   3.403735 S    
C48   H54   1.081821 S    
C22   C30   1.411411 A    
C57   O42   1.371995 S    
C37   C42   1.405105 A    
O4    P6    1.547381 D    
C43   C44   1.404963 A    
C1    H15   1.100658 S    
C15   H47   1.110676 S    
C45   C46   1.399339 A    
C17   H24   1.081686 S    
C54   O35   1.221917 D    
C58   O44   1.395490 S    
C11   O22   1.417369 S    
C6    H35   1.107437 S    
Ba2   O20   2.795301 S    
C46   H26   1.072045 S    
C11   C12   1.568906 S    
C19   C20   1.385961 A    
C1    C10   1.533563 S    
P1    O5    1.748754 S    
C31   C36   1.383448 A    
C21   C22   1.414754 A    
O6    P6    1.754756 S    
C34   C42   1.500300 S    
C59   O45   1.222578 D    
C24   C26   1.447173 A    
C30   H25   1.066500 S    
O11   C2    1.427232 S    
C52   O32   1.396114 S    
C10   H14   1.109159 S    
O48   H56   1.013864 S    
C37   H28   1.079356 S    
C26   C27   1.403205 A    
O7    Ba1   2.820678 S    
P1    O2    1.580242 S    
C13   C14   1.535296 S    
C51   O30   1.394010 S    
C20   C21   1.398881 A    
C7    H8    1.108135 S    
C43   H32   1.081828 S    
C38   H27   1.078137 S    
P3    O11   1.772453 S    
C4    O15   1.401362 S    
C40   C41   1.407132 A    
O16   P7    1.766570 S    
O38   H49   1.007873 S    
C37   C38   1.396453 A    
P6    C20   1.869723 S    
C2    C3    1.560025 S    
C8    C9    1.527892 S    
O1    Ba1   2.861859 S    
C12   C50   1.520347 S    
Ba2   O21   2.820696 S    
P5    O17   1.739974 S    
C49   O25   1.222720 D    
C52   O31   1.223138 D    
P2    O7    1.535825 D    
C3    H17   1.112456 S    
C16   C54   1.519817 S    
C11   C49   1.508764 S    
C4    C5    1.528942 S    
P2    C32   1.828830 S    
C39   C40   1.410985 A    
P4    C26   1.898958 S    
C50   O27   1.218099 D    
C5    H5    1.108855 S    
O8    Ba1   2.792053 S    
O28   H40   1.013136 S    
Ba1   O20   2.955021 S    
C21   H22   1.083990 S    
C32   C33   1.406528 A    
C53   O33   1.222692 D    
C58   O43   1.222013 D    
C7    H36   1.100244 S    
O17   Ba2   2.792552 S    
P3    C36   1.838952 S    
O13   Ba2   2.945549 S    
P7    C45   1.855132 S    
C11   H16   1.103946 S    
C19   C57   1.419591 S    
C8    H9    1.105272 S    
C2    C55   1.509429 S    
C41   H31   1.082606 S    
O6    C10   1.396252 S    
O32   H43   1.013238 S    
O19   C13   1.405096 S    
O3    Ba1   2.791306 S    
C3    C59   1.508647 S    
C33   H29   1.082464 S    
O10   C8    1.397425 S    
O14   P8    1.737430 S    
C60   O48   1.399333 S    
O2    Ba1   2.944696 S    
C46   C47   1.415191 A    
C39   C47   1.506663 S    
O3    P6    1.800446 S    
P1    C18   1.891127 S    
C14   H20   1.109523 S    
C13   H18   1.113588 S    
C51   O29   1.223577 D    
C17   C25   1.421936 A    
O34   H45   1.011376 S    
P4    O13   1.580243 S    
P3    O8    1.780530 S    
Ba1   O13   2.821739 S    
C31   C32   1.386863 A    
P1    Ba1   3.425359 S    
C40   H30   1.081822 S    
C33   C34   1.415410 A    
O14   Ba2   2.790601 S    
C43   C47   1.415105 A    
C15   C16   1.545577 S    
C35   H33   1.082155 S    
C35   C36   1.405468 A    
P5    O18   1.543684 D    
P5    C44   1.843780 S    
C49   O26   1.397788 S    
C2    C58   1.515042 S    
C24   C25   1.425188 A    
C4    C60   1.509452 S    
C4    H3    1.107416 S    
C9    H12   1.104239 S    
C27   C28   1.400582 A    
O40   H50   1.013253 S    
C50   O28   1.398688 S    
C1    H38   1.109586 S    
C5    H4    1.099626 S    
C44   C48   1.400846 A    
C15   O24   1.409361 S    
C56   O39   1.222552 D    
C55   O37   1.221824 D    
P5    O19   1.746567 S    
C45   C48   1.394298 A    
C12   C51   1.513797 S    
C29   H52   1.080639 S    
O16   Ba2   2.954176 S    
O12   Ba2   2.862397 S    
C6    H7    1.107808 S    
C14   C53   1.498643 S    
