data_mof_unit_29998.cif
_audit_creation_date              2012-10-26T20:40:14-0400
_audit_creation_method            fapswitch 2.2
_symmetry_space_group_name_H-M    P1
_symmetry_Int_Tables_number       1
_space_group_crystal_system       triclinic
_cell_length_a                    15.078718
_cell_length_b                    10.864107
_cell_length_c                    9.571598
_cell_angle_alpha                 90.040722
_cell_angle_beta                  89.888752
_cell_angle_gamma                 92.750983
_cell_volume                      1566.17835117

loop_
_atom_site_label
_atom_site_type_symbol
_atom_type_description
_atom_site_fract_x
_atom_site_fract_y
_atom_site_fract_z
_atom_type_partial_charge
C1    C     C_R   0.506796 0.262963 0.500826 0.552232
C2    C     C_R   0.185434 0.500781 0.373109 -0.138494
C3    C     C_R   0.231703 0.500837 0.500223 -0.013662
C4    C     C_R   0.328635 0.499866 0.500118 0.557711
C5    C     C_R   0.185157 0.502292 0.627294 -0.136085
C6    C     C_R   0.546389 0.119472 0.760736 -0.094332
C7    C     C_R   0.530171 0.060353 0.887925 -0.141556
C8    C     C_R   0.486462 0.945083 0.890335 -0.125284
C9    C     C_R   0.466641 0.884198 0.765262 -0.087753
C10   C     C_R   0.491227 0.937938 0.634749 0.034838
C11   C     C_R   0.518049 0.063886 0.633227 0.028480
C12   C     C_R   0.906943 0.504455 0.628006 0.014831
C13   C     C_R   0.514152 0.128990 0.504668 -0.012523
C14   C     C_R   0.505235 0.063701 0.378969 -0.164634
C15   C     C_R   0.497554 0.936481 0.379494 -0.165188
C16   C     C_R   0.494685 0.737441 0.501136 0.538298
C17   C     C_R   0.490564 0.871916 0.505912 -0.004136
C18   C     C_R   0.618294 0.663780 0.143804 -0.141171
C19   C     C_R   0.676501 0.743731 0.071785 -0.181102
C20   C     C_R   0.675777 0.746609 0.925961 0.241820
C21   C     C_R   0.618199 0.664177 0.855582 -0.063382
C22   C     C_R   0.558127 0.580773 0.925147 0.069326
C23   C     C_R   0.954129 0.502631 0.245366 -0.133108
C24   C     C_R   0.558037 0.580776 0.074621 0.127594
C25   C     C_R   0.444554 0.423491 0.074575 -0.006400
C26   C     C_R   0.444177 0.423309 0.926105 0.200230
C27   C     C_R   0.671355 0.500970 0.499910 0.537023
C28   C     C_R   0.814545 0.504058 0.627039 -0.126296
C29   C     C_R   0.768291 0.502686 0.499884 -0.011613
C30   C     C_R   0.814863 0.502908 0.372808 -0.142507
C31   C     C_R   0.907272 0.503239 0.371991 0.011092
C32   C     C_R   0.953542 0.503704 0.500038 0.060206
C33   C     C_3   0.754416 0.936862 0.908358 -0.000898
C34   C     C_R   0.046566 0.501939 0.245445 -0.133051
C35   C     C_3   0.784961 0.028201 0.795768 -0.364143
C36   C     C_R   0.093079 0.501977 0.372148 0.012574
C37   C     C_R   0.046501 0.503101 0.500112 0.061405
C38   C     C_R   0.092772 0.503354 0.628141 0.011346
C39   C     C_R   0.045916 0.504559 0.754768 -0.133683
C40   C     C_R   0.953465 0.505126 0.754702 -0.127684
Cu1   Cu    Cu3+1 0.499990 0.499990 0.640660 0.944185
Cu2   Cu    Cu3+1 0.500010 0.500010 0.359340 0.918890
H1    H     H_    0.778800 0.504444 0.725453 0.132675
H2    H     H_    0.623173 0.670852 0.745433 0.208245
H3    H     H_    0.779354 0.502377 0.274375 0.129212
H4    H     H_    0.919292 0.502399 0.146417 0.104506
H5    H     H_    0.081656 0.501206 0.146543 0.100595
H6    H     H_    0.221136 0.499775 0.274692 0.124180
H7    H     H_    0.220654 0.502650 0.725697 0.126884
H8    H     H_    0.080746 0.504858 0.853718 0.100088
H9    H     H_    0.918356 0.505834 0.853594 0.106843
H10   H     H_    0.504411 0.110902 0.279334 0.131841
H11   H     H_    0.809522 0.928291 0.984210 0.133302
H12   H     H_    0.583236 0.207136 0.764209 0.143861
H13   H     H_    0.696041 0.974691 0.962064 0.131033
H14   H     H_    0.731615 0.037408 0.717134 0.163856
H15   H     H_    0.800837 0.119828 0.843448 0.091256
H16   H     H_    0.845207 0.995919 0.742830 0.164115
H17   H     H_    0.319132 0.361069 0.883925 0.192621
H18   H     H_    0.394695 0.251493 0.885118 0.210690
H19   H     H_    0.549872 0.105270 0.984777 0.098810
H20   H     H_    0.469647 0.901450 0.989185 0.108013
H21   H     H_    0.429362 0.797236 0.773494 0.145758
H22   H     H_    0.495901 0.888757 0.280023 0.134423
H23   H     H_    0.399291 0.361084 0.130943 0.111286
H24   H     H_    0.624006 0.671029 0.253912 0.195235
H25   H     H_    0.722429 0.802455 0.131394 0.103219
N1    N     N_R   0.500860 0.501210 0.147910 -0.249445
N2    N     N_R   0.500890 0.501290 0.852040 -0.219640
N3    N     N_3   0.383481 0.341367 0.853125 -0.554256
O1    O     O_R   0.499990 0.319640 0.618810 -0.476828
O2    O     O_R   0.500000 0.319660 0.381240 -0.506877
O3    O     O_R   0.370250 0.499960 0.618800 -0.472751
O4    O     O_R   0.370260 0.499980 0.381230 -0.507534
O5    O     O_R   0.500000 0.680340 0.618760 -0.539316
O6    O     O_R   0.500010 0.680360 0.381190 -0.522301
O7    O     O_R   0.629740 0.500020 0.618770 -0.535149
O8    O     O_R   0.629750 0.500040 0.381200 -0.523523
O9    O     O_3   0.733619 0.821308 0.845521 -0.558320

loop_
_geom_bond_atom_site_label_1
_geom_bond_atom_site_label_2
_ccdc_geom_bond_type
C33   H13   S    
C27   C29   S    
C16   O5    A    
Cu1   Cu2   S    
C30   H3    S    
C19   C20   A    
C27   O8    A    
C7    C8    A    
C1    O1    A    
C12   C28   A    
C35   H16   S    
C18   C24   A    
C21   C22   A    
C36   C37   A    
Cu1   O7    S    
C38   C39   A    
C16   C17   S    
C10   C17   A    
C18   C19   A    
C7    H19   S    
C14   H10   S    
C8    C9    A    
C15   H22   S    
C19   H25   S    
C29   C30   A    
C9    C10   A    
C22   N2    A    
C4    O4    A    
Cu1   O1    S    
C23   H4    S    
C9    H21   S    
C13   C14   A    
C12   C32   A    
Cu2   N1    S    
C5    H7    S    
C25   N1    A    
C6    H12   S    
C33   H11   S    
Cu2   O4    S    
C1    O2    A    
C25   H23   S    
C39   C40   A    
C33   O9    S    
C2    H6    S    
C25   C26   A    
C23   C31   A    
C12   C40   A    
C37   C38   A    
Cu1   O5    S    
C21   H2    S    
C31   C32   A    
H18   N3    S    
C23   C34   A    
Cu2   O2    S    
C32   C37   A    
C4    O3    A    
Cu2   O8    S    
C26   N3    S    
C22   C24   A    
C1    C13   S    
C3    C4    S    
C3    C5    A    
C6    C11   A    
Cu1   N2    S    
C2    C36   A    
C15   C17   A    
C28   C29   A    
C20   O9    S    
C35   H14   S    
C16   O6    A    
C27   O7    A    
C6    C7    A    
C18   H24   S    
C40   H9    S    
C28   H1    S    
Cu2   O6    S    
C35   H15   S    
C2    C3    A    
C11   C13   A    
C30   C31   A    
C33   C35   S    
C34   C36   A    
C10   C11   A    
C24   N1    A    
H17   N3    S    
Cu1   O3    S    
C39   H8    S    
C20   C21   A    
C26   N2    A    
C14   C15   A    
C34   H5    S    
C5    C38   A    
C8    H20   S    
