data_mof_unit_43852.cif
_audit_creation_date              2013-03-05T16:46:56-0500
_audit_creation_method            fapswitch 2.2
_symmetry_space_group_name_H-M    P1
_symmetry_Int_Tables_number       1
_space_group_crystal_system       triclinic
_cell_length_a                    18.177326
_cell_length_b                    18.309261
_cell_length_c                    18.462702
_cell_angle_alpha                 120.072604
_cell_angle_beta                  89.898742
_cell_angle_gamma                 120.053371
_cell_volume                      4340.47246488

loop_
_atom_site_label
_atom_site_type_symbol
_atom_site_description
_atom_site_fract_x
_atom_site_fract_y
_atom_site_fract_z
_atom_type_partial_charge
Zn1   Zn    Zn3+2 0.456040 0.586770 0.543190 0.989484
Zn2   Zn    Zn3+2 0.456820 0.413240 0.543960 1.033155
Zn3   Zn    Zn3+2 0.631110 0.586750 0.543190 1.047670
Zn4   Zn    Zn3+2 0.456040 0.413240 0.369660 1.021999
O1    O     O_3   0.500000 0.500000 0.500000 -0.504798
O2    O     O_R   0.383400 0.268380 0.323710 -0.634697
O3    O     O_R   0.555060 0.731630 0.615290 -0.654806
O4    O     O_R   0.383950 0.439280 0.616600 -0.643128
O5    O     O_R   0.677590 0.560710 0.444390 -0.554748
O6    O     O_R   0.556370 0.439260 0.616600 -0.641995
O7    O     O_R   0.382640 0.439290 0.322940 -0.646178
O8    O     O_R   0.678360 0.560700 0.616060 -0.615957
O9    O     O_R   0.382640 0.560750 0.444390 -0.638520
O10   O     O_R   0.383400 0.560740 0.616060 -0.634751
O11   O     O_R   0.555060 0.439270 0.322940 -0.659757
O12   O     O_R   0.383950 0.268380 0.445700 -0.642503
O13   O     O_R   0.677590 0.731610 0.615290 -0.646067
C1    C     C_R   0.359370 0.220123 0.361134 0.869392
C2    C     C_R   0.641041 0.780744 0.640268 0.764240
C3    C     C_R   0.358304 0.499581 0.639677 0.835020
C4    C     C_R   0.641024 0.499405 0.359812 0.818095
C5    C     C_R   0.642510 0.501800 0.641397 0.860808
C6    C     C_R   0.357324 0.499175 0.359325 0.863935
C7    C     C_3   0.204717 0.377186 0.235065 0.237294
C8    C     C_3   0.150600 0.376364 0.166597 0.173265
H1    H     H_    0.166389 0.345081 0.104032 0.122916
H2    H     H_    0.242548 0.556139 0.408239 0.231945
H3    H     H_    0.130125 0.515487 0.305318 0.267204
C9    C     C_3   0.267490 0.566962 0.357271 -0.332484
C10   C     C_3   0.343781 0.529619 0.244980 -0.482302
C11   C     C_3   0.293681 0.491916 0.300296 -0.044539
H4    H     H_    0.409688 0.606080 0.289226 0.194005
H5    H     H_    0.358835 0.475073 0.197456 0.231071
C12   C     C_3   0.189420 0.490511 0.198876 -0.082345
C13   C     C_3   0.196869 0.554230 0.297584 -0.298137
C14   C     C_3   0.286376 0.539544 0.193756 -0.444053
H6    H     H_    0.284409 0.501370 0.123539 0.250221
H7    H     H_    0.318965 0.622704 0.222341 0.210651
H8    H     H_    0.328630 0.648069 0.394722 0.176026
H9    H     H_    0.217743 0.632770 0.320198 0.223477
C15   C     C_3   0.699924 0.939717 0.645517 -0.440209
H10   H     H_    0.629768 0.906491 0.610953 0.185389
H11   H     H_    0.729402 0.914301 0.592898 0.179006
C16   C     C_3   0.753897 0.059502 0.707683 -0.211663
H12   H     H_    0.705118 0.079002 0.708741 0.221705
H13   H     H_    0.590469 0.907344 0.745219 0.186360
H14   H     H_    0.676965 0.080999 0.836599 0.167799
C17   C     C_3   0.660077 0.934657 0.774441 -0.410373
C18   C     C_3   0.797050 0.940715 0.743253 -0.398838
C19   C     C_3   0.698569 0.896590 0.699623 0.096243
H15   H     H_    0.798157 0.913991 0.785443 0.197965
H16   H     H_    0.825883 0.912075 0.691302 0.186728
C20   C     C_3   0.798709 0.101570 0.804703 -0.072554
C21   C     C_3   0.719635 0.054419 0.837906 0.273917
C22   C     C_3   0.856379 0.059862 0.800383 -0.328290
H17   H     H_    0.908561 0.086490 0.771105 0.175073
H18   H     H_    0.893673 0.091398 0.867735 0.255511
H19   H     H_    0.654427 0.899342 0.810564 0.210696
C23   C     C_3   0.640238 0.413268 0.203896 -0.456780
H20   H     H_    0.589319 0.423069 0.184982 0.221615
H21   H     H_    0.602577 0.335911 0.191966 0.203782
C24   C     C_3   0.698365 0.416005 0.143836 -0.357693
H22   H     H_    0.684064 0.338383 0.098021 0.260929
H23   H     H_    0.678867 0.434081 0.101231 0.192477
H24   H     H_    0.700789 0.612863 0.291419 0.180348
C25   C     C_3   0.751146 0.604239 0.313702 -0.417900
C26   C     C_3   0.766011 0.476674 0.325061 0.167750
C27   C     C_3   0.699739 0.499857 0.303534 -0.011368
H25   H     H_    0.722849 0.396709 0.307378 0.122478
C28   C     C_3   0.799922 0.499582 0.200339 -0.059140
C29   C     C_3   0.815816 0.607750 0.258716 -0.235501
C30   C     C_3   0.827298 0.480872 0.266635 0.132394
H26   H     H_    0.897984 0.548222 0.309606 0.154923
H27   H     H_    0.789434 0.671104 0.383999 0.212627
H28   H     H_    0.886216 0.666386 0.305882 0.149100
H29   H     H_    0.393205 0.238839 0.695826 0.158830
C31   C     C_R   0.423022 0.181170 0.574584 -0.141381
H30   H     H_    0.488865 0.208277 0.608230 0.214203
C32   C     C_R   0.393093 0.130190 0.482371 0.482742
C33   C     C_R   0.307614 0.098717 0.440257 -0.063992
C34   C     C_R   0.253098 0.116856 0.491666 -0.004568
C35   C     C_R   0.284235 0.166841 0.583483 -0.142062
H31   H     H_    0.243214 0.181773 0.623458 0.144079
C36   C     C_R   0.369000 0.199176 0.624692 -0.184180
C37   C     C_R   0.220953 0.943810 0.287580 -0.142751
H32   H     H_    0.201260 0.901030 0.316850 0.181854
C38   C     C_R   0.193423 0.892267 0.195479 -0.053841
C39   C     C_R   0.220224 0.949293 0.158158 -0.008902
C40   C     C_R   0.273694 0.056157 0.214283 -0.215105
H33   H     H_    0.293358 0.099085 0.185146 0.186593
C41   C     C_R   0.302645 0.107657 0.306350 -0.036884
C42   C     C_R   0.276616 0.050613 0.343533 0.067944
C43   C     C_R   0.245948 0.872450 0.011098 0.044741
C44   C     C_R   0.219633 0.826977 0.919662 -0.132498
H34   H     H_    0.257979 0.804003 0.880399 0.138270
C45   C     C_R   0.143609 0.810895 0.878201 -0.054742
H35   H     H_    0.123721 0.775887 0.807639 0.163777
C46   C     C_R   0.093427 0.840171 0.927705 -0.120350
H36   H     H_    0.034670 0.827769 0.895374 0.140751
C47   C     C_R   0.118950 0.885408 0.018869 -0.117724
H37   H     H_    0.079307 0.907514 0.056446 0.159606
C48   C     C_R   0.194973 0.901553 0.061304 0.086984
H38   H     H_    0.030633 0.867085 0.689797 0.175475
C49   C     C_R   0.981849 0.718924 0.662619 -0.128319
H39   H     H_    0.033151 0.715394 0.634285 0.206691
C50   C     C_R   0.918096 0.638351 0.668238 0.471783
C51   C     C_R   0.851944 0.645527 0.706893 0.007259
C52   C     C_R   0.853065 0.734045 0.739433 -0.143875
H40   H     H_    0.806380 0.743632 0.773038 0.148084
C53   C     C_R   0.916540 0.812717 0.732299 -0.111027
H41   H     H_    0.917489 0.880961 0.758485 0.140463
C54   C     C_R   0.980889 0.805321 0.694245 -0.125728
C55   C     C_R   0.843467 0.575819 0.791124 -0.162694
H42   H     H_    0.916337 0.627365 0.815018 0.191637
C56   C     C_R   0.799876 0.510845 0.817937 0.003183
C57   C     C_R   0.705644 0.455882 0.797726 0.159240
C58   C     C_R   0.656785 0.454781 0.739460 -0.095034
H43   H     H_    0.584102 0.410448 0.722967 0.168045
C59   C     C_R   0.700054 0.510479 0.703840 -0.051228
C60   C     C_R   0.795819 0.574673 0.732037 0.037048
C61   C     C_R   0.616534 0.297056 0.798566 0.307803
C62   C     C_R   0.566778 0.250664 0.840662 0.332351
C63   C     C_R   0.556938 0.310197 0.919961 -0.342908
H44   H     H_    0.518665 0.276065 0.952403 0.245355
C64   C     C_R   0.592928 0.413227 0.957574 -0.233358
H45   H     H_    0.581559 0.455414 0.017699 0.225539
C65   C     C_R   0.640736 0.460643 0.917558 0.453634
C66   C     C_R   0.655362 0.403850 0.839314 -0.247247
C67   C     C_R   0.334572 0.769687 0.683345 -0.246877
H46   H     H_    0.386551 0.851248 0.715474 0.226377
C68   C     C_R   0.338320 0.718788 0.718592 -0.033402
C69   C     C_R   0.269995 0.612860 0.676922 0.076049
C70   C     C_R   0.199206 0.559725 0.600541 -0.152940
H47   H     H_    0.145484 0.478817 0.568701 0.192220
C71   C     C_R   0.195381 0.611158 0.566516 -0.161675
H48   H     H_    0.139083 0.569124 0.508686 0.235909
C72   C     C_R   0.262773 0.716289 0.607839 0.368495
C73   C     C_R   0.213648 0.557796 0.772669 -0.247133
H49   H     H_    0.187784 0.604359 0.790231 0.182892
C74   C     C_R   0.192058 0.495019 0.802304 -0.036726
C75   C     C_R   0.222110 0.430096 0.774478 0.107091
C76   C     C_R   0.277949 0.435591 0.723279 -0.163381
H50   H     H_    0.301397 0.386494 0.703360 0.173714
C77   C     C_R   0.300247 0.499194 0.694395 -0.069497
C78   C     C_R   0.264690 0.558207 0.716784 0.014209
C79   C     C_R   0.245139 0.352403 0.847276 0.329740
C80   C     C_R   0.211628 0.262596 0.846175 0.338678
C81   C     C_R   0.124406 0.173563 0.789673 -0.249608
H51   H     H_    0.097442 0.104892 0.788254 0.195542
C82   C     C_R   0.071290 0.170332 0.732618 -0.213689
H52   H     H_    0.005451 0.099973 0.687358 0.165970
C83   C     C_R   0.103578 0.256245 0.731629 -0.172624
H53   H     H_    0.062081 0.251287 0.684999 0.171081
C84   C     C_R   0.189638 0.347195 0.788015 -0.059203
Zn5   Zn    Zn3+2 0.041710 0.413240 0.959030 1.064876
Zn6   Zn    Zn3+2 0.866640 0.413270 0.959030 1.083192
Zn7   Zn    Zn3+2 0.040930 0.586780 0.958260 1.000766
Zn8   Zn    Zn3+2 0.041710 0.586770 0.132560 1.046371
O14   O     O_3   0.997750 0.500010 0.002220 -0.514965
O15   O     O_R   0.942690 0.560750 0.179280 -0.639761
O16   O     O_R   0.114340 0.439270 0.886160 -0.640309
O17   O     O_R   0.820160 0.268410 0.886930 -0.597388
O18   O     O_R   0.113800 0.731630 0.056520 -0.645972
O19   O     O_R   0.819390 0.439310 0.886160 -0.634015
O20   O     O_R   0.115110 0.560720 0.179280 -0.627796
O21   O     O_R   0.941380 0.560750 0.885620 -0.635668
O22   O     O_R   0.115110 0.439270 0.057830 -0.614830
O23   O     O_R   0.942690 0.268390 0.886930 -0.622452
O24   O     O_R   0.114340 0.731630 0.178520 -0.648153
O25   O     O_R   0.820160 0.439310 0.057830 -0.631885
O26   O     O_R   0.113800 0.560730 0.885620 -0.642496
C85   C     C_R   0.857012 0.500176 0.142499 0.881445
C86   C     C_R   0.137539 0.498455 0.860613 0.817903
C87   C     C_R   0.856592 0.218779 0.863200 0.880728
C88   C     C_R   0.137884 0.779865 0.140996 0.795534
C89   C     C_R   0.855778 0.503439 0.865893 0.866117
C90   C     C_R   0.136339 0.496468 0.142515 0.897982
S1    S     S_3+6 0.143189 0.332620 0.299217 0.046138
O27   O     O_2   0.206110 0.348640 0.366967 -0.355264
O28   O     O_2   0.102679 0.389601 0.347105 -0.274386
O29   O     O_3   0.060776 0.205288 0.232717 -0.474759
H54   H     H_    0.030068 0.188759 0.272080 0.392354
C91   C     C_1   0.819490 0.107008 0.671045 0.230611
N1    N     N_1   0.870716 0.144283 0.642315 -0.194976
C92   C     C_1   0.226932 0.302502 0.181981 0.272617
N2    N     N_1   0.243905 0.243922 0.140405 -0.107650
S2    S     S_3+6 0.752863 0.095795 0.950460 0.066970
O30   O     O_2   0.805477 0.057710 0.961770 -0.287327
O31   O     O_2   0.808502 0.211347 0.010666 -0.185757
O32   O     O_3   0.659260 0.047837 0.976694 -0.509703
H55   H     H_    0.679488 0.056534 0.031947 0.403737
C93   C     C_1   0.806716 0.644462 0.206328 0.171871
N3    N     N_1   0.800331 0.673878 0.165634 -0.093693
S3    S     S_3+6 0.833925 0.554902 0.440324 0.054642
O33   O     O_2   0.779199 0.508908 0.485515 -0.223684
O34   O     O_2   0.915760 0.553796 0.446044 -0.225009
O35   O     O_3   0.868274 0.678372 0.494293 -0.564660
H56   H     H_    0.921542 0.711700 0.478460 0.345865
S4    S     S_3+6 0.831636 0.370367 0.217227 0.075141
O36   O     O_2   0.901809 0.385341 0.172690 -0.209176
O37   O     O_2   0.858528 0.362177 0.288369 -0.204587
O38   O     O_3   0.731213 0.260339 0.143142 -0.519759
H57   H     H_    0.695893 0.240067 0.178550 0.355587
S5    S     S_3+6 0.465402 0.111266 0.422230 0.052700
O39   O     O_2   0.509453 0.191443 0.403185 -0.317105
O40   O     O_2   0.537105 0.121893 0.475246 -0.208834
O41   O     O_3   0.406353 0.992862 0.325862 -0.562855
H58   H     H_    0.447431 0.994878 0.290460 0.395254
S6    S     S_3+6 0.028955 0.283817 0.124478 0.116895
O42   O     O_2   0.986703 0.283089 0.054267 -0.254736
O43   O     O_2   0.007784 0.177759 0.081819 -0.237868
O44   O     O_3   0.982456 0.308639 0.204530 -0.406010
H59   H     H_    0.923167 0.242435 0.180423 0.425675
C94   C     C_1   0.165943 0.086952 0.451688 0.164870
N4    N     N_1   0.096116 0.063018 0.419621 -0.172586
C95   C     C_1   0.324532 0.887664 0.052008 0.181969
N5    N     N_1   0.387504 0.899827 0.084838 -0.149234
S7    S     S_3+6 0.925309 0.532152 0.628749 0.052981
O45   O     O_2   0.832886 0.434235 0.591366 -0.206655
O46   O     O_2   0.968598 0.519460 0.557950 -0.230585
O47   O     O_3   0.989277 0.554425 0.712895 -0.617278
H60   H     H_    0.991358 0.493461 0.686209 0.385425
S8    S     S_3+6 0.636026 0.225668 0.700236 0.062479
O48   O     O_2   0.663857 0.274888 0.651057 -0.258372
O49   O     O_2   0.711158 0.222469 0.728182 -0.318276
O50   O     O_3   0.543496 0.104341 0.629338 -0.446591
H61   H     H_    0.565797 0.064776 0.590089 0.399093
S9    S     S_3+6 0.507993 0.117137 0.794566 0.088180
O51   O     O_2   0.564070 0.078101 0.757964 -0.273394
O52   O     O_2   0.482226 0.096866 0.863258 -0.293971
O53   O     O_3   0.413718 0.052456 0.712260 -0.401959
H62   H     H_    0.381825 0.084516 0.740000 0.352421
S10   S     S_3+6 0.678311 0.590149 0.965011 0.039972
O54   O     O_2   0.653425 0.631057 0.047053 -0.265931
O55   O     O_2   0.778946 0.656822 0.988600 -0.339795
O56   O     O_3   0.629831 0.594572 0.891192 -0.533089
H63   H     H_    0.662722 0.669059 0.916555 0.388055
S11   S     S_3+6 0.255915 0.782534 0.567469 0.057772
O57   O     O_2   0.182627 0.708182 0.479020 -0.305861
O58   O     O_2   0.235079 0.855070 0.632697 -0.232192
O59   O     O_3   0.355059 0.851648 0.557554 -0.441563
H64   H     H_    0.378247 0.808444 0.537153 0.320162
C96   C     C_1   0.411570 0.776437 0.797921 0.205802
N6    N     N_1   0.470275 0.822563 0.861527 -0.124706
S12   S     S_3+6 0.355419 0.468316 0.917701 0.066410
O60   O     O_2   0.421349 0.459022 0.871098 -0.263267
O61   O     O_2   0.360338 0.560911 0.936616 -0.298609
O62   O     O_3   0.385284 0.488613 0.015515 -0.488320
H65   H     H_    0.449601 0.548178 0.045275 0.401490
S13   S     S_3+6 0.275810 0.254270 0.910204 0.067059
O63   O     O_2   0.278207 0.310807 0.004552 -0.260883
O64   O     O_2   0.233959 0.143345 0.875315 -0.305820
O65   O     O_3   0.381595 0.306847 0.907495 -0.478684
H66   H     H_    0.375100 0.263992 0.844301 0.336609

loop_
_geom_bond_atom_site_label_1
_geom_bond_atom_site_label_2
_geom_bond_distance
_ccdc_geom_bond_type
S3    O34   1.502423 D    
C38   C39   1.418652 A    
C80   S13   1.773539 S    
C33   C42   1.487432 S    
O32   H55   0.990502 S    
H2    C9    1.107103 S    
O20   C90   1.283396 A    
C15   H10   1.113708 S    
C15   C19   1.546904 S    
C25   C27   1.553458 S    
C80   C81   1.404332 A    
C22   H17   1.108477 S    
O18   C88   1.280187 A    
H29   C36   1.082562 S    
C49   C50   1.403798 A    
C34   C35   1.400475 A    
S7    O45   1.503379 D    
S8    O50   1.681764 S    
C63   H44   1.082363 S    
C31   H30   1.078584 S    
O56   H63   0.990431 S    
O23   C87   1.282983 A    
O26   C86   1.289950 A    
S11   O59   1.682086 S    
O9    C6    1.287539 A    
C43   C44   1.402579 A    
C64   H45   1.082289 S    
Zn1   O1    1.948845 S    
C69   C78   1.481011 S    
C14   H6    1.112419 S    
C81   C82   1.388979 A    
O59   H64   0.989994 S    
C58   C59   1.399284 A    
C10   C11   1.556438 S    
C75   C84   1.482247 S    
C63   C64   1.386149 A    
S3    O35   1.680518 S    
C50   C51   1.426109 A    
C73   C78   1.386696 A    
S13   O64   1.503835 D    
C96   N6    1.157086 T    
C25   H27   1.106804 S    
O8    C5    1.267699 A    
S6    O44   1.677064 S    
C52   H40   1.083545 S    
C24   C28   1.554118 S    
S13   O63   1.501907 D    
C12   C13   1.553215 S    
Zn6   O25   1.948066 S    
C72   S11   1.760665 S    
C18   C19   1.552560 S    
C28   C85   1.487894 S    
C53   H41   1.080882 S    
C49   H39   1.082681 S    
S2    O32   1.681507 S    
C24   H23   1.110528 S    
Zn3   O8    1.957722 S    
O13   C2    1.282614 A    
C55   H42   1.082843 S    
C16   C20   1.568242 S    
C76   H50   1.084856 S    
S8    O48   1.501406 D    
H3    C13   1.111039 S    
Zn5   O22   1.958345 S    
C69   C70   1.403021 A    
C18   H15   1.112863 S    
C45   C46   1.396610 A    
S4    O38   1.680884 S    
C51   C52   1.406821 A    
C7    C8    1.592597 S    
O19   C89   1.271881 A    
C28   C29   1.567227 S    
C29   C93   1.475866 S    
C40   C41   1.398295 A    
C26   S3    1.813200 S    
Zn2   O12   1.935902 S    
S10   O54   1.503297 D    
Zn7   O18   1.935800 S    
C12   C14   1.555847 S    
C8    C12   1.580213 S    
C44   C45   1.397354 A    
S13   O65   1.679453 S    
C17   C19   1.550351 S    
S3    O33   1.502340 D    
Zn6   O17   1.934305 S    
S4    O36   1.500106 D    
Zn7   O14   1.959531 S    
C74   C86   1.461431 S    
S12   O60   1.503119 D    
C43   C95   1.443240 S    
Zn8   O15   1.938602 S    
C15   H11   1.114577 S    
O35   H56   0.990625 S    
S9    O52   1.503693 D    
S9    O51   1.499924 D    
S10   O56   1.681340 S    
C37   C42   1.382836 A    
C20   C87   1.516059 S    
S1    O27   1.503374 D    
H13   C17   1.113721 S    
C20   C22   1.558500 S    
O24   C88   1.294841 A    
C5    C59   1.450044 S    
O2    C1    1.293471 A    
S11   O58   1.502284 D    
C23   H21   1.113507 S    
C65   S10   1.776097 S    
O38   H57   0.990106 S    
C37   C38   1.397944 A    
Zn5   O14   1.948845 S    
O41   H58   0.990428 S    
C10   H4    1.113503 S    
O10   C3    1.276358 A    
C71   H48   1.082142 S    
C74   C75   1.418716 A    
C61   C66   1.425741 A    
Zn4   O2    1.933642 S    
C40   H33   1.084709 S    
C41   C42   1.417202 A    
C49   C54   1.394786 A    
C94   N4    1.157198 T    
C33   C34   1.415471 A    
C31   C36   1.394360 A    
C8    H1    1.115859 S    
C37   H32   1.084606 S    
Zn5   O16   1.945831 S    
O6    C5    1.286013 A    
C26   C27   1.572332 S    
C55   C56   1.390257 A    
C7    C92   1.483901 S    
C26   H25   1.112234 S    
C6    C11   1.499692 S    
O29   H54   0.990518 S    
C17   H19   1.113027 S    
C17   C21   1.550801 S    
C91   N1    1.157027 T    
C23   H20   1.114069 S    
C56   C89   1.447892 S    
Zn3   O5    1.948066 S    
C23   C27   1.560138 S    
C28   C30   1.567239 S    
C55   C60   1.379431 A    
O16   C86   1.276083 A    
C3    C77   1.459554 S    
S7    O46   1.502283 D    
C34   C94   1.443860 S    
C79   S12   1.787633 S    
S5    O41   1.681639 S    
O11   C4    1.283252 A    
Zn5   O23   1.932461 S    
C18   H16   1.113124 S    
C62   S9    1.773266 S    
C45   H35   1.082320 S    
C9    H8    1.113147 S    
C24   H22   1.108517 S    
C47   C48   1.404772 A    
S6    O42   1.498786 D    
O15   C85   1.278894 A    
C31   C32   1.402775 A    
S1    O28   1.501718 D    
O50   H61   0.990573 S    
O4    C3    1.288875 A    
S5    O39   1.502904 D    
Zn4   O7    1.950753 S    
C8    S6    1.816029 S    
S10   O55   1.503149 D    
C16   C91   1.477770 S    
C61   C62   1.425902 A    
C73   C74   1.397194 A    
C25   C29   1.549869 S    
H14   C21   1.108575 S    
C50   S7    1.778708 S    
C83   C84   1.401107 A    
C32   S5    1.773677 S    
C35   C36   1.393718 A    
C21   S2    1.795940 S    
S12   O61   1.503023 D    
C4    C27   1.488166 S    
C7    S1    1.835567 S    
Zn8   O14   1.963968 S    
C79   C84   1.423711 A    
C15   C16   1.554336 S    
C82   C83   1.386791 A    
Zn2   O1    1.959383 S    
Zn1   O9    1.958447 S    
C1    C41   1.454686 S    
C68   C69   1.411117 A    
Zn2   O6    1.950603 S    
C51   C60   1.488462 S    
C26   C30   1.550363 S    
C14   H7    1.113594 S    
O62   H65   0.991349 S    
S7    O47   1.681779 S    
S4    O37   1.503241 D    
C79   C80   1.427773 A    
C71   C72   1.399140 A    
S11   O57   1.502641 D    
C23   C24   1.532000 S    
C10   H5    1.112127 S    
O22   C90   1.283195 A    
Zn1   O3    1.932564 S    
C43   C48   1.413587 A    
Zn6   O14   1.945345 S    
Zn2   O4    1.940594 S    
C16   H12   1.106374 S    
S5    O40   1.501450 D    
C30   H26   1.112256 S    
Zn3   O1    1.945344 S    
Zn7   O21   1.950500 S    
O47   H60   0.990541 S    
C39   C48   1.485574 S    
C59   C60   1.422459 A    
S8    O49   1.499236 D    
Zn8   O24   1.933598 S    
C20   C21   1.572084 S    
O17   C87   1.288024 A    
Zn1   O10   1.945932 S    
C38   C88   1.454066 S    
C9    C13   1.537675 S    
O21   C89   1.280048 A    
C56   C57   1.409026 A    
C10   C14   1.543332 S    
C77   C78   1.416678 A    
C93   N3    1.156059 T    
C61   S8    1.792555 S    
Zn4   O11   1.938605 S    
C22   H18   1.109322 S    
C13   H9    1.112876 S    
O65   H66   0.990503 S    
C7    C11   1.595986 S    
S2    O30   1.503041 D    
C9    C11   1.557573 S    
C18   C22   1.541460 S    
C58   H43   1.084734 S    
Zn7   O26   1.940639 S    
C30   S4    1.800501 S    
C29   H28   1.113301 S    
C2    C19   1.498761 S    
O5    C4    1.280584 A    
C92   N2    1.157714 T    
C70   H47   1.083503 S    
O25   C85   1.282336 A    
C67   H46   1.084243 S    
O3    C2    1.281890 A    
O7    C6    1.277233 A    
C47   H37   1.083207 S    
S6    O43   1.503005 D    
C52   C53   1.395852 A    
C57   C58   1.382077 A    
Zn3   O13   1.934305 S    
C76   C77   1.397718 A    
C81   H51   1.082378 S    
H24   C25   1.115020 S    
C44   H34   1.083769 S    
C46   C47   1.398198 A    
C53   C54   1.393040 A    
S2    O31   1.496141 D    
S1    O29   1.681225 S    
C73   H49   1.084831 S    
C32   C33   1.417507 A    
C95   N5    1.157187 T    
Zn4   O1    1.963968 S    
C67   C72   1.401795 A    
C39   C40   1.383328 A    
Zn6   O19   1.957577 S    
O12   C1    1.281610 A    
C46   H36   1.082649 S    
C57   C66   1.480188 S    
S12   O62   1.680146 S    
O53   H62   0.990686 S    
C64   C65   1.392687 A    
C70   C71   1.394582 A    
C82   H52   1.081913 S    
H38   C54   1.082503 S    
C12   C90   1.499440 S    
C68   C96   1.442915 S    
C83   H53   1.083415 S    
C35   H31   1.084192 S    
C62   C63   1.399501 A    
C75   C76   1.386906 A    
S9    O53   1.679644 S    
C65   C66   1.417363 A    
Zn8   O20   1.950749 S    
O44   H59   0.990669 S    
C67   C68   1.402894 A    
