data_mof_unit_66745.cif
_audit_creation_date              2012-12-11T14:19:18-0500
_audit_creation_method            fapswitch 2.2
_symmetry_space_group_name_H-M    P1
_symmetry_Int_Tables_number       1
_space_group_crystal_system       triclinic
_cell_length_a                    8.257803
_cell_length_b                    12.70152
_cell_length_c                    14.993619
_cell_angle_alpha                 95.152773
_cell_angle_beta                  98.80409
_cell_angle_gamma                 98.013358
_cell_volume                      1528.9669345

loop_
_atom_site_label
_atom_site_type_symbol
_atom_type_description
_atom_site_fract_x
_atom_site_fract_y
_atom_site_fract_z
_atom_type_partial_charge
Ba1   Ba    Ba6+2 0.153570 0.551840 0.456200 1.680230
Ba2   Ba    Ba6+2 0.656590 0.448150 0.543720 1.646224
C1    C     C_3   0.369350 0.822260 0.113886 -0.349572
C2    C     C_3   0.401949 0.789689 0.209382 0.401570
C3    C     C_3   0.553628 0.786189 0.663359 0.331014
C4    C     C_3   0.532994 0.901362 0.688033 0.126279
C5    C     C_3   0.921600 0.164540 0.741924 0.290608
C6    C     C_3   0.004978 0.068308 0.769469 -0.220922
C7    C     C_3   0.504820 0.208336 0.789955 0.356471
C8    C     C_3   0.589813 0.162689 0.872468 -0.271589
C9    C     C_R   0.084844 0.182097 0.524220 -0.281172
C10   C     C_R   0.728212 0.814575 0.465565 -0.270010
C11   C     C_R   0.694286 0.993450 0.429986 -0.064571
C12   C     C_3   0.849851 0.817594 0.160464 0.304476
C13   C     C_R   0.629180 0.885345 0.428157 -0.034714
C14   C     C_R   0.889934 0.849988 0.511073 0.076196
C15   C     C_R   0.956384 0.961893 0.515596 -0.063693
C16   C     C_R   0.856626 0.034778 0.474464 -0.027136
C17   C     C_R   0.922176 0.146958 0.481075 0.083082
C18   C     C_R   0.184834 0.111352 0.559379 0.020095
C19   C     C_R   0.119512 0.003472 0.558972 -0.083371
C20   C     C_R   0.230171 0.486492 0.769308 -0.292928
C21   C     C_R   0.131031 0.448231 0.829488 0.040163
C22   C     C_R   0.192461 0.461212 0.923008 -0.114341
C23   C     C_3   0.905339 0.892529 0.092864 -0.195485
C24   C     C_R   0.354890 0.516165 0.957780 0.009807
C25   C     C_R   0.447832 0.561330 0.894386 -0.108413
C26   C     C_R   0.387964 0.542614 0.801338 0.043406
C27   C     C_R   0.596766 0.569346 0.088373 -0.134875
C28   C     C_R   0.664766 0.582356 0.180334 -0.027772
C29   C     C_R   0.410635 0.489389 0.214789 0.088392
C30   C     C_R   0.338880 0.480814 0.122665 -0.083903
C31   C     C_R   0.429070 0.523861 0.057402 0.010423
C32   C     C_R   0.570069 0.545600 0.243762 -0.290299
C33   C     C_3   0.729750 0.322146 0.272488 0.362402
C34   C     C_3   0.708268 0.299635 0.169206 0.080360
C35   C     C_3   0.062868 0.692911 0.734502 0.352502
C36   C     C_3   0.039130 0.717303 0.832665 -0.358232
C37   C     C_3   0.219541 0.207310 0.316505 0.559137
C38   C     C_3   0.340524 0.128293 0.331146 -0.261989
H1    H     H_    0.332684 0.707962 0.208607 0.062887
H2    H     H_    0.690867 0.373355 0.137396 0.014092
H3    H     H_    0.821096 0.272223 0.149520 0.127419
H4    H     H_    0.191843 0.679979 0.733085 0.007852
H5    H     H_    0.975473 0.619456 0.704826 0.051836
H6    H     H_    0.132678 0.785532 0.867609 0.152431
H7    H     H_    0.052778 0.646947 0.870089 0.056063
H8    H     H_    0.913116 0.737743 0.834540 0.132356
H9    H     H_    0.207017 0.251043 0.381821 -0.051314
H10   H     H_    0.234008 0.816138 0.090307 0.136007
H11   H     H_    0.309554 0.058393 0.278312 0.175413
H12   H     H_    0.341527 0.099709 0.398857 0.076590
H13   H     H_    0.464356 0.166005 0.323112 0.153483
H14   H     H_    0.537190 0.789099 0.228602 -0.119527
H15   H     H_    0.420243 0.768567 0.066416 0.063083
H16   H     H_    0.668024 0.783925 0.633755 -0.092214
H17   H     H_    0.445206 0.748669 0.612292 0.054913
H18   H     H_    0.655007 0.949440 0.717132 0.043049
H19   H     H_    0.481565 0.934625 0.626004 0.055042
H20   H     H_    0.429104 0.905998 0.113211 0.151967
H21   H     H_    0.791268 0.135692 0.709068 0.056891
H22   H     H_    0.990332 0.198501 0.690447 -0.018690
H23   H     H_    0.961072 0.999812 0.715792 0.088696
H24   H     H_    0.140235 0.088267 0.771819 0.159279
H25   H     H_    0.600241 0.260200 0.763383 0.122699
H26   H     H_    0.497376 0.116462 0.906428 0.176863
H27   H     H_    0.664835 0.228108 0.922247 0.118979
H28   H     H_    0.832474 0.865137 0.223308 0.063647
H29   H     H_    0.671842 0.107797 0.850578 0.136591
H30   H     H_    0.616173 0.044373 0.397241 0.094739
H31   H     H_    0.197616 0.953402 0.593238 0.138021
H32   H     H_    0.135734 0.266122 0.529609 0.068064
H33   H     H_    0.675571 0.731209 0.463039 0.064628
H34   H     H_    0.680212 0.593622 0.042946 0.068099
H35   H     H_    0.112216 0.425823 0.966106 0.083728
H36   H     H_    0.214963 0.437306 0.103802 0.095635
H37   H     H_    0.567091 0.610737 0.914329 0.065938
H38   H     H_    0.625782 0.552144 0.314595 0.068457
H39   H     H_    0.729614 0.770642 0.127119 -0.038154
H40   H     H_    0.183442 0.472965 0.697063 0.062973
H41   H     H_    0.022590 0.945286 0.124380 0.185483
H42   H     H_    0.930071 0.844509 0.032053 0.099169
H43   H     H_    0.617005 0.347874 0.292250 -0.030082
H44   H     H_    0.836278 0.387338 0.294535 0.035355
O1    O     O_2   0.168170 0.764170 0.543850 -0.477027
O2    O     O_3   0.271191 0.274739 0.254060 -0.585919
O3    O     O_3   0.972893 0.753600 0.182645 -0.575369
O4    O     O_2   0.642110 0.235770 0.456130 -0.486278
O5    O     O_3   0.911620 0.370210 0.454030 -0.498111
O6    O     O_3   0.444310 0.304480 0.619110 -0.484713
O7    O     O_3   0.756876 0.228206 0.310618 -0.582556
O8    O     O_3   0.400800 0.556680 0.607590 -0.490806
O9    O     O_3   0.875770 0.359510 0.664420 -0.491345
O10   O     O_2   0.790567 0.417868 0.825090 -0.507560
O11   O     O_3   0.923411 0.240393 0.817277 -0.621829
O12   O     O_3   0.898670 0.629780 0.545890 -0.499377
O13   O     O_3   0.409490 0.443300 0.392340 -0.502091
O14   O     O_2   0.674250 0.555830 0.719690 -0.459454
O15   O     O_3   0.568024 0.736826 0.743106 -0.611844
O16   O     O_2   0.527190 0.115370 0.566298 -0.512371
O17   O     O_3   0.428230 0.123840 0.723732 -0.592787
O18   O     O_3   0.365980 0.695510 0.380810 -0.486504
O19   O     O_2   0.292037 0.884084 0.436036 -0.476833
O20   O     O_3   0.036163 0.781770 0.688865 -0.608784
O21   O     O_3   0.346927 0.862515 0.269644 -0.576248
O22   O     O_2   0.136040 0.444100 0.280280 -0.465256
O23   O     O_3   0.934510 0.640480 0.335500 -0.464541
O24   O     O_2   0.985381 0.550990 0.178241 -0.489809
P1    P     P_3+3 0.998660 0.747790 0.570900 0.994577
P2    P     P_3+3 0.306970 0.411860 0.294270 1.016996
P3    P     P_3+3 0.886255 0.633151 0.217532 0.960472
P4    P     P_3+3 0.811620 0.252200 0.429030 1.004970
P5    P     P_3+3 0.928155 0.369770 0.783168 0.921251
P6    P     P_3+3 0.410071 0.833715 0.380352 0.972344
P7    P     P_3+3 0.505586 0.599408 0.718958 0.963360
P8    P     P_3+3 0.398317 0.164928 0.614441 0.932508
Br1   Br    Br    0.517903 0.191248 0.121014 -0.628887
Br2   Br    Br    0.012868 0.121136 0.259371 -0.659199
Br3   Br    Br    0.386408 0.908846 0.777922 -0.632331
C39   C     C_3   0.772532 0.960382 0.062444 -0.413632
H45   H     H_    0.664719 0.909573 0.018037 0.144655
H46   H     H_    0.729888 0.999360 0.121997 0.205624
H47   H     H_    0.823886 0.023742 0.023715 0.160691
C40   C     C_3   0.975394 0.031380 0.860627 -0.344447
H48   H     H_    0.002041 0.099534 0.915200 0.170000
H49   H     H_    0.846868 0.989554 0.855686 0.124151
H50   H     H_    0.059874 0.973365 0.879770 0.154728
C41   C     C_3   0.377542 0.272994 0.820326 -0.343081
H51   H     H_    0.295241 0.291511 0.760352 0.069996
H52   H     H_    0.299582 0.229407 0.863470 0.126939
H53   H     H_    0.444694 0.347408 0.860986 0.099445

loop_
_geom_bond_atom_site_label_1
_geom_bond_atom_site_label_2
_ccdc_geom_bond_type
C41   H53   S    
C4    H18   S    
C3    H16   S    
C34   H2    S    
C33   C34   S    
O16   P8    D    
C41   H51   S    
C5    C6    S    
C8    H27   S    
O5    P4    S    
Ba2   P4    S    
C24   C25   A    
C35   C36   S    
C11   C16   A    
C19   H31   S    
O2    P2    S    
C22   C24   A    
C12   O3    S    
C16   C17   A    
O1    P1    D    
O15   P7    S    
O20   P1    S    
O3    P3    S    
C11   H30   S    
C27   C31   A    
Ba1   Ba2   S    
Ba2   O6    S    
C5    H21   S    
Ba1   P1    S    
C1    H15   S    
C1    H10   S    
C3    O15   S    
Ba2   O13   S    
C14   C15   A    
C21   C22   A    
Ba2   O4    S    
O6    P8    S    
C7    C8    S    
C36   H8    S    
C39   H47   S    
Ba1   O22   S    
C1    H20   S    
C20   C26   A    
C10   H33   S    
C23   H41   S    
O10   P5    D    
C39   H46   S    
C14   P1    S    
C8    H26   S    
Ba1   O1    S    
C9    C18   A    
C29   C32   A    
C7    C41   S    
C28   C32   A    
C10   C14   A    
O21   P6    S    
O19   P6    D    
Ba1   O13   S    
C37   C38   S    
C18   P8    S    
C33   H43   S    
C9    H32   S    
C6    C40   S    
O9    P5    S    
C27   H34   S    
C38   H12   S    
C15   C19   A    
O7    P4    S    
Ba2   O5    S    
C5    H22   S    
C27   C28   A    
O18   P6    S    
C26   P7    S    
Ba1   P2    S    
C21   P5    S    
C24   C31   S    
C29   C30   A    
C10   C13   A    
C9    C17   A    
C15   C16   A    
C13   P6    S    
C17   P4    S    
C12   H39   S    
Ba2   O8    S    
C34   Br1   S    
C36   H7    S    
O12   P1    S    
C6    H24   S    
C40   H50   S    
C37   H9    S    
Ba1   O23   S    
Ba1   O8    S    
C11   C13   A    
C23   H42   S    
C35   H5    S    
C1    C2    S    
C37   Br2   S    
C23   C39   S    
C4    Br3   S    
C39   H45   S    
C40   H49   S    
O22   P2    D    
Ba1   O5    S    
C2    H14   S    
O23   P3    S    
C4    H19   S    
Ba2   O9    S    
C25   H37   S    
C41   H52   S    
C30   H36   S    
C35   O20   S    
C33   H44   S    
C22   H35   S    
C38   H11   S    
C5    O11   S    
C2    O21   S    
O24   P3    D    
C3    H17   S    
C28   P3    S    
C30   C31   A    
C35   H4    S    
Ba2   O12   S    
C20   H40   S    
C32   H38   S    
O13   P2    S    
O14   P7    D    
C3    C4    S    
O11   P5    S    
Ba1   O12   S    
C29   P2    S    
C12   C23   S    
O8    P7    S    
C7    H25   S    
C36   H6    S    
C6    H23   S    
O4    P4    D    
C8    H29   S    
C18   C19   A    
Ba2   O14   S    
C7    O17   S    
C38   H13   S    
C2    H1    S    
C25   C26   A    
O17   P8    S    
C12   H28   S    
C20   C21   A    
C34   H3    S    
C37   O2    S    
Ba1   O18   S    
C40   H48   S    
C33   O7    S    
