data_mof_unit_54833.cif
_audit_creation_date              2013-03-05T16:19:34-0500
_audit_creation_method            fapswitch 2.2
_symmetry_space_group_name_H-M    P1
_symmetry_Int_Tables_number       1
_space_group_crystal_system       triclinic
_cell_length_a                    8.345209
_cell_length_b                    19.135672
_cell_length_c                    26.843024
_cell_angle_alpha                 99.605326
_cell_angle_beta                  92.900966
_cell_angle_gamma                 87.558174
_cell_volume                      4218.54157749

loop_
_atom_site_label
_atom_site_type_symbol
_atom_site_description
_atom_site_fract_x
_atom_site_fract_y
_atom_site_fract_z
_atom_type_partial_charge
P1    P     P_3+3 0.926760 0.336170 0.451740 0.473235
O1    O     O_2   0.103290 0.325410 0.465600 -0.379248
O2    O     O_3   0.857760 0.414170 0.470020 -0.397139
O3    O     O_3   0.374170 0.371120 0.556000 -0.357038
O4    O     O_2   0.288092 0.244327 0.521721 -0.416554
O5    O     O_3   0.914279 0.316017 0.385772 -0.524166
O6    O     O_3   0.357624 0.265873 0.618790 -0.514599
H1    H     H_    0.477048 0.349420 0.661598 0.107240
C1    C     C_3   0.452365 0.263811 0.704508 -0.063749
H2    H     H_    0.435642 0.205585 0.696589 0.106613
P2    P     P_3+3 0.399470 0.558680 0.614150 0.519190
P3    P     P_3+3 0.961942 0.411917 0.647751 0.505589
O7    O     O_2   0.227790 0.537410 0.620340 -0.386519
O8    O     O_3   0.969630 0.407570 0.582610 -0.391049
O9    O     O_2   0.079052 0.468407 0.674107 -0.358487
O10   O     O_3   0.385751 0.651165 0.630647 -0.521126
O11   O     O_3   0.043277 0.331186 0.661488 -0.442812
C2    C     C_3   0.977581 0.276436 0.625646 0.535157
H3    H     H_    0.036018 0.273265 0.589004 0.130260
H4    H     H_    0.846434 0.284918 0.619477 -0.038239
C3    C     C_3   0.004541 0.205755 0.644172 -0.898761
H5    H     H_    0.954065 0.162597 0.615637 0.197075
H6    H     H_    0.134620 0.193890 0.650137 0.289315
C4    C     C_3   0.859357 0.631354 0.639317 0.950421
H7    H     H_    0.879930 0.577697 0.616903 0.079136
C5    C     C_3   0.959401 0.635062 0.688935 -0.939139
H8    H     H_    0.936512 0.686690 0.713779 0.239897
H9    H     H_    0.927252 0.591806 0.709090 0.242803
H10   H     H_    0.089182 0.630208 0.681662 0.264060
Ba1   Ba    Ba6+2 0.160260 0.465850 0.521400 1.580745
C6    C     C_3   0.982088 0.369144 0.364894 0.389520
H11   H     H_    0.101202 0.382374 0.383162 0.100916
H12   H     H_    0.900449 0.416851 0.369302 0.087208
C7    C     C_3   0.003034 0.341655 0.308909 -0.830105
H13   H     H_    0.075783 0.291194 0.304274 0.283317
H14   H     H_    0.065777 0.380299 0.291117 0.203922
H15   H     H_    0.883840 0.332063 0.289174 0.273179
C8    C     C_3   0.332797 0.680984 0.588376 0.482854
H16   H     H_    0.212338 0.661969 0.575667 0.062316
H17   H     H_    0.416586 0.667179 0.557157 0.142754
C9    C     C_3   0.324004 0.761276 0.603153 -1.009739
H18   H     H_    0.234198 0.777062 0.632474 0.270894
H19   H     H_    0.288511 0.786268 0.569677 0.220967
H20   H     H_    0.443319 0.780713 0.618216 0.267209
P4    P     P_3+3 0.883550 0.663840 0.548300 0.469837
O12   O     O_2   0.707020 0.674640 0.534420 -0.358856
O13   O     O_3   0.952550 0.585840 0.530020 -0.407953
O14   O     O_3   0.436140 0.628890 0.444040 -0.374239
O15   O     O_3   0.903795 0.686059 0.614476 -0.618907
P5    P     P_3+3 0.831961 0.585167 0.351596 0.513525
O16   O     O_3   0.350480 0.462320 0.439870 -0.397101
O17   O     O_3   0.840680 0.592440 0.417430 -0.390468
O18   O     O_2   0.662393 0.560196 0.333240 -0.433479
O19   O     O_3   0.834777 0.671518 0.337079 -0.488594
Ba2   Ba    Ba6+2 0.649930 0.534160 0.478640 1.573840
P6    P     P_3+3 0.412494 0.282469 0.559939 0.444845
C10   C     C_3   0.478156 0.290538 0.655039 0.254187
H21   H     H_    0.598012 0.269416 0.642733 -0.028559
H22   H     H_    0.561572 0.273084 0.729635 0.127498
O20   O     O_3   0.459840 0.537690 0.560170 -0.402805
C11   C     C_3   0.481468 0.316725 0.395385 0.225008
H23   H     H_    0.600438 0.339624 0.406529 0.105484
H24   H     H_    0.407244 0.323035 0.429206 0.085189
C12   C     C_3   0.506746 0.237631 0.375826 -0.116182
H25   H     H_    0.555785 0.211412 0.407534 0.115796
H26   H     H_    0.389855 0.214088 0.362176 0.147676
P7    P     P_3+3 0.401170 0.441284 0.376569 0.469907
O21   O     O_2   0.582520 0.462630 0.379680 -0.354864
O22   O     O_3   0.401965 0.349306 0.357480 -0.531947
H27   H     H_    0.943923 0.207295 0.680246 0.264769
C13   C     C_3   0.809502 0.720887 0.381529 0.440136
H28   H     H_    0.706197 0.707111 0.401419 0.096000
H29   H     H_    0.913346 0.720449 0.408222 0.100087
C14   C     C_3   0.782707 0.796363 0.370162 -0.026563
H30   H     H_    0.673995 0.800636 0.345062 0.141327
H31   H     H_    0.761134 0.832630 0.406203 0.124038
P8    P     P_3+3 0.395285 0.718326 0.440670 0.419328
C15   C     C_3   0.389390 0.691339 0.341238 0.783839
O23   O     O_2   0.515611 0.757454 0.479975 -0.453643
O24   O     O_3   0.441151 0.742517 0.382406 -0.618454
H32   H     H_    0.430291 0.637450 0.347157 0.072646
H33   H     H_    0.432437 0.760110 0.286263 0.272314
C16   C     C_3   0.460464 0.704758 0.292238 -0.960318
H34   H     H_    0.410359 0.667555 0.259498 0.255172
H35   H     H_    0.591383 0.695429 0.292880 0.259663
C17   C     C_R   0.958233 0.800911 0.526661 -0.338164
H36   H     H_    0.886317 0.822299 0.558410 0.162545
C18   C     C_R   0.988953 0.726655 0.517009 0.289678
C19   C     C_R   0.122545 0.811996 0.457417 -0.271796
H37   H     H_    0.158898 0.837167 0.426876 0.201314
C20   C     C_R   0.193034 0.745456 0.461697 0.335847
C21   C     C_R   0.688281 0.189003 0.543466 -0.335983
H38   H     H_    0.654100 0.163955 0.574328 0.133465
C22   C     C_R   0.616553 0.255501 0.539193 0.253654
C23   C     C_R   0.848029 0.199113 0.472908 -0.275519
H39   H     H_    0.917475 0.177383 0.440662 0.171639
C24   C     C_R   0.817745 0.273309 0.482245 0.282545
C25   C     C_R   0.012890 0.845504 0.493497 0.044998
C26   C     C_R   0.113876 0.700239 0.486449 -0.441924
H40   H     H_    0.155569 0.645528 0.484186 0.162519
C27   C     C_R   0.796026 0.155061 0.506822 0.123812
C28   C     C_R   0.692777 0.299918 0.512805 -0.462929
H41   H     H_    0.649378 0.354229 0.513968 0.164661
C29   C     C_R   0.221352 0.959867 0.471033 -0.294149
C30   C     C_R   0.311429 0.005575 0.449865 -0.113022
C31   C     C_R   0.264355 0.076110 0.454524 0.595149
C32   C     C_R   0.124685 0.099050 0.479919 -0.357480
C33   C     C_R   0.010134 0.051050 0.489263 0.042301
C34   C     C_R   0.061746 0.977587 0.485281 0.121174
C35   C     C_R   0.851693 0.075698 0.503976 -0.031408
C36   C     C_R   0.747882 0.022939 0.515449 0.100867
C37   C     C_R   0.799012 0.949280 0.510290 0.049236
C38   C     C_R   0.957738 0.924905 0.496405 -0.018250
C39   C     C_R   0.588722 0.040277 0.530771 -0.169872
C40   C     C_R   0.498487 0.992711 0.550280 -0.144184
C41   C     C_R   0.543808 0.921802 0.542024 -0.089235
C42   C     C_R   0.683534 0.900470 0.517213 -0.165669
H42   H     H_    0.284834 0.912486 0.477992 0.162220
H43   H     H_    0.427163 0.987787 0.434976 0.160382
H44   H     H_    0.109837 0.154482 0.492969 0.186156
H45   H     H_    0.524461 0.088168 0.525227 0.168118
H46   H     H_    0.382328 0.009224 0.565301 0.139257
H47   H     H_    0.463793 0.882902 0.550730 0.141868
H48   H     H_    0.698747 0.845391 0.502926 0.179661
C43   C     C_R   0.288809 0.454875 0.174942 0.523155
O25   O     O_2   0.308851 0.402222 0.195136 -0.568111
N1    N     N_R   0.221266 0.516443 0.201350 -0.172054
C44   C     C_R   0.192384 0.575326 0.178036 0.516324
C45   C     C_2   0.030979 0.531723 0.269051 -0.084233
C46   C     C_3   0.988700 0.520895 0.321493 0.167293
C47   C     C_1   0.273641 0.491414 0.336768 0.225663
C48   C     C_2   0.311582 0.499256 0.290913 -0.199624
C49   C     C_2   0.183577 0.518513 0.253835 0.110158
C50   C     C_R   0.306386 0.511704 0.100610 -0.062961
C51   C     C_R   0.333113 0.451930 0.124664 -0.062229
C52   C     C_R   0.404577 0.390348 0.098189 -0.073107
C53   C     C_R   0.235035 0.573777 0.127549 -0.067446
C54   C     C_2   0.136715 0.516930 0.356123 -0.359377
H49   H     H_    0.434011 0.488888 0.279183 0.176084
H50   H     H_    0.428789 0.343879 0.115931 0.178587
C55   C     C_2   0.652391 0.475200 0.637934 -0.408476
C56   C     C_R   0.457793 0.442186 0.971237 0.041490
C57   C     C_R   0.375013 0.568319 0.975470 0.042753
C58   C     C_R   0.438282 0.503876 0.948114 0.088104
C59   C     C_R   0.514455 0.378610 0.941660 -0.199139
C60   C     C_R   0.555393 0.376244 0.891975 -0.054012
C61   C     C_R   0.541149 0.436954 0.869195 -0.056606
C62   C     C_R   0.482242 0.500905 0.896979 -0.070722
C63   C     C_R   0.467163 0.561696 0.873599 -0.059462
C64   C     C_R   0.511433 0.557653 0.822910 0.536203
N2    N     N_R   0.567396 0.494074 0.795749 -0.162355
C65   C     C_R   0.582713 0.434211 0.818755 0.590847
C66   C     C_2   0.741014 0.454463 0.724989 -0.177181
C67   C     C_3   0.752301 0.429342 0.669018 0.072311
C68   C     C_1   0.524402 0.511471 0.657195 0.352795
C69   C     C_2   0.487379 0.515718 0.705263 -0.154665
C70   C     C_2   0.604877 0.488875 0.742666 0.125841
O26   O     O_2   0.630775 0.377828 0.795015 -0.609603
C71   C     C_R   0.419033 0.445567 0.022686 0.042931
C72   C     C_R   0.350684 0.509244 0.049569 0.084889
C73   C     C_R   0.326192 0.570387 0.026009 0.041028
C74   C     C_R   0.447240 0.387209 0.048547 -0.200529
H51   H     H_    0.830846 0.435341 0.750641 0.187776
H52   H     H_    0.598169 0.325954 0.871267 0.170068
H53   H     H_    0.526356 0.328783 0.955272 0.131176
H54   H     H_    0.504808 0.338074 0.031931 0.132568
O27   O     O_2   0.130905 0.629262 0.201350 -0.540290
C75   C     C_R   0.208121 0.633051 0.103549 -0.074471
H55   H     H_    0.935243 0.542479 0.242171 0.138477
H56   H     H_    0.152316 0.681394 0.123111 0.173593
C76   C     C_R   0.363545 0.628653 0.951069 -0.198540
C77   C     C_R   0.408597 0.625286 0.901406 -0.077916
O28   O     O_2   0.501590 0.610904 0.803199 -0.584719
C78   C     C_R   0.252421 0.631527 0.054037 -0.197970
H57   H     H_    0.321955 0.680057 0.969464 0.129669
H58   H     H_    0.396832 0.673178 0.884745 0.168497
H59   H     H_    0.370957 0.537498 0.717561 0.172072
H60   H     H_    0.224757 0.679316 0.038669 0.130345
H61   H     H_    0.126650 0.530696 0.396789 0.170778
H62   H     H_    0.669520 0.466634 0.597549 0.164974
N3    N     N_R   0.314483 0.299856 0.730272 0.304421
O29   O     O_R   0.307529 0.368635 0.742139 -0.358091
O30   O     O_R   0.207201 0.263039 0.746754 -0.362704
N4    N     N_R   0.617975 0.225389 0.334745 0.290166
O31   O     O_R   0.749466 0.187418 0.339002 -0.353220
O32   O     O_R   0.579693 0.246726 0.292012 -0.316705
O33   O     O_3   0.918461 0.818441 0.349205 -0.660462
H63   H     H_    0.897943 0.810437 0.311961 0.381709
N5    N     N_R   0.215347 0.693729 0.335861 0.233163
O34   O     O_R   0.137369 0.661931 0.365276 -0.482889
O35   O     O_R   0.138565 0.718878 0.298928 -0.316866
O36   O     O_3   0.362946 0.122183 0.437619 -0.772028
H64   H     H_    0.302810 0.167955 0.437655 0.325945
O37   O     O_3   0.697635 0.641080 0.650355 -0.763049
H65   H     H_    0.680482 0.691027 0.667104 0.339975

loop_
_geom_bond_atom_site_label_1
_geom_bond_atom_site_label_2
_geom_bond_distance
_ccdc_geom_bond_type
O14   Ba2   2.729508 S    
C50   C72   1.429782 A    
C76   C77   1.393786 A    
C41   H47   1.082021 S    
C11   C12   1.526341 S    
C63   C77   1.399967 A    
C9    H18   1.110615 S    
O4    P6    1.539416 D    
C61   C62   1.405962 A    
C31   O36   1.375957 S    
C56   C71   1.424665 A    
C58   C62   1.430048 A    
C50   C53   1.408902 A    
Ba2   O21   2.819102 S    
C51   C52   1.397470 A    
C59   H53   1.075639 S    
P4    O12   1.515249 D    
C41   C42   1.384616 A    
C2    C3    1.521345 S    
C75   C78   1.392774 A    
P7    O22   1.748935 S    
C5    H8    1.110929 S    
P5    O19   1.761209 S    
C14   H31   1.110376 S    
C66   H51   1.085588 S    
N2    C70   1.460565 S    
C45   H55   1.085588 S    
C69   C70   1.504279 S    
C42   H48   1.064283 S    
C4    C5    1.528718 S    
C2    H3    1.111307 S    
C29   C34   1.416021 A    
C15   O24   1.411900 S    
C55   C67   1.507649 S    
C31   C32   1.397459 A    
C57   C58   1.421358 A    
C55   H62   1.084834 S    
C33   C34   1.440848 A    
C2    H4    1.107730 S    
N5    O35   1.301405 A    
C7    H13   1.110872 S    
C69   H59   1.085666 S    
C11   H24   1.111931 S    
C35   C36   1.438710 A    
C29   C30   1.384953 A    
O5    C6    1.392503 S    
P5    C46   1.874764 S    
C3    H5    1.109993 S    
C74   H54   1.075646 S    
C39   H45   1.070097 S    
O2    Ba2   2.803148 S    
C15   C16   1.533768 S    
O19   C13   1.411718 S    
C71   C72   1.421210 A    
P2    Ba1   3.415003 S    
N4    O32   1.301012 A    
C48   C49   1.499572 S    
Ba1   O20   2.962300 S    
O12   Ba2   2.896361 S    
C44   O27   1.221443 D    
P5    O17   1.747396 S    
C32   C33   1.412941 A    
C6    H12   1.109363 S    
C4    O37   1.394457 S    
C40   C41   1.377584 A    
C19   C20   1.399507 A    
C1    H2    1.112350 S    
C78   H60   1.076099 S    
O16   Ba2   2.961382 S    
C24   C28   1.386275 A    
O17   Ba2   2.739504 S    
C34   C38   1.435291 A    
C43   C51   1.408784 A    
P4    O13   1.584643 S    
O37   H65   0.993764 S    
C66   C67   1.505549 S    
C40   H46   1.083071 S    
Ba2   O20   2.757456 S    
O3    P6    1.732475 S    
C9    H19   1.108288 S    
C56   C59   1.414430 A    
C28   H41   1.081890 S    
C15   N5    1.451817 S    
O6    P6    1.749025 S    
O8    Ba1   2.738875 S    
C54   H61   1.086046 S    
C57   C73   1.429892 A    
C37   C38   1.431898 A    
C59   C60   1.386408 A    
C29   H42   1.069183 S    
P8    O23   1.541198 D    
C65   O26   1.220884 D    
C6    C7    1.523351 S    
P5    O18   1.543379 D    
C14   H30   1.110795 S    
C52   H50   1.083806 S    
C17   C18   1.415879 A    
C77   H58   1.083600 S    
P7    O21   1.578836 D    
Ba1   O16   2.758120 S    
O7    Ba1   2.819012 S    
P4    C18   1.850905 S    
C62   C63   1.409282 A    
C8    C9    1.520968 S    
N3    O30   1.300580 A    
P1    C24   1.855395 S    
C13   H29   1.096819 S    
C17   H36   1.080948 S    
C55   C68   1.327721 D    
C25   C38   1.559146 S    
C52   C74   1.387639 A    
C27   C35   1.559737 S    
N3    O29   1.300964 A    
C76   H57   1.076112 S    
P1    O5    1.747029 S    
P1    O2    1.584644 S    
C12   H26   1.111277 S    
O14   P8    1.747045 S    
P3    O11   1.748905 S    
O2    Ba1   2.942452 S    
P6    C22   1.844328 S    
C44   C53   1.413780 A    
H1    C10   1.110731 S    
P2    O10   1.751447 S    
Ba1   O13   2.802560 S    
C16   H34   1.110566 S    
P3    O9    1.545627 D    
P4    O15   1.757416 S    
N2    C65   1.387633 Am   
C21   C22   1.402694 A    
O11   C2    1.408204 S    
C71   C74   1.415673 A    
O16   P7    1.748767 S    
C4    H7    1.111305 S    
C21   H38   1.079576 S    
P4    Ba2   3.456889 S    
C60   C61   1.398420 A    
C21   C27   1.422816 A    
C45   C49   1.357634 D    
C16   H35   1.099239 S    
P3    O8    1.740967 S    
C3    H6    1.108649 S    
C43   O25   1.223006 D    
C9    H20   1.110811 S    
C56   C58   1.422416 A    
C37   C42   1.410084 A    
N1    C44   1.384278 Am   
C46   C54   1.514907 S    
C32   H44   1.064154 S    
O13   Ba2   2.943304 S    
C45   C46   1.517529 S    
Ba1   Ba2   4.599498 S    
P8    O24   1.767525 S    
C11   O22   1.404386 S    
C4    O15   1.403229 S    
P8    C20   1.833254 S    
C36   C37   1.441385 A    
C6    H11   1.106042 S    
P7    C47   1.825992 S    
N1    C49   1.452778 S    
P3    C67   1.866989 S    
C13   C14   1.530262 S    
C23   C24   1.414071 A    
C39   C40   1.388225 A    
C50   C51   1.408952 A    
C7    H15   1.110636 S    
P2    C68   1.839659 S    
C30   C31   1.376661 A    
C3    H27   1.110505 S    
C5    H9    1.110343 S    
C26   H40   1.081979 S    
C19   C25   1.420923 A    
O1    Ba1   2.895723 S    
C20   C26   1.382567 A    
O36   H64   0.990616 S    
C11   H23   1.109265 S    
C48   H49   1.084812 S    
C23   H39   1.080783 S    
C57   C76   1.416942 A    
C13   H28   1.100308 S    
C47   C54   1.319827 D    
C47   C48   1.320230 D    
C72   C73   1.422718 A    
C8    H17   1.109355 S    
C73   C78   1.416201 A    
P2    O7    1.530447 D    
C15   H32   1.106499 S    
C10   H21   1.107872 S    
C8    H16   1.101975 S    
C60   H52   1.083883 S    
P1    O1    1.515029 D    
C12   H25   1.110596 S    
C75   H56   1.083651 S    
P1    Ba1   3.456321 S    
C7    H14   1.106917 S    
C33   C35   1.436755 A    
C61   C65   1.406628 A    
C36   C39   1.419727 A    
C1    C10   1.528454 S    
C66   C70   1.355001 D    
N5    O34   1.289680 A    
C17   C25   1.434038 A    
C18   C26   1.385128 A    
C1    N3    1.460049 S    
C14   O33   1.401070 S    
C12   N4    1.459927 S    
C23   C27   1.433491 A    
O33   H63   0.993012 S    
C64   O28   1.222070 D    
C22   C28   1.386135 A    
C5    H10   1.107486 S    
H33   C16   1.110899 S    
C68   C69   1.330458 D    
C43   N1    1.383254 Am   
C64   N2    1.385601 Am   
C30   H43   1.083559 S    
N4    O31   1.300842 A    
C1    H22   1.108423 S    
C19   H37   1.079609 S    
C63   C64   1.416728 A    
O6    C10   1.403371 S    
C53   C75   1.399805 A    
O3    Ba1   2.730117 S    
P2    O20   1.541794 S    
O10   C8    1.397204 S    
