data_mof_unit_10166.cif
_audit_creation_date              2012-10-26T19:46:08-0400
_audit_creation_method            fapswitch 2.2
_symmetry_space_group_name_H-M    P1
_symmetry_Int_Tables_number       1
_space_group_crystal_system       triclinic
_cell_length_a                    10.736029
_cell_length_b                    9.577471
_cell_length_c                    15.890795
_cell_angle_alpha                 90.394642
_cell_angle_beta                  90.835548
_cell_angle_gamma                 90.481419
_cell_volume                      1633.68363939

loop_
_atom_site_label
_atom_site_type_symbol
_atom_type_description
_atom_site_fract_x
_atom_site_fract_y
_atom_site_fract_z
_atom_type_partial_charge
C1    C     C_R   0.262713 0.499524 0.500110 0.625641
C2    C     C_R   0.932633 0.488899 0.424005 0.069802
C3    C     C_R   0.871190 0.501058 0.500948 0.031389
C4    C     C_R   0.128834 0.498629 0.500430 0.059135
C5    C     C_R   0.417804 0.072640 0.450705 -0.027024
C6    C     C_R   0.417179 0.924298 0.451164 -0.016413
C7    C     C_R   0.500307 0.499581 0.340369 0.567608
C8    C     C_R   0.584315 0.929473 0.548785 0.225110
C9    C     C_R   0.581700 0.077606 0.549937 0.271145
C10   C     C_R   0.737291 0.500441 0.500778 0.585634
C11   C     C_R   0.500067 0.500381 0.659623 0.545274
C12   C     C_3   0.631049 0.435224 0.949839 0.183599
C13   C     C_3   0.491068 0.651528 0.050619 0.183018
C14   C     C_3   0.385408 0.413523 0.047564 0.180651
C15   C     C_3   0.394201 0.398881 0.949870 0.009041
C16   C     C_3   0.483171 0.648756 0.951879 0.011602
C17   C     C_1   0.500071 0.500827 0.749069 -0.012713
C18   C     C_3   0.503160 0.496734 0.083213 0.073221
C19   C     C_3   0.501438 0.495934 0.917083 0.075868
C20   C     C_3   0.414090 0.857186 0.110990 -0.145897
C21   C     C_3   0.202235 0.409307 0.127248 -0.118743
C22   C     C_3   0.845031 0.491187 0.097851 -0.076824
C23   C     C_3   0.634629 0.438687 0.051254 0.493682
C24   C     C_3   0.586981 0.197752 0.094757 -0.157426
C25   C     C_1   0.500289 0.499352 0.824492 0.024406
C26   C     C_1   0.502480 0.497665 0.175449 0.036737
C27   C     C_1   0.501573 0.498582 0.250881 -0.004297
C28   C     C_R   0.067373 0.510261 0.577353 0.089162
C29   C     C_R   0.063182 0.487512 0.423748 0.051980
C30   C     C_R   0.937383 0.510936 0.577846 0.045344
Cu1   Cu    Cu3+1 0.500020 0.640660 0.500000 0.962730
Cu2   Cu    Cu3+1 0.500020 0.359340 0.500000 0.988797
H1    H     H_    0.381933 0.306108 0.072146 0.039134
H2    H     H_    0.278768 0.396660 0.844715 0.222718
H3    H     H_    0.646785 0.791371 0.638401 0.267665
H4    H     H_    0.750116 0.827711 0.558227 0.252468
H5    H     H_    0.757342 0.129822 0.586826 0.225216
H6    H     H_    0.652377 0.124306 0.665509 0.219157
H7    H     H_    0.327064 0.908210 0.131288 0.140528
H8    H     H_    0.451970 0.918071 0.057654 0.081677
H9    H     H_    0.480789 0.859351 0.165198 0.119358
H10   H     H_    0.122051 0.474080 0.145988 0.128557
H11   H     H_    0.257176 0.385489 0.185149 0.117558
H12   H     H_    0.577955 0.709975 0.068322 0.126085
H13   H     H_    0.164957 0.311433 0.098067 0.088579
H14   H     H_    0.877546 0.412751 0.051480 0.138345
H15   H     H_    0.846343 0.445490 0.161845 0.155601
H16   H     H_    0.911844 0.580123 0.097877 0.119135
H17   H     H_    0.535274 0.175152 0.035584 0.118129
H18   H     H_    0.526571 0.214424 0.149868 0.106548
H19   H     H_    0.639830 0.101449 0.108711 0.140358
H20   H     H_    0.741865 0.618336 0.939328 0.245468
H21   H     H_    0.818579 0.468798 0.920123 0.241659
H22   H     H_    0.730369 0.251047 0.939490 0.256104
H23   H     H_    0.417365 0.288562 0.934858 0.103704
H24   H     H_    0.647253 0.288741 0.853428 0.236664
H25   H     H_    0.112459 0.437323 0.693064 0.248941
H26   H     H_    0.114144 0.613576 0.684969 0.260889
H27   H     H_    0.106337 0.559044 0.307759 0.228428
H28   H     H_    0.103665 0.382353 0.316471 0.215176
H29   H     H_    0.818225 0.609005 0.655886 0.234361
H30   H     H_    0.816428 0.432463 0.662487 0.241951
H31   H     H_    0.885963 0.561100 0.308121 0.225545
H32   H     H_    0.883258 0.384344 0.317032 0.226452
H33   H     H_    0.560600 0.714977 0.928465 0.104460
H34   H     H_    0.351854 0.127007 0.410896 0.116745
H35   H     H_    0.350734 0.867710 0.411778 0.123809
H36   H     H_    0.290211 0.676939 0.950616 0.336133
H37   H     H_    0.373601 0.819601 0.925752 0.220479
H38   H     H_    0.207120 0.357758 0.933225 0.234394
N1    N     N_R   0.500030 0.852070 0.500020 -0.225932
N2    N     N_3   0.130261 0.475503 0.346566 -0.650585
N3    N     N_3   0.874140 0.520247 0.656645 -0.635311
N4    N     N_3   0.861294 0.478173 0.347072 -0.623028
N5    N     N_R   0.500030 0.147930 0.500020 -0.216319
N6    N     N_3   0.368237 0.711211 0.917975 -0.579567
N7    N     N_3   0.273570 0.425606 0.908108 -0.574993
N8    N     N_3   0.681243 0.865857 0.597553 -0.662918
N9    N     N_3   0.666264 0.154980 0.603301 -0.557056
N10   N     N_3   0.733087 0.518783 0.912764 -0.627043
N11   N     N_3   0.644508 0.290358 0.919180 -0.649386
N12   N     N_3   0.138000 0.520604 0.654581 -0.613635
O1    O     O_R   0.319660 0.618740 0.500000 -0.493103
O2    O     O_3   0.273917 0.484848 0.068959 -0.487860
O3    O     O_3   0.724601 0.542226 0.078359 -0.610425
O4    O     O_3   0.673656 0.307601 0.087470 -0.564985
O5    O     O_R   0.319660 0.381260 0.500000 -0.497272
O6    O     O_R   0.500020 0.618840 0.379440 -0.491596
O7    O     O_R   0.500020 0.381160 0.379440 -0.499929
O8    O     O_R   0.680370 0.618830 0.500010 -0.516321
O9    O     O_R   0.680370 0.381170 0.500010 -0.465068
O10   O     O_R   0.500010 0.618730 0.620560 -0.508200
O11   O     O_R   0.500010 0.381270 0.620560 -0.476244
O12   O     O_3   0.386087 0.718177 0.086788 -0.512642

loop_
_geom_bond_atom_site_label_1
_geom_bond_atom_site_label_2
_ccdc_geom_bond_type
C1    O5    A    
C22   H16   S    
C14   C18   S    
C18   C26   S    
C14   O2    S    
C14   H1    S    
C20   H9    S    
C7    C27   S    
H24   N11   S    
C15   C19   S    
H5    N9    S    
C12   C23   S    
C26   C27   T    
C13   C18   S    
C2    C29   A    
H26   N12   S    
H2    N7    S    
C5    C6    A    
C20   H8    S    
Cu2   O9    S    
H6    N9    S    
H28   N2    S    
H25   N12   S    
C7    O7    A    
Cu1   O1    S    
H37   N6    S    
C9    N9    S    
C22   O3    S    
C7    O6    A    
C21   H11   S    
C11   O10   A    
Cu1   Cu2   S    
C8    C9    A    
C23   O4    S    
H30   N3    S    
C4    C29   A    
C2    N4    S    
H27   N2    S    
C29   N2    S    
C11   O11   A    
C24   H19   S    
Cu1   N1    S    
Cu2   O11   S    
H38   N7    S    
C8    N8    S    
Cu2   N5    S    
C4    C28   A    
C21   H13   S    
C24   H18   S    
C6    N1    A    
C28   N12   S    
C18   C23   S    
H21   N10   S    
C30   N3    S    
H29   N3    S    
Cu2   O5    S    
C15   H23   S    
C5    N5    A    
C3    C30   A    
Cu2   O7    S    
C21   O2    S    
Cu1   O8    S    
C6    H35   S    
C22   H14   S    
C10   O9    A    
H36   N6    S    
C24   H17   S    
C20   H7    S    
C20   O12   S    
C11   C17   S    
C8    N1    A    
Cu1   O6    S    
C16   N6    S    
C5    H34   S    
H31   N4    S    
C1    O1    A    
H3    N8    S    
C13   O12   S    
C1    C4    S    
C17   C25   T    
C28   C30   A    
C2    C3    A    
C3    C10   S    
H4    N8    S    
C15   N7    S    
C16   C19   S    
C12   N10   S    
C12   C19   S    
C12   N11   S    
C22   H15   S    
C13   H12   S    
C19   C25   S    
C21   H10   S    
C10   O8    A    
Cu1   O10   S    
C23   O3    S    
C13   C16   S    
H32   N4    S    
C14   C15   S    
C16   H33   S    
C9    N5    A    
H20   N10   S    
C24   O4    S    
H22   N11   S    
