data_mof_unit_12488.cif
_audit_creation_date              2013-03-05T15:54:37-0500
_audit_creation_method            fapswitch 2.2
_symmetry_space_group_name_H-M    P1
_symmetry_Int_Tables_number       1
_space_group_crystal_system       triclinic
_cell_length_a                    9.968517
_cell_length_b                    10.77124
_cell_length_c                    16.724844
_cell_angle_alpha                 93.900968
_cell_angle_beta                  85.218653
_cell_angle_gamma                 89.629575
_cell_volume                      1785.27303036

loop_
_atom_site_label
_atom_site_type_symbol
_atom_site_description
_atom_site_fract_x
_atom_site_fract_y
_atom_site_fract_z
_atom_type_partial_charge
O1    O     O_R   0.385310 0.683220 0.500000 -0.612876
O2    O     O_R   0.614640 0.683250 0.500010 -0.583810
C1    C     C_R   0.501019 0.738929 0.492172 0.934435
O3    O     O_R   0.371780 0.500010 0.615800 -0.614561
O4    O     O_R   0.601110 0.500030 0.615800 -0.637194
C2    C     C_R   0.481287 0.498622 0.652993 0.873262
Zn1   Zn    Zn3+2 0.346870 0.499980 0.499990 0.949777
Zn2   Zn    Zn3+2 0.653130 0.500020 0.500010 1.021782
O5    O     O_R   0.385360 0.316750 0.499990 -0.629225
O6    O     O_R   0.614690 0.316780 0.500000 -0.578001
O7    O     O_R   0.398890 0.499970 0.384200 -0.630660
O8    O     O_R   0.628220 0.499990 0.384200 -0.596207
C3    C     C_R   0.499271 0.261371 0.508324 0.912738
C4    C     C_R   0.518653 0.491217 0.346972 0.853147
C5    C     C_R   0.469964 0.484980 0.739043 -0.087660
C6    C     C_R   0.580912 0.510611 0.783153 -0.096268
C7    C     C_R   0.576175 0.487443 0.863858 0.134474
C8    C     C_R   0.459501 0.432963 0.900023 0.140928
C9    C     C_R   0.346684 0.412509 0.856797 -0.164105
C10   C     C_R   0.351643 0.438446 0.776532 -0.210836
C11   C     C_R   0.425430 0.340535 0.152124 -0.150126
C12   C     C_R   0.417063 0.389226 0.230993 -0.199997
C13   C     C_R   0.651396 0.450517 0.214869 -0.180071
C14   C     C_R   0.659144 0.402834 0.135077 -0.166979
C15   C     C_R   0.544593 0.352120 0.103042 0.197086
C16   C     C_2   0.447636 0.407073 0.984358 -0.241315
C17   C     C_2   0.540591 0.340226 0.016212 -0.231043
C18   C     C_R   0.528727 0.447749 0.262316 -0.031002
H1    H     H_    0.671944 0.548366 0.754974 0.176398
H2    H     H_    0.322655 0.381215 0.267210 0.155356
H3    H     H_    0.739635 0.492163 0.238718 0.174874
H4    H     H_    0.624626 0.296484 0.979068 0.168567
H5    H     H_    0.255425 0.374713 0.885004 0.150717
H6    H     H_    0.336557 0.300757 0.127825 0.141126
H7    H     H_    0.264609 0.418490 0.743326 0.168909
H8    H     H_    0.364116 0.451425 0.021937 0.166343
H9    H     H_    0.751301 0.413095 0.097047 0.133092
C19   C     C_R   0.261259 0.887923 0.458515 -0.161890
H10   H     H_    0.262195 0.802209 0.420817 0.174888
C20   C     C_R   0.137870 0.947818 0.478907 -0.083836
H11   H     H_    0.047526 0.906648 0.458309 0.234420
C21   C     C_R   0.131854 0.058136 0.527525 -0.083756
H12   H     H_    0.036201 0.100647 0.549140 0.232744
C22   C     C_R   0.250455 0.116543 0.546219 -0.146256
H13   H     H_    0.242336 0.202620 0.583710 0.166214
C23   C     C_R   0.376812 0.062925 0.517721 0.069318
C24   C     C_R   0.380733 0.939608 0.485737 0.044753
C25   C     C_R   0.503240 0.872525 0.483545 -0.304933
C26   C     C_R   0.625361 0.936251 0.491630 0.249120
C27   C     C_R   0.622975 0.063179 0.510543 0.240676
C28   C     C_R   0.499031 0.128339 0.518614 -0.298405
C29   C     C_R   0.835183 0.645261 0.615773 -0.164918
H14   H     H_    0.732698 0.661984 0.608136 0.238467
C30   C     C_R   0.884388 0.709206 0.681446 0.309809
C31   C     C_R   0.021449 0.709206 0.686370 -0.309619
H15   H     H_    0.062168 0.765766 0.734511 0.196795
C32   C     C_R   0.109944 0.652795 0.624720 0.079317
C33   C     C_R   0.061184 0.572328 0.560481 0.145909
C34   C     C_R   0.916930 0.570319 0.559022 0.070018
N1    N     N_R   0.857140 0.501200 0.500750 -0.104532
C35   C     C_R   0.937676 0.436899 0.440926 0.216488
H16   H     H_    0.142424 0.383138 0.395180 0.140675
C36   C     C_R   0.080644 0.435335 0.442287 -0.135244
N2    N     N_R   0.142740 0.501280 0.500770 -0.121822
N3    N     N_R   0.753584 0.873405 0.481305 0.239305
O9    O     O_R   0.832768 0.880060 0.539373 -0.404629
O10   O     O_R   0.795291 0.817853 0.412075 -0.394947
N4    N     N_R   0.748181 0.124637 0.521363 0.238467
O11   O     O_R   0.768632 0.181614 0.590351 -0.376538
O12   O     O_R   0.844627 0.116962 0.463801 -0.442116
N5    N     N_3   0.877195 0.377223 0.373836 -0.417653
H17   H     H_    0.950224 0.331216 0.333783 0.158148
H18   H     H_    0.812330 0.309362 0.395193 0.257510
N6    N     N_R   0.796189 0.782148 0.739605 0.225156
O13   O     O_R   0.669838 0.798285 0.728167 -0.407777
O14   O     O_R   0.841575 0.833504 0.804558 -0.374038
N7    N     N_3   0.243333 0.697391 0.625280 -0.344607
H19   H     H_    0.240616 0.792776 0.616933 0.199478
H20   H     H_    0.276221 0.689668 0.682619 0.183621
N8    N     N_3   0.687820 0.526119 0.907963 -0.435264
H21   H     H_    0.740458 0.447895 0.922502 0.177964
H22   H     H_    0.651806 0.577532 0.960756 0.212444

loop_
_geom_bond_atom_site_label_1
_geom_bond_atom_site_label_2
_geom_bond_distance
_ccdc_geom_bond_type
C31   H15   1.084031 S    
C9    C10   1.386623 A    
C8    C16   1.451682 S    
N7    H19   1.046704 S    
C22   H13   1.082032 S    
Zn1   O7    1.962590 S    
C16   C17   1.336695 D    
C26   N3    1.434559 S    
C3    C28   1.454792 S    
C19   H10   1.081533 S    
O7    C4    1.299423 A    
C5    C6    1.398554 A    
C1    C25   1.456071 S    
C8    C9    1.397500 A    
C23   C24   1.396839 A    
C35   C36   1.427264 A    
O5    C3    1.301385 A    
C2    C5    1.451708 S    
C30   N6    1.442543 S    
C10   H7    1.083446 S    
C29   C30   1.382993 A    
N4    O11   1.301536 A    
N3    O10   1.301466 A    
C13   C14   1.392733 A    
C35   N5    1.433643 S    
C20   C21   1.391480 A    
C34   N1    1.364990 A    
C12   C18   1.404356 A    
C11   C12   1.381635 A    
C21   C22   1.391325 A    
O3    Zn1   1.973159 S    
C22   C23   1.414342 A    
C7    C8    1.415190 A    
N7    H20   1.047373 S    
C33   N2    1.412993 A    
C5    C10   1.400952 A    
N6    O13   1.301955 A    
C32   N7    1.417257 S    
C14   C15   1.399861 A    
O3    C2    1.301173 A    
C9    H5    1.084095 S    
N5    H18   1.040722 S    
C6    C7    1.386269 A    
C11   H6    1.083901 S    
C33   C34   1.440509 A    
C23   C28   1.411995 A    
C7    N8    1.434350 S    
N1    C35   1.374753 A    
O1    C1    1.304653 A    
C13   H3    1.083187 S    
H16   C36   1.081871 S    
C29   C34   1.405294 A    
C24   C25   1.411507 A    
Zn2   O8    1.973159 S    
C27   C28   1.409057 A    
C13   C18   1.402794 A    
C19   C24   1.414244 A    
N6    O14   1.301616 A    
C16   H8    1.087741 S    
C25   C26   1.413168 A    
O8    C4    1.302400 A    
C26   C27   1.381764 A    
C31   C32   1.402397 A    
C21   H12   1.078847 S    
C29   H14   1.055934 S    
C14   H9    1.083597 S    
Zn1   O5    2.008129 S    
C11   C15   1.397776 A    
C30   C31   1.375612 A    
C20   H11   1.078202 S    
C12   H2    1.083129 S    
C17   H4    1.085345 S    
O1    Zn1   2.012997 S    
O2    Zn2   2.008127 S    
N8    H21   1.042980 S    
O6    C3    1.301088 A    
O4    Zn2   1.962590 S    
C15   C17   1.453062 S    
O2    C1    1.298604 A    
C6    H1    1.081911 S    
N5    H17   1.045541 S    
Zn2   N1    2.034862 S    
C19   C20   1.391155 A    
C32   C33   1.451755 A    
O4    C2    1.300598 A    
N8    H22   1.045574 S    
Zn1   N2    2.033779 S    
C36   N2    1.362547 A    
Zn2   O6    2.012997 S    
N3    O9    1.300170 A    
N4    O12   1.300702 A    
C4    C18   1.455828 S    
C27   N4    1.435543 S    
