data_mof_unit_48758.cif
_audit_creation_date              2012-12-10T18:59:18-0500
_audit_creation_method            fapswitch 2.2
_symmetry_space_group_name_H-M    P1
_symmetry_Int_Tables_number       1
_space_group_crystal_system       triclinic
_cell_length_a                    10.805077
_cell_length_b                    10.83225
_cell_length_c                    9.556013
_cell_angle_alpha                 90.254094
_cell_angle_beta                  89.938416
_cell_angle_gamma                 90.340199
_cell_volume                      1118.43592284

loop_
_atom_site_label
_atom_site_type_symbol
_atom_type_description
_atom_site_fract_x
_atom_site_fract_y
_atom_site_fract_z
_atom_type_partial_charge
C1    C     C_R   0.496563 0.262311 0.499448 0.820135
C2    C     C_R   0.474563 0.934048 0.371916 -0.249809
C3    C     C_R   0.483771 0.870580 0.499426 -0.172621
C4    C     C_R   0.262649 0.505413 0.500278 0.858109
C5    C     C_R   0.471955 0.937330 0.623964 0.230149
C6    C     C_3   0.544710 0.933667 0.756754 -0.394362
C7    C     C_3   0.543016 0.073836 0.755667 -0.421627
C8    C     C_R   0.607735 0.515265 0.073496 0.154946
C9    C     C_R   0.395640 0.472767 0.074179 -0.005227
C10   C     C_R   0.395603 0.472897 0.925724 -0.022780
C11   C     C_R   0.607840 0.514706 0.926281 0.145029
C12   C     C_R   0.065870 0.615597 0.565060 -0.182128
C13   C     C_3   0.694749 0.621879 0.919855 -0.473444
C14   C     C_3   0.694152 0.623179 0.078720 0.415466
C15   C     C_R   0.497174 0.737645 0.500101 1.028104
C16   C     C_R   0.737488 0.504001 0.499762 0.879061
C17   C     C_R   0.128677 0.717198 0.628366 0.471429
C18   C     C_R   0.063154 0.815492 0.685870 0.550833
C19   C     C_R   0.935210 0.817573 0.678324 -0.382612
C20   C     C_R   0.871076 0.720776 0.614923 0.480405
C21   C     C_R   0.934423 0.616471 0.561124 -0.078953
C22   C     C_R   0.128997 0.515302 0.500803 -0.015368
C23   C     C_R   0.063819 0.421178 0.432705 -0.192954
C24   C     C_R   0.936208 0.420620 0.432422 -0.221298
C25   C     C_R   0.871213 0.515044 0.498640 -0.027627
C26   C     C_R   0.470880 0.064280 0.622881 0.057276
C27   C     C_R   0.482089 0.129130 0.497542 -0.237885
C28   C     C_R   0.473809 0.062664 0.370394 0.599788
Cu1   Cu    Cu3+1 0.499990 0.499980 0.640670 1.019065
Cu2   Cu    Cu3+1 0.500010 0.500020 0.359330 1.036532
F1    F     F_    0.638539 0.727906 0.132648 -0.628543
F2    F     F_    0.253273 0.725699 0.632671 -0.661185
F3    F     F_    0.124753 0.911635 0.745607 -0.617246
F4    F     F_    0.747689 0.734071 0.600686 -0.702841
F5    F     F_    0.472601 0.120368 0.244543 -0.643250
H1    H     H_    0.639061 0.895859 0.742360 0.226722
H2    H     H_    0.885208 0.896169 0.719366 0.206762
H3    H     H_    0.887581 0.344546 0.382371 0.149221
H4    H     H_    0.474296 0.885053 0.272886 0.239298
H5    H     H_    0.490729 0.893097 0.844523 0.241073
H6    H     H_    0.112322 0.345709 0.382302 0.150796
H7    H     H_    0.487517 0.114117 0.842412 0.240165
H8    H     H_    0.636104 0.116092 0.740396 0.198806
H9    H     H_    0.310532 0.451794 0.128676 0.141056
H10   H     H_    0.310453 0.452161 0.871199 0.145973
H11   H     H_    0.785938 0.595768 0.875117 0.159911
H12   H     H_    0.651849 0.704532 0.872388 0.249845
H13   H     H_    0.785025 0.601445 0.126808 0.086200
N1    N     N_R   0.500790 0.500930 0.147930 -0.164005
N2    N     N_R   0.500790 0.500890 0.852020 -0.172174
O1    O     O_R   0.500000 0.319640 0.618810 -0.597094
O2    O     O_R   0.500010 0.319680 0.381230 -0.525507
O3    O     O_R   0.319640 0.499980 0.618820 -0.557648
O4    O     O_R   0.319650 0.500020 0.381230 -0.613834
O5    O     O_R   0.499990 0.680320 0.618770 -0.512550
O6    O     O_R   0.500000 0.680360 0.381190 -0.548930
O7    O     O_R   0.680350 0.499980 0.618770 -0.561014
O8    O     O_R   0.680360 0.500020 0.381180 -0.597638

loop_
_geom_bond_atom_site_label_1
_geom_bond_atom_site_label_2
_ccdc_geom_bond_type
C12   C17   A    
C24   H3    S    
C23   C24   A    
C6    C7    S    
C7    H8    S    
C4    O3    A    
C11   C13   S    
C9    C10   A    
Cu1   O5    S    
C19   C20   A    
C23   H6    S    
C14   F1    S    
C16   O7    A    
C20   F4    S    
C15   O6    A    
Cu2   O8    S    
C10   H10   S    
C2    C3    A    
C3    C15   S    
C11   N2    A    
C16   O8    A    
C13   C14   S    
C24   C25   A    
Cu2   O4    S    
C26   C27   A    
Cu1   Cu2   S    
C7    C26   S    
Cu1   O3    S    
C8    C11   A    
C21   C25   A    
C12   C21   A    
C18   F3    S    
Cu2   N1    S    
C6    H1    S    
C17   C18   A    
C6    H5    S    
Cu1   N2    S    
C5    C6    S    
C1    O2    A    
C8    C14   S    
C14   H13   S    
C8    N1    A    
C5    C26   A    
C10   N2    A    
C12   C22   A    
C16   C25   S    
C9    N1    A    
C20   C21   A    
C13   H12   S    
C18   C19   A    
Cu1   O1    S    
C7    H7    S    
C27   C28   A    
C1    C27   S    
C17   F2    S    
C4    C22   S    
C13   H11   S    
C9    H9    S    
C2    C28   A    
C1    O1    A    
C19   H2    S    
C4    O4    A    
C22   C23   A    
Cu2   O6    S    
C2    H4    S    
C28   F5    S    
Cu1   O7    S    
Cu2   O2    S    
C3    C5    A    
C15   O5    A    
