data_mof_unit_34119.cif
_audit_creation_date              2013-03-05T15:43:48-0500
_audit_creation_method            fapswitch 2.2
_symmetry_space_group_name_H-M    P1
_symmetry_Int_Tables_number       1
_space_group_crystal_system       triclinic
_cell_length_a                    21.592727
_cell_length_b                    21.441346
_cell_length_c                    22.83285
_cell_angle_alpha                 90.002749
_cell_angle_beta                  90.002082
_cell_angle_gamma                 91.209817
_cell_volume                      10568.7308579

loop_
_atom_site_label
_atom_site_type_symbol
_atom_site_description
_atom_site_fract_x
_atom_site_fract_y
_atom_site_fract_z
_atom_type_partial_charge
C1    C     C_R   0.934979 0.140858 0.106852 -0.019714
C2    C     C_R   0.082665 0.841844 0.920673 -0.068656
C3    C     C_R   0.158433 0.087138 0.077883 -0.068925
C4    C     C_R   0.859665 0.931492 0.891946 -0.096884
C5    C     C_R   0.063264 0.862003 0.109083 -0.011511
C6    C     C_R   0.914721 0.157853 0.919935 -0.060900
C7    C     C_R   0.841313 0.913620 0.076114 -0.118569
C8    C     C_R   0.139251 0.065072 0.892016 -0.029171
C9    C     C_R   0.934858 0.860703 0.891811 -0.033110
C10   C     C_R   0.086274 0.159272 0.075631 -0.133595
C11   C     C_R   0.157155 0.914756 0.920559 -0.127224
C12   C     C_R   0.857604 0.069357 0.106076 -0.093398
C13   C     C_R   0.068541 0.140473 0.891818 -0.093911
C14   C     C_R   0.913197 0.841115 0.077914 -0.077949
C15   C     C_R   0.841973 0.083425 0.922435 -0.135493
C16   C     C_R   0.139138 0.935395 0.107978 -0.062855
C17   C     C_R   0.436748 0.637992 0.609090 -0.011507
C18   C     C_R   0.585278 0.342147 0.419931 -0.060917
C19   C     C_R   0.658684 0.586395 0.576129 -0.118517
C20   C     C_R   0.360752 0.434931 0.392011 -0.029062
C21   C     C_R   0.565030 0.359140 0.606847 -0.019704
C22   C     C_R   0.417332 0.658156 0.420679 -0.068743
C23   C     C_R   0.341568 0.412864 0.577884 -0.068905
C24   C     C_R   0.640371 0.568541 0.391979 -0.096828
C25   C     C_R   0.431470 0.359537 0.391807 -0.093893
C26   C     C_R   0.586787 0.658887 0.577924 -0.078050
C27   C     C_R   0.658025 0.416576 0.422430 -0.135435
C28   C     C_R   0.360871 0.564604 0.607982 -0.062836
C29   C     C_R   0.565154 0.639306 0.391824 -0.033412
C30   C     C_R   0.413727 0.340730 0.575632 -0.133575
C31   C     C_R   0.342842 0.585244 0.420563 -0.127192
C32   C     C_R   0.642405 0.430641 0.606071 -0.093417
H1    H     H_    0.967783 0.176882 0.119865 0.140355
H2    H     H_    0.057912 0.797538 0.918948 0.167756
H3    H     H_    0.201818 0.063515 0.076709 0.167968
H4    H     H_    0.820458 0.959260 0.879916 0.123160
H5    H     H_    0.035479 0.821047 0.119654 0.141648
H6    H     H_    0.938374 0.202639 0.919941 0.164577
H7    H     H_    0.797848 0.936428 0.069180 0.115650
H8    H     H_    0.173530 0.032345 0.878805 0.142190
H9    H     H_    0.967305 0.826398 0.878243 0.139395
H10   H     H_    0.063836 0.203093 0.068234 0.138249
H11   H     H_    0.202290 0.937557 0.919088 0.159096
H12   H     H_    0.816477 0.042080 0.116840 0.128192
H13   H     H_    0.040910 0.179832 0.879573 0.127652
H14   H     H_    0.936769 0.797507 0.076478 0.177919
H15   H     H_    0.797761 0.059834 0.929025 0.123439
H16   H     H_    0.181422 0.961515 0.117100 0.133045
H17   H     H_    0.464535 0.678946 0.619665 0.141670
H18   H     H_    0.561626 0.297360 0.419936 0.164592
H19   H     H_    0.702155 0.563594 0.569213 0.115630
H20   H     H_    0.326457 0.467646 0.378809 0.142144
H21   H     H_    0.532230 0.323113 0.619857 0.140348
H22   H     H_    0.442085 0.702462 0.418957 0.167749
H23   H     H_    0.298183 0.436488 0.576712 0.167967
H24   H     H_    0.679598 0.540794 0.379963 0.123224
H25   H     H_    0.459105 0.320182 0.379557 0.127640
H26   H     H_    0.563198 0.702483 0.576483 0.177971
H27   H     H_    0.702237 0.440169 0.429020 0.123419
H28   H     H_    0.318588 0.538484 0.617104 0.133055
H29   H     H_    0.532679 0.673569 0.378221 0.139430
H30   H     H_    0.436164 0.296907 0.568237 0.138247
H31   H     H_    0.297707 0.562443 0.419092 0.159095
H32   H     H_    0.683535 0.457917 0.616832 0.128179
N1    N     N_R   0.940200 0.105310 0.059970 -0.053583
N2    N     N_R   0.059800 0.894690 0.940030 -0.068488
N3    N     N_R   0.105310 0.059800 0.059970 -0.065342
N4    N     N_R   0.894690 0.940200 0.940030 -0.054708
N5    N     N_R   0.059800 0.894690 0.059970 -0.046643
N6    N     N_R   0.940200 0.105310 0.940030 -0.061789
N7    N     N_R   0.894690 0.940200 0.059970 -0.054814
N8    N     N_R   0.105310 0.059800 0.940030 -0.056653
N9    N     N_R   0.940200 0.894690 0.940030 -0.056731
N10   N     N_R   0.059800 0.105310 0.059970 -0.058584
N11   N     N_R   0.105310 0.940200 0.940030 -0.064540
N12   N     N_R   0.894690 0.059800 0.059970 -0.054100
N13   N     N_R   0.059800 0.105310 0.940030 -0.055498
N14   N     N_R   0.940200 0.894690 0.059970 -0.067216
N15   N     N_R   0.894690 0.059800 0.940030 -0.053054
N16   N     N_R   0.105310 0.940200 0.059970 -0.049340
N17   N     N_R   0.440200 0.605310 0.559970 -0.046627
N18   N     N_R   0.559800 0.394690 0.440030 -0.061795
N19   N     N_R   0.605310 0.559800 0.559970 -0.054813
N20   N     N_R   0.394690 0.440200 0.440030 -0.056666
N21   N     N_R   0.559800 0.394690 0.559970 -0.053586
N22   N     N_R   0.440200 0.605310 0.440030 -0.068452
N23   N     N_R   0.394690 0.440200 0.559970 -0.065349
N24   N     N_R   0.605310 0.559800 0.440030 -0.054712
N25   N     N_R   0.440200 0.394690 0.440030 -0.055501
N26   N     N_R   0.559800 0.605310 0.559970 -0.067214
N27   N     N_R   0.605310 0.440200 0.440030 -0.053046
N28   N     N_R   0.394690 0.559800 0.559970 -0.049340
N29   N     N_R   0.559800 0.605310 0.440030 -0.056684
N30   N     N_R   0.440200 0.394690 0.559970 -0.058584
N31   N     N_R   0.394690 0.559800 0.440030 -0.064553
N32   N     N_R   0.605310 0.440200 0.559970 -0.054101
C33   C     C_R   0.179843 0.354922 0.172347 0.252231
C34   C     C_R   0.767581 0.898376 0.676261 0.240139
C35   C     C_R   0.239963 0.882197 0.310813 0.242938
C36   C     C_R   0.663242 0.159036 0.799188 0.261702
C37   C     C_R   0.646093 0.819180 0.170327 0.254255
C38   C     C_R   0.103701 0.230487 0.674465 0.241293
C39   C     C_R   0.776141 0.113057 0.326049 0.237270
C40   C     C_R   0.221853 0.828889 0.715617 0.250530
C41   C     C_R   0.854040 0.681031 0.670071 0.254176
C42   C     C_R   0.396313 0.269524 0.174439 0.241293
C43   C     C_R   0.723867 0.386941 0.826053 0.237253
C44   C     C_R   0.278181 0.671128 0.215612 0.250504
C45   C     C_R   0.320179 0.145107 0.672384 0.252256
C46   C     C_R   0.732288 0.601707 0.176219 0.240149
C47   C     C_R   0.260022 0.617803 0.810788 0.242938
C48   C     C_R   0.836768 0.340963 0.299209 0.261666
C49   C     C_R   0.807051 0.865212 0.713780 0.002687
C50   C     C_R   0.206520 0.301771 0.147397 -0.008906
C51   C     C_R   0.709343 0.190549 0.832044 -0.000951
C52   C     C_R   0.215812 0.851086 0.261371 0.003792
C53   C     C_R   0.136430 0.191895 0.713202 0.007796
C54   C     C_R   0.699407 0.792260 0.146402 -0.001478
C55   C     C_R   0.212022 0.803595 0.771553 0.010871
C56   C     C_R   0.808304 0.146420 0.281859 0.005866
C57   C     C_R   0.363588 0.308123 0.213176 0.007820
C58   C     C_R   0.800626 0.707881 0.646277 -0.001512
C59   C     C_R   0.287988 0.696413 0.271558 0.010824
C60   C     C_R   0.691713 0.353577 0.781852 0.005897
C61   C     C_R   0.692912 0.634893 0.213813 0.002603
C62   C     C_R   0.293494 0.198248 0.647425 -0.008897
C63   C     C_R   0.790662 0.309451 0.332053 -0.000936
C64   C     C_R   0.284190 0.648918 0.761360 0.003788
C65   C     C_R   0.821009 0.802869 0.700591 -0.009502
C66   C     C_R   0.269332 0.288988 0.157144 -0.015675
C67   C     C_R   0.716282 0.255935 0.829579 -0.011556
C68   C     C_R   0.236050 0.790903 0.245503 -0.003072
C69   C     C_R   0.198671 0.178162 0.701096 -0.005877
C70   C     C_R   0.712270 0.729184 0.156977 -0.016749
C71   C     C_R   0.228399 0.741822 0.785108 -0.000075
C72   C     C_R   0.815708 0.211757 0.286380 -0.006502
C73   C     C_R   0.301348 0.321861 0.201066 -0.005862
C74   C     C_R   0.787717 0.770938 0.656901 -0.016789
C75   C     C_R   0.271602 0.758184 0.285121 -0.000122
C76   C     C_R   0.684310 0.288240 0.786366 -0.006506
C77   C     C_R   0.679021 0.697270 0.200699 -0.009476
C78   C     C_R   0.230682 0.211030 0.657173 -0.015667
C79   C     C_R   0.783727 0.244063 0.329586 -0.011551
C80   C     C_R   0.263961 0.709104 0.745496 -0.003049
H33   H     H_    0.824012 0.940099 0.775645 0.172569
H34   H     H_    0.121242 0.265783 0.116116 0.172024
H35   H     H_    0.750648 0.107212 0.858563 0.169982
H36   H     H_    0.153860 0.924359 0.238006 0.185473
H37   H     H_    0.061239 0.175255 0.774361 0.173717
H38   H     H_    0.734965 0.877820 0.114457 0.168525
H39   H     H_    0.173441 0.886991 0.806538 0.181616
H40   H     H_    0.830686 0.066452 0.228407 0.176255
H41   H     H_    0.438780 0.324759 0.274341 0.173718
H42   H     H_    0.765091 0.622290 0.614353 0.168514
H43   H     H_    0.326558 0.613013 0.306540 0.181639
H44   H     H_    0.669330 0.433545 0.728406 0.176256
H45   H     H_    0.675906 0.559960 0.275616 0.172606
H46   H     H_    0.378766 0.234230 0.616131 0.172017
H47   H     H_    0.749345 0.392787 0.358560 0.169982
H48   H     H_    0.346145 0.575643 0.738004 0.185470
C81   C     C_R   0.886293 0.712735 0.714429 0.315670
C82   C     C_R   0.364049 0.236807 0.129834 0.325805
C83   C     C_R   0.756320 0.354238 0.869562 0.321304
C84   C     C_R   0.244658 0.704716 0.174524 0.314694
C85   C     C_R   0.288599 0.113561 0.717273 0.317910
C86   C     C_R   0.765270 0.633801 0.131692 0.320972
C87   C     C_R   0.221336 0.649642 0.848859 0.319524
C88   C     C_R   0.866609 0.308983 0.254605 0.315192
C89   C     C_R   0.211432 0.386479 0.217229 0.317950
C90   C     C_R   0.734578 0.866275 0.631746 0.320976
C91   C     C_R   0.278640 0.850357 0.348892 0.319485
C92   C     C_R   0.633415 0.191012 0.754574 0.315201
C93   C     C_R   0.613931 0.787522 0.214762 0.315339
C94   C     C_R   0.135960 0.263201 0.629860 0.325811
C95   C     C_R   0.743684 0.145761 0.369554 0.321281
C96   C     C_R   0.255383 0.795303 0.674532 0.314717
Ni1   Ni    Ni4+2 0.000000 0.104370 0.000000 0.258308
Ni2   Ni    Ni4+2 0.000000 0.895630 0.000000 0.286741
Ni3   Ni    Ni4+2 0.104370 0.000000 0.000000 0.266676
Ni4   Ni    Ni4+2 0.895630 0.000000 0.000000 0.228777
Ni5   Ni    Ni4+2 0.500000 0.604370 0.500000 0.286751
Ni6   Ni    Ni4+2 0.500000 0.395630 0.500000 0.258328
Ni7   Ni    Ni4+2 0.604370 0.500000 0.500000 0.228751
Ni8   Ni    Ni4+2 0.395630 0.500000 0.500000 0.266699
C97   C     C_R   0.882119 0.121086 0.135665 0.062520
C98   C     C_R   0.143529 0.853115 0.908711 0.144195
C99   C     C_R   0.148819 0.150575 0.086226 0.101878
C100  C     C_R   0.884165 0.881355 0.861030 0.078146
C101  C     C_R   0.113998 0.885852 0.138887 0.037179
C102  C     C_R   0.852125 0.145433 0.909254 0.108960
C103  C     C_R   0.850160 0.850599 0.086576 0.100042
C104  C     C_R   0.118724 0.115991 0.861158 0.076572
C105  C     C_R   0.386018 0.614145 0.638895 0.037142
C106  C     C_R   0.647872 0.354568 0.409247 0.108948
C107  C     C_R   0.649824 0.649421 0.586594 0.099935
C108  C     C_R   0.381291 0.384021 0.361142 0.076732
C109  C     C_R   0.617896 0.378911 0.635656 0.062528
C110  C     C_R   0.356465 0.646885 0.408721 0.144215
C111  C     C_R   0.351183 0.349429 0.586229 0.101903
C112  C     C_R   0.615883 0.618693 0.361082 0.077670
C113  C     C_R   0.832380 0.891993 0.764635 -0.137431
C114  C     C_R   0.170302 0.258520 0.117425 -0.138803
C115  C     C_R   0.752047 0.157232 0.862964 -0.145643
C116  C     C_R   0.172150 0.879228 0.226975 -0.152825
C117  C     C_R   0.109264 0.167134 0.764128 -0.132651
C118  C     C_R   0.742606 0.828566 0.116605 -0.144525
C119  C     C_R   0.186271 0.839270 0.814711 -0.147511
C120  C     C_R   0.833238 0.116642 0.232967 -0.135339
C121  C     C_R   0.390756 0.332883 0.264105 -0.132741
C122  C     C_R   0.757405 0.671535 0.616536 -0.144450
C123  C     C_R   0.313727 0.660733 0.314719 -0.147590
C124  C     C_R   0.666783 0.383354 0.732959 -0.135363
C125  C     C_R   0.667606 0.608095 0.264666 -0.137218
C126  C     C_R   0.329706 0.241492 0.617444 -0.138788
C127  C     C_R   0.747950 0.342768 0.362962 -0.145649
C128  C     C_R   0.327861 0.620776 0.726974 -0.152828
C129  C     C_R   0.864031 0.854980 0.804806 -0.062979
C130  C     C_R   0.194498 0.201895 0.098598 -0.064579
C131  C     C_R   0.802137 0.186759 0.890882 -0.065976
C132  C     C_R   0.151419 0.850216 0.176742 -0.077051
C133  C     C_R   0.145669 0.136290 0.805266 -0.058137
C134  C     C_R   0.799309 0.804370 0.098874 -0.061734
C135  C     C_R   0.176662 0.814786 0.869856 -0.098640
C136  C     C_R   0.858242 0.152039 0.187017 -0.076638
C137  C     C_R   0.354352 0.363726 0.305243 -0.057971
C138  C     C_R   0.700657 0.695685 0.598875 -0.061782
C139  C     C_R   0.323327 0.685214 0.369870 -0.098642
C140  C     C_R   0.641783 0.347958 0.687003 -0.076650
C141  C     C_R   0.636051 0.645113 0.304902 -0.063386
C142  C     C_R   0.305506 0.298112 0.598613 -0.064547
C143  C     C_R   0.697860 0.313240 0.390874 -0.065976
C144  C     C_R   0.348601 0.649788 0.676749 -0.077029
C145  C     C_R   0.877047 0.792253 0.791471 0.311437
C146  C     C_R   0.259829 0.195056 0.097628 0.360472
C147  C     C_R   0.803957 0.252443 0.896599 0.353980
C148  C     C_R   0.175503 0.793881 0.156704 0.361913
C149  C     C_R   0.208348 0.123701 0.793092 0.317066
C150  C     C_R   0.806490 0.738605 0.098763 0.348592
C151  C     C_R   0.187743 0.752578 0.883237 0.343145
C152  C     C_R   0.863049 0.217445 0.190662 0.313345
C153  C     C_R   0.291673 0.376319 0.293067 0.317052
C154  C     C_R   0.693424 0.761448 0.598795 0.348590
C155  C     C_R   0.312241 0.747420 0.383257 0.343124
C156  C     C_R   0.636982 0.282551 0.690638 0.313348
C157  C     C_R   0.623142 0.707881 0.291664 0.311424
C158  C     C_R   0.240175 0.304950 0.597648 0.360475
C159  C     C_R   0.696042 0.247557 0.396589 0.353983
C160  C     C_R   0.324524 0.706125 0.656712 0.361921
C161  C     C_R   0.863705 0.769927 0.735110 -0.164935
C162  C     C_R   0.298348 0.240068 0.126698 -0.168515
C163  C     C_R   0.758997 0.288072 0.866635 -0.172580
C164  C     C_R   0.218532 0.762628 0.191268 -0.193680
C165  C     C_R   0.231314 0.136252 0.736845 -0.160479
C166  C     C_R   0.761567 0.699895 0.127630 -0.174540
C167  C     C_R   0.211884 0.714108 0.839698 -0.180008
C168  C     C_R   0.850133 0.245992 0.244027 -0.169397
C169  C     C_R   0.268710 0.363779 0.236812 -0.160653
C170  C     C_R   0.738345 0.800188 0.627636 -0.174494
C171  C     C_R   0.288102 0.785893 0.339722 -0.180057
C172  C     C_R   0.649894 0.254004 0.744002 -0.169412
C173  C     C_R   0.636453 0.730256 0.235324 -0.164644
C174  C     C_R   0.201661 0.259943 0.626724 -0.168515
C175  C     C_R   0.741007 0.211928 0.366632 -0.172576
C176  C     C_R   0.281495 0.737383 0.691271 -0.193677
Br1   Br    Br    0.966152 0.683064 0.738288 -0.293722
Br2   Br    Br    0.412200 0.195621 0.070378 -0.227536
Br3   Br    Br    0.788850 0.401128 0.935566 -0.177850
Br4   Br    Br    0.239216 0.668484 0.096933 -0.172595
Br5   Br    Br    0.318991 0.034399 0.743598 -0.254869
Br6   Br    Br    0.807659 0.584703 0.073634 -0.165552
Br7   Br    Br    0.176769 0.601226 0.907510 -0.189764
Br8   Br    Br    0.934072 0.350041 0.213380 -0.223254
Br9   Br    Br    0.181083 0.465681 0.243498 -0.254889
Br10  Br    Br    0.692066 0.915370 0.573769 -0.165288
Br11  Br    Br    0.323182 0.898772 0.407567 -0.189771
Br12  Br    Br    0.565968 0.149948 0.713321 -0.223155
Br13  Br    Br    0.534315 0.817475 0.239037 -0.293344
Br14  Br    Br    0.087802 0.304377 0.570404 -0.227569
Br15  Br    Br    0.711144 0.098872 0.435548 -0.177836
Br16  Br    Br    0.260864 0.831555 0.596954 -0.172486
N33   N     N_R   0.880662 0.747923 0.838712 0.248119
O1    O     O_R   0.932905 0.723854 0.854310 -0.312688
O2    O     O_R   0.831398 0.735762 0.869835 -0.299245
N34   N     N_R   0.285750 0.140407 0.072511 0.232061
O3    O     O_R   0.280119 0.129795 0.016617 -0.304822
O4    O     O_R   0.311550 0.099223 0.105984 -0.341936
N35   N     N_R   0.854264 0.282066 0.927297 0.236420
O5    O     O_R   0.861954 0.271603 0.982926 -0.292615
O6    O     O_R   0.895557 0.314986 0.898660 -0.324619
N36   N     N_R   0.156937 0.770981 0.100509 0.254634
O7    O     O_R   0.175528 0.800781 0.053894 -0.336278
O8    O     O_R   0.112231 0.729502 0.096572 -0.291325
N37   N     N_R   0.251587 0.121524 0.841083 0.244379
O9    O     O_R   0.275504 0.069467 0.858224 -0.325126
O10   O     O_R   0.262363 0.171822 0.871605 -0.305055
N38   N     N_R   0.861254 0.712492 0.074684 0.232732
O11   O     O_R   0.872073 0.716620 0.018725 -0.294586
O12   O     O_R   0.902084 0.687695 0.109039 -0.323255
N39   N     N_R   0.184955 0.732876 0.942923 0.267575
O13   O     O_R   0.131833 0.720929 0.967828 -0.268991
O14   O     O_R   0.236128 0.722017 0.970774 -0.273757
N40   N     N_R   0.860299 0.254141 0.137880 0.258109
O15   O     O_R   0.910015 0.269602 0.108712 -0.309980
O16   O     O_R   0.807833 0.278026 0.122587 -0.280544
N41   N     N_R   0.248439 0.378508 0.341061 0.244329
O17   O     O_R   0.224444 0.430560 0.358118 -0.325075
O18   O     O_R   0.237937 0.328313 0.371792 -0.305210
N42   N     N_R   0.638621 0.787528 0.574765 0.232694
O19   O     O_R   0.627788 0.783463 0.518803 -0.294616
O20   O     O_R   0.597786 0.812253 0.609160 -0.323330
N43   N     N_R   0.315031 0.767119 0.442946 0.267583
O21   O     O_R   0.368155 0.779074 0.467851 -0.268964
O22   O     O_R   0.263860 0.777962 0.470803 -0.273730
N44   N     N_R   0.639735 0.245857 0.637853 0.258116
O23   O     O_R   0.590023 0.230409 0.608669 -0.309969
O24   O     O_R   0.692197 0.221952 0.622576 -0.280556
N45   N     N_R   0.619731 0.752168 0.338957 0.248375
O25   O     O_R   0.567526 0.776026 0.354968 -0.312637
O26   O     O_R   0.669327 0.764894 0.369441 -0.298878
N46   N     N_R   0.214250 0.359596 0.572531 0.232054
O27   O     O_R   0.219869 0.370199 0.516637 -0.304743
O28   O     O_R   0.188455 0.400784 0.606006 -0.341907
N47   N     N_R   0.645733 0.217934 0.427278 0.236415
O29   O     O_R   0.638045 0.228392 0.482909 -0.292611
O30   O     O_R   0.604440 0.185017 0.398633 -0.324591
N48   N     N_R   0.343089 0.729017 0.600517 0.254631
O31   O     O_R   0.324485 0.699216 0.553902 -0.336262
O32   O     O_R   0.387808 0.770482 0.596580 -0.291324
Br17  Br    Br    0.099961 0.383799 0.146769 -0.268099
Br18  Br    Br    0.756532 0.987003 0.686614 -0.339138
Br19  Br    Br    0.221315 0.968691 0.326588 -0.369391
Br20  Br    Br    0.642373 0.071938 0.813033 -0.339613
Br21  Br    Br    0.617962 0.899733 0.144405 -0.352161
Br22  Br    Br    0.015388 0.240577 0.683133 -0.365396
Br23  Br    Br    0.774295 0.022815 0.326392 -0.355011
Br24  Br    Br    0.189469 0.909973 0.694771 -0.390311
Br25  Br    Br    0.882219 0.600533 0.644050 -0.352088
Br26  Br    Br    0.484625 0.259430 0.183110 -0.365349
Br27  Br    Br    0.725708 0.477183 0.826406 -0.355260
Br28  Br    Br    0.310593 0.590059 0.194755 -0.390366
Br29  Br    Br    0.400061 0.116230 0.646810 -0.268108
Br30  Br    Br    0.743250 0.513057 0.186491 -0.339133
Br31  Br    Br    0.278656 0.531305 0.826553 -0.369372
Br32  Br    Br    0.857623 0.428066 0.313053 -0.339658

loop_
_geom_bond_atom_site_label_1
_geom_bond_atom_site_label_2
_geom_bond_distance
_ccdc_geom_bond_type
C153  N41   1.441007 S    
C98   C135  1.413896 S    
C4    H4    1.080700 S    
N21   Ni6   1.882454 S    
C5    H5    1.080339 S    
C53   C69   1.409264 A    
C102  C131  1.471944 S    
C146  C162  1.424703 A    
C100  C129  1.465043 S    
C44   C84   1.394553 A    
C150  C166  1.424893 A    
N34   O3    1.301561 A    
C54   C118  1.381438 A    
C104  C133  1.464923 S    
N21   N32   1.370166 A    
N23   N30   1.399407 A    
C67   C76   1.396461 A    
N29   Ni5   1.881940 S    
C67   C163  1.419298 A    
C51   C115  1.373601 A    
N35   O6    1.301633 A    
N48   O31   1.300605 A    
C49   C113  1.401345 A    
N11   Ni3   1.876250 S    
C142  C158  1.421521 A    
C2    H2    1.080849 S    
C130  C146  1.421521 A    
C154  C170  1.424891 A    
C36   C51   1.407745 A    
C43   C60   1.411118 A    
C52   C116  1.376144 A    
C22   C110  1.358986 A    
C151  N39   1.427690 S    
C65   C161  1.413337 A    
C87   C167  1.417003 A    
N47   O29   1.301094 A    
C56   C120  1.399362 A    
C129  C145  1.412967 A    
C35   C52   1.405897 A    
N44   O23   1.300337 A    
C20   N20   1.322237 A    
N18   N27   1.370166 A    
C133  C149  1.413256 A    
C16   N16   1.322446 A    
C32   C109  1.393545 A    
C31   H31   1.081584 S    
N5    Ni2   1.882454 S    
C94   C174  1.423661 A    
C144  C160  1.401886 A    
C140  C156  1.406496 A    
N19   Ni7   1.875660 S    
C90   C170  1.424139 A    
N3    N10   1.399407 A    
C63   C79   1.407941 A    
C64   C80   1.418156 A    
H38   C118  1.073445 S    
N38   O11   1.301584 A    
C154  N42   1.428971 S    
C151  C167  1.399449 A    
C26   N26   1.341250 A    
C125  C141  1.400388 A    
C76   C172  1.415484 A    
N6    N15   1.370166 A    
C77   C173  1.413354 A    
C143  C159  1.414095 A    
C21   C109  1.376568 A    
C3    C99   1.393319 A    
C160  N48   1.428194 S    
C23   H23   1.074667 S    
C73   C169  1.413278 A    
C24   H24   1.080710 S    
C9    H9    1.072214 S    
C4    C100  1.399210 A    
C96   Br16  1.937011 S    
N33   O1    1.300090 A    
C5    C101  1.378736 A    
C30   N30   1.328669 A    
C135  C151  1.393977 A    
C70   C77   1.399881 A    
C13   H13   1.080554 S    
C63   C127  1.373596 A    
C8    C104  1.380347 A    
C12   C97   1.393545 A    
H35   C115  1.076970 S    
C18   N18   1.344850 A    
C47   Br31  1.939766 S    
C91   Br11  1.937806 S    
N22   N31   1.370166 A    
C24   C112  1.399161 A    
H42   C122  1.073460 S    
C7    H7    1.079089 S    
C8    H8    1.073855 S    
C105  C144  1.417712 S    
H39   C119  1.081885 S    
C137  C153  1.413256 A    
C31   C110  1.374796 A    
C159  C175  1.423198 A    
C33   Br17  1.935107 S    
C160  C176  1.400509 A    
C152  N40   1.441192 S    
C74   C170  1.415840 A    
C119  C135  1.378230 A    
C36   C92   1.393262 A    
C37   C93   1.397383 A    
C156  C172  1.394374 A    
C157  C173  1.400665 A    
C40   C96   1.394558 A    
C68   C75   1.386546 A    
C36   Br20  1.937814 S    
C69   C78   1.399909 A    
C37   C54   1.408855 A    
C84   C164  1.426816 A    
C72   C79   1.396463 A    
C48   Br32  1.937817 S    
C138  C154  1.421928 A    
C88   C168  1.410244 A    
C59   C75   1.412440 A    
C57   C73   1.409267 A    
C48   C63   1.407746 A    
C95   C175  1.422655 A    
N17   N28   1.370166 A    
C96   C176  1.426825 A    
C15   N15   1.318367 A    
C81   Br1   1.929072 S    
N41   O18   1.300709 A    
N22   Ni5   1.882457 S    
C1    N1    1.320260 A    
C6    H6    1.078082 S    
C27   N27   1.318358 A    
C54   C70   1.407272 A    
C40   C55   1.401998 A    
C141  C157  1.412855 A    
C22   N22   1.321590 A    
C122  C138  1.399646 A    
C25   H25   1.080549 S    
C148  C164  1.400513 A    
C19   N19   1.327301 A    
N42   O20   1.301941 A    
C28   C105  1.377279 A    
C45   Br29  1.935104 S    
C28   H28   1.081228 S    
C29   H29   1.072214 S    
C152  C168  1.394372 A    
H47   C127  1.076967 S    
N16   Ni3   1.876337 S    
C131  C147  1.414093 A    
N20   Ni8   1.875663 S    
C41   Br25  1.935594 S    
C32   H32   1.081274 S    
C16   C101  1.377275 A    
C17   H17   1.080335 S    
C4    N4    1.343926 A    
C15   H15   1.081430 S    
C34   Br18  1.934675 S    
N13   Ni1   1.881940 S    
N47   O30   1.301636 A    
N46   O28   1.301945 A    
N7    Ni4   1.875752 S    
N37   O9    1.300036 A    
C52   C68   1.418151 A    
N26   Ni5   1.881868 S    
C3    H3    1.074665 S    
C27   C106  1.376238 A    
C136  C152  1.406498 A    
C25   C108  1.401360 A    
C64   C128  1.376135 A    
N9    Ni2   1.881872 S    
C43   C83   1.410807 A    
C146  N34   1.429274 S    
N43   O22   1.300144 A    
C41   C81   1.397427 A    
N32   Ni7   1.876337 S    
H36   C116  1.082548 S    
C108  C137  1.464924 S    
C94   Br14  1.934565 S    
C106  C143  1.471948 S    
H40   C120  1.081415 S    
C2    N2    1.321586 A    
N6    Ni1   1.882457 S    
N33   O2    1.301126 A    
N30   Ni6   1.881940 S    
N18   Ni6   1.882522 S    
C114  C130  1.399493 A    
C91   C171  1.417015 A    
H34   C114  1.074391 S    
N40   O16   1.300825 A    
C11   N11   1.332041 A    
C81   C161  1.410601 A    
N1    Ni1   1.882522 S    
C118  C134  1.399634 A    
C39   Br23  1.934501 S    
C41   C58   1.408845 A    
C85   C165  1.411343 A    
C47   C87   1.394113 A    
C34   C90   1.412028 A    
C109  C140  1.447581 S    
C45   C62   1.408125 A    
C47   C64   1.405895 A    
C12   H12   1.081272 S    
N48   O32   1.301784 A    
C33   C50   1.408124 A    
C156  N44   1.441194 S    
C99   C130  1.489148 S    
N27   Ni7   1.876250 S    
C10   H10   1.079504 S    
C11   C98   1.374797 A    
C50   C66   1.407065 A    
C145  N33   1.440932 S    
C39   C56   1.411113 A    
C9    C100  1.381521 A    
C145  C161  1.400819 A    
C14   H14   1.074475 S    
C84   Br4   1.936999 S    
C13   C104  1.401374 A    
C85   Br5   1.928725 S    
C116  C132  1.375132 A    
C149  C165  1.400782 A    
C95   Br15  1.935296 S    
C53   C117  1.401781 A    
C40   Br24  1.946638 S    
C18   C106  1.393566 A    
N44   O24   1.300824 A    
H48   C128  1.082548 S    
C82   C162  1.423659 A    
C37   Br21  1.935639 S    
N36   O7    1.300602 A    
N45   O26   1.301292 A    
C5    N5    1.325365 A    
C62   C126  1.381747 A    
N40   O15   1.300335 A    
C75   C171  1.423061 A    
C155  N43   1.427686 S    
C50   C114  1.381747 A    
N17   Ni5   1.882522 S    
C158  C174  1.424705 A    
N38   O12   1.301944 A    
C38   Br22  1.933849 S    
C7    C103  1.389378 A    
C121  C137  1.399799 A    
C26   C107  1.394534 A    
C92   Br12  1.931087 S    
C72   C168  1.415482 A    
C93   Br13  1.929162 S    
C21   N21   1.320258 A    
C8    N8    1.322235 A    
C1    C97   1.376563 A    
C89   Br9   1.928716 S    
C58   C74   1.407268 A    
C22   H22   1.080852 S    
H37   C117  1.080686 S    
C34   C49   1.411207 A    
C60   C124  1.399362 A    
C62   C78   1.407073 A    
C55   C71   1.412439 A    
C61   C125  1.401339 A    
C56   C72   1.410420 A    
N39   O13   1.300916 A    
N35   O5    1.301095 A    
C29   C112  1.381436 A    
C39   C95   1.410807 A    
C155  C171  1.399460 A    
C26   H26   1.074434 S    
C45   C85   1.397727 A    
N1    N12   1.370166 A    
C30   H30   1.079504 S    
C12   N12   1.341081 A    
C120  C136  1.396805 A    
C112  C141  1.464812 S    
C44   C59   1.402000 A    
C69   C165  1.413264 A    
C126  C142  1.399489 A    
C110  C139  1.413909 S    
C18   H18   1.078080 S    
C6    N6    1.344847 A    
C83   Br3   1.935300 S    
N14   Ni2   1.881940 S    
C60   C76   1.410423 A    
N12   Ni4   1.876246 S    
C25   N25   1.345329 A    
N25   Ni6   1.881872 S    
C83   C163  1.422651 A    
N3    Ni3   1.875660 S    
C7    N7    1.327169 A    
N10   Ni1   1.881868 S    
C31   N31   1.332048 A    
N2    N11   1.370166 A    
N34   O4    1.301942 A    
C82   Br2   1.934563 S    
C17   N17   1.325366 A    
C42   C82   1.412076 A    
C124  C140  1.396806 A    
C20   H20   1.073876 S    
N41   O17   1.300048 A    
N15   Ni4   1.876337 S    
C78   C174  1.415532 A    
C71   C167  1.423052 A    
C66   C73   1.399905 A    
C148  N36   1.428199 S    
H33   C113  1.080565 S    
N43   O21   1.300919 A    
C19   C107  1.389509 A    
H44   C124  1.081415 S    
C10   N10   1.328666 A    
C17   C105  1.378719 A    
C147  C163  1.423198 A    
C16   H16   1.081228 S    
C1    H1    1.078648 S    
C51   C67   1.407939 A    
N2    Ni2   1.882522 S    
C49   C65   1.409002 A    
C127  C143  1.395703 A    
C44   Br28  1.946638 S    
C111  C142  1.489156 S    
C87   Br7   1.937798 S    
C88   Br8   1.931083 S    
C139  C155  1.393983 A    
N31   Ni8   1.876337 S    
C35   C91   1.394119 A    
C48   C88   1.393259 A    
C23   C111  1.393320 A    
C33   C89   1.397736 A    
C86   C166  1.424109 A    
C158  N46   1.429273 S    
C65   C74   1.399921 A    
H41   C121  1.080685 S    
C97   C136  1.447581 S    
C59   C123  1.372335 A    
C147  N35   1.430190 S    
C11   H11   1.081583 S    
C57   C121  1.401778 A    
C92   C172  1.410252 A    
C93   C173  1.410601 A    
C101  C132  1.417708 S    
C30   C111  1.388467 A    
C23   N23   1.340980 A    
C89   C169  1.411343 A    
C86   Br6   1.934931 S    
C9    N9    1.323948 A    
C46   Br30  1.934684 S    
C159  N47   1.430185 S    
C66   C162  1.415529 A    
C13   N13   1.345325 A    
C42   Br26  1.933846 S    
C70   C166  1.415878 A    
C61   C77   1.409031 A    
N23   Ni8   1.875752 S    
C29   N29   1.323904 A    
C157  N45   1.440854 S    
N24   Ni7   1.875752 S    
C35   Br19  1.939770 S    
N4    N9    1.399407 A    
C153  C169  1.400812 A    
N4    Ni4   1.875663 S    
C2    C98   1.358978 A    
N8    N13   1.399407 A    
C24   N24   1.343899 A    
C150  N38   1.429000 S    
C6    C102  1.393562 A    
C58   C122  1.381519 A    
C10   C99   1.388458 A    
C28   N28   1.322444 A    
H46   C126  1.074388 S    
N39   O14   1.300150 A    
C103  C134  1.490332 S    
C149  N37   1.440960 S    
C14   C103  1.394586 A    
C38   C53   1.411093 A    
C71   C80   1.386539 A    
C32   N32   1.341081 A    
C15   C102  1.376233 A    
C55   C119  1.372335 A    
N20   N25   1.399407 A    
C90   Br10  1.934924 S    
N42   O19   1.301590 A    
C68   C164  1.426288 A    
N19   N26   1.399407 A    
N24   N29   1.399407 A    
C107  C138  1.490437 S    
C132  C148  1.401877 A    
C3    N3    1.340982 A    
N28   Ni8   1.876246 S    
C38   C94   1.412075 A    
H45   C125  1.080580 S    
C115  C131  1.395705 A    
N46   O27   1.301557 A    
H43   C123  1.081885 S    
C113  C129  1.400405 A    
N37   O10   1.300839 A    
C27   H27   1.081428 S    
C21   H21   1.078652 S    
C46   C86   1.412023 A    
C134  C150  1.421852 A    
C42   C57   1.411091 A    
C117  C133  1.399811 A    
C128  C144  1.375128 A    
N36   O8    1.301785 A    
C14   N14   1.341329 A    
N45   O25   1.300125 A    
C43   Br27  1.934500 S    
C46   C61   1.411225 A    
C19   H19   1.079083 S    
C79   C175  1.419300 A    
N5    N16   1.370166 A    
C123  C139  1.378231 A    
N8    Ni3   1.875752 S    
C20   C108  1.380360 A    
N7    N14   1.399407 A    
C80   C176  1.426290 A    
