data_mof_unit_18631.cif
_audit_creation_date              2012-12-11T15:46:49-0500
_audit_creation_method            fapswitch 2.2
_symmetry_space_group_name_H-M    P1
_symmetry_Int_Tables_number       1
_space_group_crystal_system       triclinic
_cell_length_a                    11.563856
_cell_length_b                    11.537215
_cell_length_c                    19.557828
_cell_angle_alpha                 90.552258
_cell_angle_beta                  89.980381
_cell_angle_gamma                 59.935329
_cell_volume                      2258.102246

loop_
_atom_site_label
_atom_site_type_symbol
_atom_type_description
_atom_site_fract_x
_atom_site_fract_y
_atom_site_fract_z
_atom_type_partial_charge
C1    C     C_R   0.640292 0.117447 0.599267 0.543364
C2    C     C_1   0.640967 0.704117 0.668010 0.007685
C3    C     C_1   0.126765 0.198565 0.859289 0.004181
C4    C     C_1   0.171448 0.170404 0.727700 -0.029616
C5    C     C_1   0.150166 0.182173 0.798925 -0.030193
C6    C     C_1   0.195213 0.161144 0.667373 0.007347
C7    C     C_1   0.679043 0.190943 0.860775 0.003911
C8    C     C_1   0.658389 0.167341 0.729050 -0.029470
C9    C     C_1   0.665922 0.180711 0.800354 -0.030208
C10   C     C_1   0.652611 0.149953 0.668654 0.006093
C11   C     C_R   0.666105 0.678292 0.189857 -0.029497
C12   C     C_R   0.612262 0.746257 0.598666 0.552473
C13   C     C_R   0.540745 0.754727 0.219442 -0.005646
C14   C     C_R   0.529406 0.768504 0.288896 -0.021184
C15   C     C_R   0.770173 0.644103 0.302027 0.205849
C16   C     C_R   0.780911 0.635579 0.230779 -0.157480
C17   C     C_3   0.413134 0.751938 0.212769 -0.264020
C18   C     C_3   0.401159 0.766343 0.289830 -0.253811
C19   C     C_R   0.641287 0.704457 0.331349 0.013785
C20   C     C_R   0.126501 0.199992 0.193901 0.030325
C21   C     C_R   0.221295 0.225132 0.220133 0.030259
C22   C     C_R   0.254981 0.205168 0.286067 0.064799
C23   C     C_R   0.240954 0.145396 0.598180 0.554565
C24   C     C_R   0.102859 0.126995 0.308268 -0.148110
C25   C     C_R   0.066252 0.148809 0.238764 -0.146065
C26   C     C_3   0.314652 0.273687 0.203105 -0.269740
C27   C     C_3   0.355395 0.247864 0.278618 -0.236687
C28   C     C_R   0.198103 0.158393 0.332698 0.067519
C29   C     C_R   0.672262 0.191816 0.194998 0.012518
C30   C     C_R   0.726078 0.062126 0.219911 0.000031
C31   C     C_R   0.725155 0.040692 0.288570 0.005862
C32   C     C_R   0.604642 0.278107 0.311444 -0.165246
C33   C     C_R   0.605757 0.300874 0.241102 -0.157117
C34   C     C_R   0.647354 0.113990 0.403929 0.534910
C35   C     C_3   0.860040 0.938610 0.210261 -0.270463
C36   C     C_3   0.859103 0.917089 0.286403 -0.239359
C37   C     C_R   0.670521 0.146276 0.335862 0.013529
C38   C     C_R   0.081863 0.231029 0.928607 0.546124
C39   C     C_R   0.684107 0.604137 0.929465 0.544733
C40   C     C_R   0.708636 0.206578 0.930114 0.546819
C41   C     C_R   0.079361 0.237116 0.125706 0.546425
C42   C     C_R   0.682789 0.613902 0.124551 0.552806
C43   C     C_R   0.709213 0.212743 0.127577 0.545684
C44   C     C_R   0.616816 0.739083 0.402437 0.590854
C45   C     C_R   0.243810 0.140534 0.401935 0.567793
C46   C     C_1   0.670665 0.646156 0.860094 0.004725
C47   C     C_1   0.654631 0.683737 0.728418 -0.029897
C48   C     C_1   0.663570 0.666482 0.799672 -0.030379
Cr1   Cr    Cr6+3 0.404720 0.198220 0.499960 1.041316
Cr2   Cr    Cr6+3 0.698290 0.897110 0.500380 1.088599
Cr3   Cr    Cr6+3 0.396970 0.904720 0.499610 1.029724
Cr4   Cr    Cr6+3 0.926290 0.152010 0.028150 1.021799
Cr5   Cr    Cr6+3 0.921440 0.451830 0.027490 1.029891
Cr6   Cr    Cr6+3 0.626370 0.446880 0.028730 1.023569
H1    H     H_    0.394902 0.205289 0.167070 0.129139
H2    H     H_    0.455763 0.160338 0.286001 0.135932
H3    H     H_    0.329649 0.339848 0.308838 0.183238
H4    H     H_    0.552609 0.362311 0.346345 0.129043
H5    H     H_    0.562065 0.403001 0.223576 0.135393
H6    H     H_    0.941141 0.958053 0.194958 0.155537
H7    H     H_    0.853724 0.860819 0.179135 0.142332
H8    H     H_    0.853361 0.826850 0.298570 0.207752
H9    H     H_    0.936184 0.928513 0.314822 0.148111
H10   H     H_    0.879599 0.579905 0.208094 0.187281
H11   H     H_    0.426152 0.654464 0.194851 0.159651
H12   H     H_    0.334681 0.841310 0.185872 0.139588
H13   H     H_    0.315501 0.863155 0.307341 0.154902
H14   H     H_    0.410624 0.676357 0.315492 0.144753
H15   H     H_    0.055826 0.089173 0.342312 0.120843
H16   H     H_    0.988161 0.130679 0.220905 0.136530
H17   H     H_    0.261552 0.381517 0.189595 0.167356
O1    O     O_R   0.267750 0.231960 0.575440 -0.498549
O2    O     O_R   0.685950 0.784660 0.430010 -0.430428
O3    O     O_R   0.502510 0.767000 0.423980 -0.532760
O4    O     O_R   0.288320 0.026340 0.429250 -0.521478
O5    O     O_3   0.499990 0.000020 0.499980 -0.275375
O6    O     O_R   0.821590 0.119350 0.952850 -0.504107
O7    O     O_R   0.037230 0.162540 0.957390 -0.493702
O8    O     O_R   0.056530 0.344750 0.951370 -0.504999
O9    O     O_R   0.798000 0.560370 0.957490 -0.494416
O10   O     O_R   0.596230 0.579400 0.952760 -0.504949
O11   O     O_R   0.639160 0.321170 0.958690 -0.493109
O12   O     O_R   0.527290 0.186640 0.570530 -0.497038
O13   O     O_R   0.821370 0.124220 0.104400 -0.525748
O14   O     O_R   0.037020 0.167050 0.097880 -0.516779
O15   O     O_R   0.056310 0.349620 0.102920 -0.510257
O16   O     O_R   0.797790 0.564880 0.097980 -0.512131
O17   O     O_R   0.596000 0.584270 0.104310 -0.521448
O18   O     O_R   0.638950 0.325690 0.099180 -0.507067
O19   O     O_3   0.824700 0.350240 0.028120 -0.254972
O20   O     O_R   0.728110 0.003450 0.576380 -0.503742
O21   O     O_R   0.682980 0.789190 0.570500 -0.485767
O22   O     O_R   0.499300 0.771880 0.575540 -0.505566
O23   O     O_R   0.285350 0.030870 0.569740 -0.494280
O24   O     O_R   0.270960 0.227070 0.423890 -0.485356
O25   O     O_R   0.530270 0.182120 0.430040 -0.515069
O26   O     O_R   0.731320 0.998570 0.424830 -0.490003
S1    S     S_3+6 0.918040 0.559030 0.351490 -0.017439
O27   O     O_2   0.906387 0.462153 0.397811 -0.286411
O28   O     O_2   0.036905 0.483798 0.305225 -0.327192
O29   O     O_3   0.942218 0.666939 0.399250 -0.521756
H18   H     H_    0.025530 0.610240 0.424827 0.358834

loop_
_geom_bond_atom_site_label_1
_geom_bond_atom_site_label_2
_ccdc_geom_bond_type
C21   C26   S    
O29   H18   S    
C43   O13   A    
C34   C37   S    
C14   C18   S    
Cr4   O19   S    
C35   C36   S    
Cr3   O3    S    
C32   H4    S    
C2    C12   S    
C26   H1    S    
C20   C41   S    
C15   C19   A    
C41   O15   A    
C26   C27   S    
C43   O18   A    
C30   C35   S    
Cr4   O14   S    
Cr5   O8    S    
C34   O25   A    
Cr6   O19   S    
C30   C31   A    
Cr4   O7    S    
C38   O8    A    
C18   H14   S    
C15   C16   A    
C29   C33   A    
C34   O26   A    
C11   C42   S    
Cr4   O13   S    
C3    C38   S    
C8    C9    S    
Cr1   O1    S    
C7    C40   S    
Cr5   O15   S    
C36   H9    S    
C33   H5    S    
C22   C28   A    
C21   C22   A    
C29   C43   S    
C26   H17   S    
C36   H8    S    
C23   O1    A    
C24   H15   S    
C46   C48   T    
C28   C45   S    
C40   O11   A    
Cr5   O9    S    
C24   C25   A    
C39   O10   A    
Cr6   O18   S    
C4    C6    T    
C27   H3    S    
Cr2   O2    S    
C27   H2    S    
C38   O7    A    
C18   H13   S    
Cr1   O24   S    
C31   C37   A    
C35   H6    S    
C29   C30   A    
Cr2   O5    S    
C11   C16   A    
C47   C48   S    
C17   C18   S    
C17   H12   S    
Cr1   O5    S    
Cr5   O16   S    
C32   C37   A    
Cr3   O5    S    
C44   O3    A    
Cr3   O22   S    
C39   C46   S    
Cr2   O21   S    
S1    O28   D    
C22   C27   S    
C12   O22   A    
C42   O17   A    
C15   S1    S    
Cr4   O6    S    
C45   O24   A    
Cr6   O11   S    
C19   C44   S    
C7    C9    T    
Cr2   O26   S    
C31   C36   S    
C14   C19   A    
C12   O21   A    
C1    C10   S    
C24   C28   A    
Cr3   O4    S    
C4    C5    S    
C3    C5    T    
C42   O16   A    
C2    C47   T    
C1    O12   A    
S1    O29   S    
C41   O14   A    
C17   H11   S    
C23   O23   A    
C13   C17   S    
C45   O4    A    
C32   C33   A    
Cr1   O12   S    
C39   O9    A    
Cr6   O17   S    
C11   C13   A    
C35   H7    S    
C6    C23   S    
C1    O20   A    
Cr1   O25   S    
C44   O2    A    
Cr3   O23   S    
Cr2   O20   S    
C20   C21   A    
C8    C10   T    
S1    O27   D    
C20   C25   A    
Cr5   O19   S    
C40   O6    A    
C25   H16   S    
C16   H10   S    
C13   C14   A    
Cr6   O10   S    
