data_mof_unit_20111.cif
_audit_creation_date              2012-12-10T16:49:22-0500
_audit_creation_method            fapswitch 2.2
_symmetry_space_group_name_H-M    P1
_symmetry_Int_Tables_number       1
_space_group_crystal_system       triclinic
_cell_length_a                    7.752938
_cell_length_b                    8.578491
_cell_length_c                    12.877842
_cell_angle_alpha                 90.05724
_cell_angle_beta                  88.063959
_cell_angle_gamma                 93.619586
_cell_volume                      854.289064227

loop_
_atom_site_label
_atom_site_type_symbol
_atom_type_description
_atom_site_fract_x
_atom_site_fract_y
_atom_site_fract_z
_atom_type_partial_charge
C1    C     C_R   0.454627 0.205208 0.497284 0.970218
C2    C     C_R   0.711395 0.462034 0.140275 -0.206588
C3    C     C_R   0.589376 0.473563 0.868859 -0.274527
C4    C     C_R   0.410623 0.526437 0.131141 -0.274527
C5    C     C_R   0.578773 0.481714 0.975312 0.186632
C6    C     C_R   0.421227 0.518286 0.024688 0.186632
C7    C     C_2   0.430731 0.041743 0.495734 -0.380054
C8    C     C_2   0.569269 0.958257 0.504266 -0.380054
C9    C     C_R   0.545373 0.794792 0.502716 0.970218
C10   C     C_R   0.465860 0.501963 0.699815 0.882919
C11   C     C_R   0.534140 0.498037 0.300185 0.882919
C12   C     C_R   0.554289 0.496605 0.189019 -0.049679
C13   C     C_R   0.445711 0.503395 0.810980 -0.049679
C14   C     C_R   0.276397 0.545474 0.967036 -0.224375
C15   C     C_R   0.723603 0.454526 0.032963 -0.224375
C16   C     C_R   0.288604 0.537966 0.859725 -0.206588
H1    H     H_    0.289129 0.554811 0.168603 0.161674
H2    H     H_    0.700116 0.009381 0.512408 0.180240
H3    H     H_    0.710871 0.445189 0.831396 0.161674
H4    H     H_    0.823155 0.439041 0.184786 0.162555
H5    H     H_    0.176845 0.560959 0.815214 0.162555
H6    H     H_    0.155055 0.573277 0.004762 0.138373
H7    H     H_    0.844945 0.426723 0.995237 0.138373
H8    H     H_    0.998464 0.615594 0.421811 0.189895
H9    H     H_    0.001536 0.384406 0.578189 0.189895
H10   H     H_    0.299884 0.990619 0.487592 0.180240
N1    N     N_2   0.054030 0.541640 0.471970 -0.177108
N2    N     N_2   0.945970 0.458360 0.528030 -0.177108
O1    O     O_R   0.609680 0.261530 0.506880 -0.612238
O2    O     O_R   0.390320 0.738470 0.493120 -0.612238
O3    O     O_R   0.323330 0.288220 0.488910 -0.629414
O4    O     O_R   0.676670 0.711780 0.511090 -0.629413
O5    O     O_R   0.619510 0.488830 0.661140 -0.625205
O6    O     O_R   0.380490 0.511170 0.338860 -0.625205
O7    O     O_R   0.333160 0.515520 0.643180 -0.632834
O8    O     O_R   0.666840 0.484480 0.356820 -0.632834
Zn1   Zn    Zn3+2 0.691200 0.482180 0.511990 0.939515
Zn2   Zn    Zn3+2 0.308800 0.517820 0.488010 0.939515

loop_
_geom_bond_atom_site_label_1
_geom_bond_atom_site_label_2
_ccdc_geom_bond_type
C11   C12   S    
O3    Zn2   S    
C3    H3    S    
C16   H5    S    
C4    C12   A    
C3    C13   A    
H8    N1    S    
C2    C12   A    
C14   H6    S    
C1    O1    A    
C7    C8    D    
C1    C7    S    
O4    Zn1   S    
H9    N2    S    
C2    C15   A    
C10   O7    A    
C7    H10   S    
N2    Zn1   S    
C4    H1    S    
C9    O2    A    
C15   H7    S    
C11   O8    A    
O5    Zn1   S    
C10   O5    A    
C5    C6    A    
C14   C16   A    
C5    C15   A    
C6    C14   A    
N1    Zn2   S    
C2    H4    S    
C1    O3    A    
O7    Zn2   S    
O2    Zn2   S    
C4    C6    A    
C13   C16   A    
O1    Zn1   S    
N1    N2    D    
O8    Zn1   S    
C9    O4    A    
O6    Zn2   S    
C11   O6    A    
C8    H2    S    
C8    C9    S    
C3    C5    A    
C10   C13   S    
