data_mof_unit_7855.cif
_audit_creation_date              2012-12-10T18:43:42-0500
_audit_creation_method            fapswitch 2.2
_symmetry_space_group_name_H-M    P1
_symmetry_Int_Tables_number       1
_space_group_crystal_system       triclinic
_cell_length_a                    10.878135
_cell_length_b                    10.602076
_cell_length_c                    9.972539
_cell_angle_alpha                 89.464139
_cell_angle_beta                  104.291937
_cell_angle_gamma                 91.408751
_cell_volume                      1114.20145423

loop_
_atom_site_label
_atom_site_type_symbol
_atom_type_description
_atom_site_fract_x
_atom_site_fract_y
_atom_site_fract_z
_atom_type_partial_charge
Br1   Br    Br    0.690858 0.695893 0.885166 -0.480222
Br2   Br    Br    0.309142 0.304107 0.114833 -0.480222
C1    C     C_R   0.499642 0.260851 0.500351 0.961927
C2    C     C_2   0.875847 0.505337 0.591929 -0.344369
C3    C     C_2   0.063427 0.526764 0.503618 0.081945
C4    C     C_2   0.936573 0.473237 0.496382 0.081944
C5    C     C_R   0.607545 0.068604 0.481468 0.026707
C6    C     C_R   0.392455 0.931396 0.518532 0.026706
C7    C     C_R   0.607589 0.937639 0.480554 0.021958
C8    C     C_R   0.392411 0.062361 0.519448 0.021958
C9    C     C_R   0.499891 0.871712 0.498734 -0.040277
C10   C     C_R   0.500108 0.128287 0.501265 -0.040277
C11   C     C_R   0.500358 0.739149 0.499649 0.961927
C12   C     C_R   0.260070 0.502987 0.441641 0.979447
C13   C     C_R   0.739930 0.497013 0.558359 0.979448
C14   C     C_R   0.575545 0.583571 0.089656 0.040395
C15   C     C_R   0.424456 0.416428 0.910344 0.040393
C16   C     C_R   0.576692 0.581815 0.947602 0.329573
C17   C     C_R   0.423309 0.418185 0.052398 0.329575
C18   C     C_2   0.124153 0.494663 0.408071 -0.344369
H1    H     H_    0.921931 0.555868 0.685608 0.142428
H2    H     H_    0.284988 0.361873 0.742187 0.233380
H3    H     H_    0.794504 0.118401 0.543179 0.185270
H4    H     H_    0.732962 0.120225 0.369099 0.201491
H5    H     H_    0.205496 0.881599 0.456827 0.185270
H6    H     H_    0.267042 0.879772 0.630906 0.201490
H7    H     H_    0.737024 0.897639 0.371952 0.189892
H8    H     H_    0.793826 0.895063 0.546515 0.194365
H9    H     H_    0.262981 0.102356 0.628055 0.189891
H10   H     H_    0.206174 0.104939 0.453494 0.194363
H11   H     H_    0.078069 0.444133 0.314391 0.142428
H12   H     H_    0.935099 0.308862 0.391448 0.179779
H13   H     H_    0.865665 0.432111 0.291938 0.200039
H14   H     H_    0.064901 0.691138 0.608552 0.179778
H15   H     H_    0.134335 0.567889 0.708062 0.200039
H16   H     H_    0.593050 0.742149 0.205317 0.231889
H17   H     H_    0.715015 0.638126 0.257813 0.233378
H18   H     H_    0.406952 0.257851 0.794686 0.231889
N1    N     N_R   0.499970 0.499970 0.857200 -0.152489
N2    N     N_3   0.283621 0.129558 0.534878 -0.474041
N3    N     N_R   0.500030 0.500030 0.142800 -0.152489
N4    N     N_3   0.876988 0.386592 0.387526 -0.418608
N5    N     N_3   0.123012 0.613409 0.612474 -0.418609
N6    N     N_3   0.651821 0.678618 0.174010 -0.415886
N7    N     N_3   0.348180 0.321381 0.825991 -0.415887
N8    N     N_3   0.715440 0.142154 0.464540 -0.451063
N9    N     N_3   0.284561 0.857845 0.535463 -0.451062
N10   N     N_3   0.716381 0.870443 0.465130 -0.474044
O1    O     O_R   0.499990 0.316750 0.614620 -0.647443
O2    O     O_R   0.500010 0.683250 0.385380 -0.647443
O3    O     O_R   0.499990 0.316780 0.385290 -0.566929
O4    O     O_R   0.500010 0.683220 0.614710 -0.566928
O5    O     O_R   0.317810 0.500000 0.571850 -0.613715
O6    O     O_R   0.682190 0.500000 0.428150 -0.613715
O7    O     O_R   0.317810 0.500030 0.342520 -0.585168
O8    O     O_R   0.682190 0.499970 0.657480 -0.585168
Zn1   Zn    Zn3+2 0.500000 0.499980 0.653120 0.989731
Zn2   Zn    Zn3+2 0.500000 0.500020 0.346880 0.989731

loop_
_geom_bond_atom_site_label_1
_geom_bond_atom_site_label_2
_ccdc_geom_bond_type
H7    N10   S    
C16   N1    A    
C13   O6    A    
C11   O4    A    
H15   N5    S    
H5    N9    S    
H4    N8    S    
C13   O8    A    
C12   O5    A    
H17   N6    S    
C12   O7    A    
C1    O1    A    
C6    N9    S    
H10   N2    S    
H3    N8    S    
O5    Zn1   S    
C2    H1    S    
C7    C9    A    
Br1   C16   S    
C3    C4    S    
C8    C10   A    
H6    N9    S    
C2    C13   S    
C6    C9    A    
H13   N4    S    
H9    N2    S    
C8    N2    S    
C15   N1    A    
C15   C17   A    
C15   N7    S    
N3    Zn2   S    
C5    C7    A    
C3    N5    S    
C5    C10   A    
H16   N6    S    
C2    C4    D    
O4    Zn1   S    
C1    O3    A    
C11   O2    A    
O2    Zn2   S    
C5    N8    S    
C12   C18   S    
C9    C11   S    
H2    N7    S    
O1    Zn1   S    
O8    Zn1   S    
C7    N10   S    
C6    C8    A    
O6    Zn2   S    
O7    Zn2   S    
O3    Zn2   S    
C3    C18   D    
C14   N6    S    
H8    N10   S    
H18   N7    S    
H12   N4    S    
C1    C10   S    
Br2   C17   S    
C4    N4    S    
C14   N3    A    
C14   C16   A    
H14   N5    S    
C17   N3    A    
C18   H11   S    
N1    Zn1   S    
