data_mof_unit_59009.cif
_audit_creation_date              2012-12-10T17:59:49-0500
_audit_creation_method            fapswitch 2.2
_symmetry_space_group_name_H-M    P1
_symmetry_Int_Tables_number       1
_space_group_crystal_system       triclinic
_cell_length_a                    10.781611
_cell_length_b                    9.547303
_cell_length_c                    15.880384
_cell_angle_alpha                 89.692299
_cell_angle_beta                  89.846974
_cell_angle_gamma                 89.36981
_cell_volume                      1634.52418083

loop_
_atom_site_label
_atom_site_type_symbol
_atom_type_description
_atom_site_fract_x
_atom_site_fract_y
_atom_site_fract_z
_atom_type_partial_charge
C1    C     C_R   0.262462 0.500761 0.500173 0.830711
C2    C     C_3   0.612989 0.423392 0.951426 -0.396984
C3    C     C_3   0.614056 0.423310 0.049229 -0.570539
C4    C     C_1   0.495591 0.498214 0.825049 -0.060047
C5    C     C_1   0.499091 0.500250 0.175341 -0.041124
C6    C     C_1   0.500539 0.500903 0.250794 -0.202217
C7    C     C_R   0.066825 0.401728 0.548189 -0.283344
C8    C     C_R   0.064126 0.598237 0.450616 -0.273865
C9    C     C_R   0.937714 0.395311 0.545721 0.420958
C10   C     C_R   0.935678 0.592579 0.446572 0.400980
C11   C     C_R   0.872192 0.496217 0.497884 -0.231598
C12   C     C_R   0.129024 0.501751 0.500406 -0.143655
C13   C     C_R   0.430098 0.075652 0.443509 -0.021240
C14   C     C_R   0.429962 0.927043 0.443588 -0.013518
C15   C     C_R   0.500662 0.500324 0.340296 0.796856
C16   C     C_R   0.569957 0.924375 0.556512 -0.013316
C17   C     C_R   0.569407 0.072953 0.556791 -0.039638
C18   C     C_R   0.737837 0.499008 0.499594 0.859647
C19   C     C_R   0.499380 0.499621 0.659809 0.831111
C20   C     C_3   0.499484 0.652243 0.046937 0.339408
C21   C     C_3   0.384083 0.410623 0.049597 0.316317
C22   C     C_3   0.378594 0.423469 0.951925 -0.406893
C23   C     C_3   0.492563 0.652376 0.949095 -0.462266
C24   C     C_1   0.497262 0.498642 0.749492 -0.179774
C25   C     C_3   0.495579 0.498650 0.083322 0.163003
C26   C     C_3   0.494899 0.499177 0.917223 0.208942
Cu1   Cu    Cu3+1 0.500020 0.640660 0.500000 0.954290
Cu2   Cu    Cu3+1 0.500020 0.359340 0.500000 0.943408
H1    H     H_    0.409765 0.709230 0.924661 0.166011
H2    H     H_    0.293254 0.481071 0.931970 0.179310
H3    H     H_    0.626479 0.867606 0.601654 0.118004
H4    H     H_    0.625010 0.127705 0.602328 0.144089
H5    H     H_    0.403164 0.297175 0.062799 0.080593
H6    H     H_    0.595147 0.688730 0.060623 0.116896
H7    H     H_    0.372834 0.316884 0.924144 0.138853
H8    H     H_    0.573854 0.709204 0.922928 0.150983
H9    H     H_    0.699076 0.475987 0.071755 0.191376
H10   H     H_    0.619487 0.313550 0.073100 0.190549
H11   H     H_    0.697570 0.476337 0.927392 0.183476
H12   H     H_    0.616156 0.313432 0.928513 0.182781
H13   H     H_    0.119194 0.330641 0.588194 0.154701
H14   H     H_    0.113206 0.674558 0.412727 0.157509
H15   H     H_    0.373761 0.132475 0.398267 0.120057
H16   H     H_    0.373498 0.872365 0.398449 0.117887
N1    N     N_R   0.500030 0.852070 0.500020 -0.154292
N2    N     N_R   0.500030 0.147930 0.500020 -0.162369
O1    O     O_R   0.319660 0.618740 0.500000 -0.584772
O2    O     O_R   0.319660 0.381260 0.500000 -0.586322
O3    O     O_R   0.500020 0.618840 0.379440 -0.573296
O4    O     O_R   0.500020 0.381160 0.379440 -0.588607
O5    O     O_R   0.680370 0.618830 0.500010 -0.557615
O6    O     O_R   0.680370 0.381170 0.500010 -0.564874
O7    O     O_R   0.500010 0.618730 0.620560 -0.584814
O8    O     O_R   0.500010 0.381270 0.620560 -0.573537
O9    O     O_3   0.424521 0.755063 0.088271 -0.621158
C27   C     C_3   0.295459 0.744970 0.074697 0.143251
H17   H     H_    0.252324 0.701516 0.132704 0.187266
H18   H     H_    0.269792 0.679264 0.020444 0.171678
C28   C     C_3   0.241388 0.891277 0.059281 -0.396464
H19   H     H_    0.263336 0.959488 0.113612 0.232516
H20   H     H_    0.284217 0.936936 0.001752 0.217091
C29   C     C_3   0.100870 0.886459 0.047793 -0.939160
H21   H     H_    0.076461 0.813394 0.996368 0.257579
H22   H     H_    0.064643 0.992137 0.031038 0.259899
H23   H     H_    0.055683 0.851915 0.107137 0.265280
O10   O     O_3   0.268741 0.453161 0.084938 -0.645709
C30   C     C_3   0.232731 0.369856 0.154750 0.043106
H24   H     H_    0.193175 0.441082 0.203102 0.162601
H25   H     H_    0.310738 0.312102 0.185721 0.128520
C31   C     C_3   0.133036 0.267259 0.127679 -0.341988
H26   H     H_    0.055171 0.325565 0.097462 0.229824
H27   H     H_    0.173275 0.194326 0.080566 0.213237
C32   C     C_3   0.083409 0.184166 0.202718 -0.932970
H28   H     H_    0.159369 0.122444 0.232766 0.252116
H29   H     H_    0.011017 0.110906 0.181091 0.261512
H30   H     H_    0.041461 0.256087 0.249932 0.255207
O11   O     O_3   0.873292 0.295792 0.592112 -0.605111
C33   C     C_3   0.911317 0.157666 0.570610 0.072510
H31   H     H_    0.856181 0.084462 0.609896 0.148067
H32   H     H_    0.009703 0.136717 0.587491 0.132195
C34   C     C_3   0.887677 0.123434 0.477351 -0.419196
H33   H     H_    0.788404 0.141577 0.462101 0.249306
H34   H     H_    0.944390 0.191539 0.435763 0.208781
C35   C     C_3   0.921413 0.971881 0.458307 -0.819145
H35   H     H_    0.020765 0.950858 0.472476 0.244048
H36   H     H_    0.905331 0.951804 0.390432 0.280270
H37   H     H_    0.862802 0.900560 0.496513 0.278839
O12   O     O_3   0.872483 0.683747 0.393549 -0.614197
C36   C     C_3   0.845458 0.616379 0.316663 0.086384
H38   H     H_    0.759813 0.666035 0.290934 0.178288
H39   H     H_    0.824978 0.502581 0.324301 0.100392
C37   C     C_3   0.951109 0.637201 0.253214 -0.369361
H40   H     H_    0.973856 0.750288 0.248846 0.222852
H41   H     H_    0.034865 0.579027 0.274891 0.200826
C38   C     C_3   0.915789 0.584396 0.166170 -0.949304
H42   H     H_    0.888888 0.472544 0.169683 0.258926
H43   H     H_    0.996206 0.594088 0.122787 0.271142
H44   H     H_    0.837287 0.647595 0.140570 0.252066

loop_
_geom_bond_atom_site_label_1
_geom_bond_atom_site_label_2
_ccdc_geom_bond_type
O9    C27   S    
C11   C18   S    
C21   O10   S    
C32   H28   S    
C38   H42   S    
C35   H37   S    
C34   H33   S    
C38   H44   S    
C18   O6    A    
O11   C33   S    
C16   H3    S    
C22   H7    S    
Cu2   N2    S    
C23   H1    S    
C35   H36   S    
C5    C6    T    
C4    C24   T    
C33   H32   S    
C23   C26   S    
C21   H5    S    
C20   C25   S    
C27   H17   S    
C15   O4    A    
C29   H22   S    
C6    C15   S    
Cu2   O4    S    
C2    H11   S    
C3    H10   S    
C16   C17   A    
C31   H26   S    
C36   H39   S    
C20   H6    S    
C19   O7    A    
C15   O3    A    
O10   C30   S    
C28   H19   S    
C13   C14   A    
C32   H29   S    
C1    C12   S    
C20   O9    S    
C37   H41   S    
C34   H34   S    
Cu1   O5    S    
C18   O5    A    
C14   N1    A    
C7    C12   A    
C28   H20   S    
C30   H24   S    
C3    C25   S    
C17   N2    A    
Cu2   O8    S    
C33   H31   S    
C1    O1    A    
C37   C38   S    
C30   H25   S    
C29   H21   S    
C20   C23   S    
C8    C12   A    
C10   O12   S    
C31   C32   S    
C38   H43   S    
C2    C26   S    
C9    O11   S    
C35   H35   S    
C36   C37   S    
C9    C11   A    
C5    C25   S    
C19   O8    A    
C32   H30   S    
C13   H15   S    
C34   C35   S    
C14   H16   S    
Cu1   O1    S    
C7    C9    A    
C21   C25   S    
Cu2   O2    S    
C28   C29   S    
C22   H2    S    
C29   H23   S    
C8    H14   S    
C16   N1    A    
C4    C26   S    
Cu1   O7    S    
C1    O2    A    
C27   C28   S    
C30   C31   S    
C2    C3    S    
Cu2   O6    S    
C33   C34   S    
Cu1   N1    S    
C13   N2    A    
C37   H40   S    
C27   H18   S    
C19   C24   S    
C7    H13   S    
C10   C11   A    
C2    H12   S    
O12   C36   S    
C3    H9    S    
C8    C10   A    
C23   H8    S    
C22   C26   S    
Cu1   Cu2   S    
C17   H4    S    
C31   H27   S    
C36   H38   S    
C21   C22   S    
Cu1   O3    S    
