data_mof_unit_53290.cif
_audit_creation_date              2012-12-10T17:04:29-0500
_audit_creation_method            fapswitch 2.2
_symmetry_space_group_name_H-M    P1
_symmetry_Int_Tables_number       1
_space_group_crystal_system       triclinic
_cell_length_a                    14.912073
_cell_length_b                    10.729183
_cell_length_c                    10.02925
_cell_angle_alpha                 90.202428
_cell_angle_beta                  89.138506
_cell_angle_gamma                 89.871944
_cell_volume                      1604.42783971

loop_
_atom_site_label
_atom_site_type_symbol
_atom_type_description
_atom_site_fract_x
_atom_site_fract_y
_atom_site_fract_z
_atom_type_partial_charge
C1    C     C_R   0.497630 0.262696 0.499727 1.002493
C2    C     C_R   0.189329 0.388487 0.501192 -0.322703
C3    C     C_R   0.232190 0.502955 0.504804 -0.156961
C4    C     C_R   0.327293 0.502874 0.501115 0.927087
C5    C     C_R   0.185197 0.615331 0.516986 0.430620
C6    C     C_2   0.502501 0.932690 0.387227 -0.167489
C7    C     C_2   0.513016 0.868730 0.499845 -0.329388
C8    C     C_2   0.507017 0.066679 0.387548 -0.100393
C9    C     C_2   0.490135 0.130984 0.499248 -0.292359
C10   C     C_2   0.551891 0.571020 0.924084 -0.113770
C11   C     C_2   0.548179 0.575925 0.074210 -0.108867
C12   C     C_R   0.904436 0.604786 0.517373 0.049069
C13   C     C_R   0.502739 0.737296 0.500039 0.940563
C14   C     C_R   0.672740 0.493524 0.498824 0.979843
C15   C     C_R   0.811877 0.600520 0.516552 -0.303759
C16   C     C_R   0.768274 0.488272 0.495873 -0.197556
C17   C     C_R   0.814909 0.375009 0.476052 0.416403
C18   C     C_R   0.908643 0.376285 0.491823 -0.067584
C19   C     C_R   0.953343 0.492318 0.505333 -0.035128
C20   C     C_3   0.125035 0.118274 0.372861 0.042571
C21   C     C_3   0.051332 0.042896 0.306310 -0.782212
C22   C     C_3   0.246075 0.765409 0.649483 0.066307
C23   C     C_R   0.958999 0.265774 0.497950 -0.213640
C24   C     C_3   0.271358 0.902669 0.650966 -0.817773
C25   C     C_3   0.894153 0.855273 0.687851 0.035201
C26   C     C_3   0.827972 0.961370 0.710881 -0.696671
C27   C     C_R   0.052118 0.268146 0.496971 0.494937
C28   C     C_R   0.096474 0.383416 0.501696 0.020186
C29   C     C_R   0.047076 0.495949 0.508482 -0.040014
C30   C     C_R   0.091538 0.612250 0.517651 -0.022321
C31   C     C_R   0.041849 0.722820 0.528452 -0.308043
C32   C     C_R   0.948684 0.719368 0.533320 0.459758
H1    H     H_    0.772628 0.685162 0.529650 0.190465
H2    H     H_    0.229223 0.303854 0.496638 0.174572
H3    H     H_    0.074725 0.812354 0.536366 0.207101
H4    H     H_    0.490354 0.886790 0.292457 0.175472
H5    H     H_    0.788205 0.051810 0.355117 0.394960
H6    H     H_    0.184787 0.057120 0.382082 0.184486
H7    H     H_    0.145866 0.197214 0.307296 0.135735
H8    H     H_    0.995975 0.105331 0.275892 0.275718
H9    H     H_    0.078844 0.995878 0.215723 0.210453
H10   H     H_    0.024649 0.971284 0.375762 0.288102
H11   H     H_    0.302393 0.711077 0.691578 0.178915
H12   H     H_    0.530896 0.911800 0.593693 0.158461
H13   H     H_    0.185640 0.753675 0.715145 0.130393
H14   H     H_    0.214340 0.959838 0.615676 0.275201
H15   H     H_    0.287911 0.931998 0.753970 0.208492
H16   H     H_    0.330482 0.918890 0.584859 0.259899
H17   H     H_    0.960553 0.883968 0.726838 0.156203
H18   H     H_    0.869145 0.773139 0.745279 0.139561
H19   H     H_    0.761575 0.936262 0.669927 0.261941
H20   H     H_    0.820213 0.980027 0.819421 0.201095
H21   H     H_    0.852839 0.047045 0.661447 0.274936
H22   H     H_    0.523097 0.112442 0.293729 0.190898
H23   H     H_    0.468891 0.088089 0.592154 0.132963
H24   H     H_    0.599543 0.631590 0.873643 0.159897
H25   H     H_    0.452512 0.448750 0.898708 0.161142
H26   H     H_    0.588996 0.645482 0.123146 0.158056
H27   H     H_    0.465955 0.431132 0.102681 0.162755
H28   H     H_    0.927684 0.176059 0.507298 0.232769
N1    N     N_2   0.500970 0.501330 0.852150 -0.193695
N2    N     N_2   0.500990 0.501360 0.147810 -0.187802
O1    O     O_R   0.499990 0.319060 0.613040 -0.612283
O2    O     O_2   0.682279 0.268942 0.333053 -0.288837
O3    O     O_3   0.821505 0.131441 0.349231 -0.584625
O4    O     O_3   0.098678 0.156498 0.503005 -0.635497
O5    O     O_3   0.230718 0.727862 0.516525 -0.622529
O6    O     O_3   0.900864 0.829073 0.549896 -0.612698
O7    O     O_R   0.500010 0.319100 0.386900 -0.602605
O8    O     O_R   0.367830 0.499950 0.613080 -0.644659
O9    O     O_R   0.367860 0.499990 0.386940 -0.613045
O10   O     O_R   0.499990 0.680900 0.613100 -0.631705
O11   O     O_R   0.500010 0.680940 0.386960 -0.615994
O12   O     O_R   0.632140 0.500010 0.613060 -0.615243
O13   O     O_R   0.632170 0.500050 0.386920 -0.576210
O14   O     O_2   0.714779 0.179371 0.550816 -0.357890
S1    S     S_3+6 0.755636 0.236854 0.427807 -0.018875
Zn1   Zn    Zn3+2 0.499980 0.499970 0.650990 0.955734
Zn2   Zn    Zn3+2 0.500020 0.500030 0.349010 0.989411

loop_
_geom_bond_atom_site_label_1
_geom_bond_atom_site_label_2
_ccdc_geom_bond_type
O8    Zn1   S    
O2    S1    D    
C5    O5    S    
C11   N2    D    
C4    O8    A    
C14   O12   A    
C20   O4    S    
C28   C29   A    
C30   C31   A    
C15   C16   A    
C12   C19   A    
C18   C19   A    
C25   H18   S    
O10   Zn1   S    
C31   C32   A    
C8    C9    D    
H5    O3    S    
C9    H23   S    
C23   C27   A    
C11   H26   S    
C10   H24   S    
C32   O6    S    
C2    H2    S    
C12   C32   A    
C25   O6    S    
C1    O1    A    
O9    Zn2   S    
C23   H28   S    
O3    S1    S    
C18   C23   A    
C24   H16   S    
N2    Zn2   S    
C1    C9    S    
O14   S1    D    
C8    H22   S    
C20   H7    S    
C16   C17   A    
C6    C8    S    
C25   C26   S    
C1    O7    A    
C29   C30   A    
C26   H20   S    
C20   H6    S    
C22   H11   S    
C12   C15   A    
N1    Zn1   S    
C17   S1    S    
C17   C18   A    
O11   Zn2   S    
C7    H12   S    
C21   H9    S    
C13   O11   A    
C22   C24   S    
O7    Zn2   S    
C10   N1    D    
C3    C4    S    
C19   C29   A    
C26   H21   S    
C5    C30   A    
H27   N2    S    
C24   H15   S    
C3    C5    A    
H25   N1    S    
C6    C7    D    
C13   O10   A    
C24   H14   S    
C14   O13   A    
C2    C3    A    
C27   O4    S    
C26   H19   S    
C21   H8    S    
C31   H3    S    
C6    H4    S    
C14   C16   S    
C25   H17   S    
C22   O5    S    
C10   C11   S    
C21   H10   S    
C7    C13   S    
C22   H13   S    
C20   C21   S    
O12   Zn1   S    
C27   C28   A    
C2    C28   A    
O13   Zn2   S    
C15   H1    S    
C4    O9    A    
O1    Zn1   S    
