data_mof_unit_54848.cif
_audit_creation_date              2012-12-10T18:05:45-0500
_audit_creation_method            fapswitch 2.2
_symmetry_space_group_name_H-M    P1
_symmetry_Int_Tables_number       1
_space_group_crystal_system       triclinic
_cell_length_a                    10.900378
_cell_length_b                    10.761266
_cell_length_c                    9.608066
_cell_angle_alpha                 88.482419
_cell_angle_beta                  91.828627
_cell_angle_gamma                 92.247986
_cell_volume                      1125.24392552

loop_
_atom_site_label
_atom_site_type_symbol
_atom_type_description
_atom_site_fract_x
_atom_site_fract_y
_atom_site_fract_z
_atom_type_partial_charge
C1    C     C_R   0.503193 0.262773 0.501409 0.766185
C2    C     C_R   0.496807 0.737227 0.498590 0.766183
C3    C     C_R   0.871623 0.497630 0.506647 -0.088216
C4    C     C_R   0.128377 0.502371 0.493352 -0.088214
C5    C     C_R   0.945108 0.535251 0.622889 -0.003743
C6    C     C_R   0.054892 0.464751 0.377110 -0.003744
C7    C     C_R   0.593166 0.067339 0.427015 -0.006747
C8    C     C_R   0.406833 0.932661 0.572984 -0.006742
C9    C     C_R   0.584817 0.937949 0.423980 -0.094389
C10   C     C_R   0.415182 0.062051 0.576019 -0.094386
C11   C     C_R   0.493598 0.871192 0.496474 -0.146338
C12   C     C_R   0.506401 0.128808 0.503526 -0.146339
C13   C     C_R   0.447915 0.403183 0.076770 0.005665
C14   C     C_R   0.552085 0.596817 0.923230 0.005660
C15   C     C_R   0.447020 0.402306 0.928858 0.088218
C16   C     C_R   0.552980 0.597694 0.071142 0.088217
C17   C     C_R   0.262343 0.500174 0.497506 0.772057
C18   C     C_R   0.737657 0.499827 0.502494 0.772058
C19   C     C_R   0.160630 0.512452 0.011876 -0.141878
C20   C     C_R   0.839374 0.487555 0.988125 -0.141879
C21   C     C_R   0.142896 0.532188 0.152451 -0.108413
C22   C     C_R   0.857107 0.467816 0.847550 -0.108415
C23   C     C_R   0.103000 0.433633 0.240781 -0.003600
C24   C     C_R   0.897000 0.566370 0.759218 -0.003600
C25   C     C_R   0.085325 0.312320 0.186953 0.414984
C26   C     C_R   0.914672 0.687684 0.813043 0.414986
C27   C     C_R   0.101568 0.294882 0.045064 -0.076056
C28   C     C_R   0.898430 0.705125 0.954931 -0.076053
C29   C     C_R   0.136320 0.394805 0.957668 -0.250865
C30   C     C_R   0.863682 0.605203 0.042330 -0.250864
C31   C     C_R   0.927902 0.461104 0.386543 -0.228169
C32   C     C_R   0.072098 0.538898 0.613456 -0.228165
Cu1   Cu    Cu3+1 0.500000 0.500020 0.640660 0.940956
Cu2   Cu    Cu3+1 0.500000 0.499980 0.359340 0.940958
H1    H     H_    0.144317 0.380636 0.847533 0.151906
H2    H     H_    0.855687 0.619373 0.152465 0.151906
H3    H     H_    0.189107 0.589469 0.944205 0.160876
H4    H     H_    0.810899 0.410538 0.055798 0.160878
H5    H     H_    0.154310 0.625718 0.191162 0.155868
H6    H     H_    0.845695 0.374285 0.808842 0.155869
H7    H     H_    0.085157 0.203634 0.001782 0.191656
H8    H     H_    0.914839 0.796374 0.998211 0.191657
H9    H     H_    0.872390 0.429751 0.297856 0.163569
H10   H     H_    0.127610 0.570252 0.702144 0.163567
H11   H     H_    0.652288 0.888221 0.369245 0.177244
H12   H     H_    0.347711 0.111780 0.630754 0.177247
H13   H     H_    0.403667 0.327303 0.134660 0.179055
H14   H     H_    0.596333 0.672697 0.865340 0.179055
N1    N     N_R   0.500030 0.500030 0.852070 -0.230024
N2    N     N_R   0.499970 0.499970 0.147930 -0.230024
O1    O     O_R   0.499990 0.319660 0.618740 -0.588826
O2    O     O_R   0.500010 0.680340 0.381260 -0.588825
O3    O     O_R   0.499990 0.319630 0.381170 -0.585983
O4    O     O_R   0.500010 0.680370 0.618830 -0.585987
O5    O     O_R   0.319650 0.500020 0.618780 -0.618958
O6    O     O_R   0.680350 0.499980 0.381220 -0.618956
O7    O     O_R   0.319640 0.500000 0.381210 -0.567839
O8    O     O_R   0.680360 0.500000 0.618790 -0.567838
C33   C     C_2   0.382476 0.295797 0.861591 0.382868
H15   H     H_    0.331072 0.308416 0.764692 0.101851
O9    O     O_2   0.382059 0.192274 0.916914 -0.529860
C34   C     C_2   0.617523 0.704203 0.138409 0.382869
H16   H     H_    0.668928 0.691584 0.235308 0.101851
O10   O     O_2   0.617940 0.807726 0.083086 -0.529859
O11   O     O_3   0.048311 0.210177 0.267295 -0.697151
H17   H     H_    0.054149 0.231498 0.366933 0.329433
O12   O     O_3   0.951681 0.789827 0.732697 -0.697149
H18   H     H_    0.945843 0.768504 0.633060 0.329433
C35   C     C_2   0.695357 0.135901 0.355411 0.414309
H19   H     H_    0.713701 0.234226 0.371761 0.063291
O13   O     O_2   0.761479 0.082836 0.277727 -0.492939
C36   C     C_2   0.304642 0.864100 0.644588 0.414299
H20   H     H_    0.286308 0.765771 0.628255 0.063303
O14   O     O_2   0.238507 0.917170 0.722251 -0.492949

loop_
_geom_bond_atom_site_label_1
_geom_bond_atom_site_label_2
_ccdc_geom_bond_type
C7    C35   S    
Cu2   O7    S    
C34   O10   D    
C9    H11   S    
Cu1   O8    S    
C18   O6    A    
Cu1   O1    S    
C20   H4    S    
C29   H1    S    
C17   O5    A    
C26   C28   A    
C21   H5    S    
C13   C15   A    
C30   H2    S    
Cu2   O6    S    
C36   H20   S    
C5    C32   A    
C22   H6    S    
C28   C30   A    
Cu1   Cu2   S    
C32   H10   S    
C25   O11   S    
C33   H15   S    
C20   C30   A    
C15   N1    A    
C3    C31   A    
C9    C11   A    
C24   C26   A    
C34   H16   S    
C1    C12   S    
C2    O2    A    
C3    C18   S    
C8    C11   A    
C6    C23   S    
C10   C12   A    
C36   O14   D    
C13   H13   S    
C19   C21   A    
C20   C22   A    
C6    C31   A    
Cu1   O5    S    
C14   C16   A    
C23   C25   A    
C21   C23   A    
C35   H19   S    
C22   C24   A    
C7    C12   A    
Cu2   N2    S    
C14   N1    A    
C25   C27   A    
C2    C11   S    
Cu1   N1    S    
C4    C32   A    
C19   C29   A    
C7    C9    A    
C10   H12   S    
C13   N2    A    
C26   O12   S    
C27   C29   A    
Cu2   O3    S    
C4    C6    A    
O11   H17   S    
C2    O4    A    
C33   O9    D    
C28   H8    S    
Cu1   O4    S    
C35   O13   D    
C1    O3    A    
C5    C24   S    
C14   H14   S    
C1    O1    A    
C19   H3    S    
C17   O7    A    
C8    C36   S    
Cu2   O2    S    
C16   C34   S    
C8    C10   A    
C31   H9    S    
C18   O8    A    
O12   H18   S    
C16   N2    A    
C27   H7    S    
C3    C5    A    
C15   C33   S    
C4    C17   S    
