data_mof_unit_23899.cif
_audit_creation_date              2012-12-10T20:41:54-0500
_audit_creation_method            fapswitch 2.2
_symmetry_space_group_name_H-M    P1
_symmetry_Int_Tables_number       1
_space_group_crystal_system       triclinic
_cell_length_a                    14.99781
_cell_length_b                    15.124657
_cell_length_c                    9.892649
_cell_angle_alpha                 89.951444
_cell_angle_beta                  89.771515
_cell_angle_gamma                 90.064018
_cell_volume                      2243.99611205

loop_
_atom_site_label
_atom_site_type_symbol
_atom_type_description
_atom_site_fract_x
_atom_site_fract_y
_atom_site_fract_z
_atom_type_partial_charge
C1    C     C_R   0.379639 0.880714 0.500252 0.915815
C2    C     C_R   0.936894 0.454020 0.071523 0.104908
C3    C     C_R   0.559850 0.049204 0.071292 -0.141109
C4    C     C_R   0.067297 0.538498 0.071343 -0.124073
C5    C     C_R   0.560032 0.049011 0.927676 -0.144508
C6    C     C_R   0.067470 0.538227 0.927634 -0.145632
C7    C     C_R   0.443884 0.945496 0.930048 0.122107
C8    C     C_R   0.935863 0.455278 0.929681 0.128568
C9    C     C_3   0.343478 0.941583 0.927430 0.988486
C10   C     C_3   0.836710 0.467520 0.924421 0.977967
C11   C     C_3   0.346619 0.941283 0.083390 -0.675743
C12   C     C_R   0.380527 0.120230 0.499815 0.889130
C13   C     C_3   0.838661 0.465251 0.080522 -0.680677
C14   C     C_R   0.619682 0.120021 0.499984 0.883076
C15   C     C_R   0.618926 0.879144 0.500001 0.897339
C16   C     C_R   0.119656 0.619938 0.499867 0.900375
C17   C     C_R   0.120064 0.380418 0.499649 0.909717
C18   C     C_R   0.322553 0.258120 0.589913 0.116032
C19   C     C_R   0.307089 0.756702 0.605796 0.145691
C20   C     C_R   0.789593 0.725719 0.618978 0.071068
C21   C     C_R   0.800246 0.263704 0.613032 0.133811
C22   C     C_R   0.318388 0.189893 0.495933 -0.152414
C23   C     C_R   0.878846 0.381484 0.500463 0.915762
C24   C     C_R   0.309874 0.818606 0.502298 -0.047007
C25   C     C_R   0.805780 0.677247 0.502266 -0.044799
C26   C     C_R   0.807469 0.321027 0.503810 -0.049482
C27   C     C_R   0.258284 0.193846 0.388107 -0.228973
C28   C     C_R   0.241412 0.823105 0.406762 -0.256026
C29   C     C_R   0.749175 0.684625 0.390502 -0.261997
C30   C     C_R   0.742425 0.321910 0.402838 -0.242684
C31   C     C_R   0.684840 0.750121 0.390216 -0.200917
C32   C     C_R   0.678792 0.255574 0.401246 -0.212898
C33   C     C_R   0.193572 0.258375 0.388102 -0.210826
C34   C     C_R   0.878585 0.618314 0.500190 0.919006
C35   C     C_R   0.177045 0.757413 0.405679 -0.201182
C36   C     C_R   0.678103 0.806675 0.501951 -0.041453
C37   C     C_R   0.680733 0.190701 0.502258 -0.047880
C38   C     C_R   0.189603 0.318084 0.496017 -0.080711
C39   C     C_R   0.181879 0.689420 0.501499 -0.048890
C40   C     C_R   0.725675 0.789484 0.619409 0.000277
C41   C     C_R   0.736858 0.199321 0.612929 0.014977
C42   C     C_R   0.258040 0.321816 0.590362 0.029781
C43   C     C_R   0.242917 0.693078 0.606405 -0.013307
C44   C     C_3   0.780803 0.850595 0.703807 -0.549664
C45   C     C_3   0.327979 0.255991 0.740463 0.354935
C46   C     C_3   0.798033 0.133233 0.676349 -0.567514
C47   C     C_3   0.255960 0.326961 0.741199 -0.564899
C48   C     C_3   0.305528 0.623916 0.657533 -0.559007
C49   C     C_3   0.421171 0.270048 0.923159 -0.307531
C50   C     C_3   0.516377 0.636022 0.620008 -0.318034
C51   C     C_3   0.994338 0.836693 0.716066 -0.331779
C52   C     C_3   0.012517 0.153533 0.661097 -0.329279
C53   C     C_3   0.234492 0.055451 0.924350 -0.464467
C54   C     C_3   0.223963 0.846636 0.883503 -0.369851
C55   C     C_3   0.749755 0.598733 0.922989 -0.443375
C56   C     C_3   0.377289 0.695312 0.657554 0.366850
C57   C     C_3   0.704503 0.394721 0.868166 -0.330507
C58   C     C_3   0.852265 0.779318 0.703149 0.385755
C59   C     C_3   0.868611 0.205656 0.677613 0.373361
C60   C     C_R   0.444990 0.945034 0.071966 0.104359
H1    H     H_    0.750912 0.861373 0.805453 0.168850
H2    H     H_    0.325373 0.877556 0.129062 0.204934
H3    H     H_    0.820968 0.527204 0.134203 0.195304
H4    H     H_    0.806936 0.405087 0.122988 0.194384
H5    H     H_    0.643656 0.758924 0.301497 0.171194
H6    H     H_    0.630474 0.253368 0.320160 0.154908
H7    H     H_    0.143800 0.258150 0.308943 0.170062
H8    H     H_    0.125562 0.758309 0.329139 0.162426
H9    H     H_    0.799993 0.912013 0.648989 0.218020
H10   H     H_    0.813766 0.077071 0.607783 0.220539
H11   H     H_    0.279116 0.392360 0.778634 0.225162
H12   H     H_    0.775501 0.113821 0.779352 0.165290
H13   H     H_    0.317057 0.570005 0.583023 0.225185
H14   H     H_    0.423496 0.197620 0.942414 0.182573
H15   H     H_    0.366692 0.301026 0.983291 0.160172
H16   H     H_    0.485261 0.298662 0.957840 0.177778
H17   H     H_    0.494605 0.573362 0.669239 0.170453
H18   H     H_    0.550408 0.679595 0.694252 0.155907
H19   H     H_    0.565636 0.618764 0.540411 0.204342
H20   H     H_    0.019322 0.783201 0.783303 0.162193
H21   H     H_    0.968971 0.893330 0.776879 0.154355
H22   H     H_    0.051586 0.860756 0.654880 0.195265
H23   H     H_    0.191776 0.303518 0.785127 0.171584
H24   H     H_    0.993069 0.093088 0.718480 0.158610
H25   H     H_    0.040576 0.204316 0.730349 0.154023
H26   H     H_    0.065916 0.134752 0.588705 0.200738
H27   H     H_    0.307143 0.190950 0.782090 0.128166
H28   H     H_    0.401076 0.715394 0.759770 0.113110
H29   H     H_    0.864842 0.747538 0.803111 0.095015
H30   H     H_    0.887031 0.230186 0.780201 0.102350
H31   H     H_    0.607348 0.090084 0.124372 0.153386
H32   H     H_    0.121013 0.570832 0.124597 0.150812
H33   H     H_    0.607685 0.089696 0.873916 0.158333
H34   H     H_    0.287240 0.601164 0.760854 0.163894
H35   H     H_    0.121395 0.570217 0.873638 0.148257
H36   H     H_    0.257350 0.109064 0.992610 0.173275
H37   H     H_    0.192808 0.007995 0.982364 0.165286
H38   H     H_    0.190915 0.085635 0.846617 0.188267
H39   H     H_    0.186861 0.890223 0.813032 0.197004
H40   H     H_    0.200346 0.855274 0.989259 0.148569
H41   H     H_    0.208422 0.777363 0.855779 0.182815
H42   H     H_    0.781643 0.646261 0.993359 0.178698
H43   H     H_    0.699517 0.558456 0.978276 0.160091
H44   H     H_    0.713157 0.637593 0.846102 0.192906
H45   H     H_    0.257871 0.144297 0.308964 0.158820
H46   H     H_    0.678379 0.446528 0.799224 0.203059
H47   H     H_    0.679126 0.403954 0.972925 0.141639
H48   H     H_    0.678261 0.330382 0.832097 0.192654
H49   H     H_    0.239260 0.875281 0.331898 0.153399
H50   H     H_    0.757460 0.643337 0.301922 0.157554
H51   H     H_    0.742644 0.371418 0.324100 0.152204
H52   H     H_    0.320092 0.000647 0.135738 0.192809
N1    N     N_R   0.499140 0.000000 0.142800 -0.087466
N2    N     N_R   0.999140 0.500000 0.142800 -0.087631
N3    N     N_R   0.499160 0.000000 0.857150 -0.109517
N4    N     N_R   0.999160 0.500000 0.857150 -0.110595
O1    O     O_R   0.408400 0.908380 0.614690 -0.587301
O2    O     O_R   0.591610 0.908390 0.614650 -0.618601
O3    O     O_R   0.091610 0.591610 0.614650 -0.624053
O4    O     O_R   0.091610 0.408390 0.614650 -0.621897
O5    O     O_R   0.591590 0.091600 0.385310 -0.636529
O6    O     O_R   0.591590 0.908400 0.385310 -0.619301
O7    O     O_R   0.091590 0.591600 0.385310 -0.634788
O8    O     O_R   0.091590 0.408400 0.385310 -0.621677
O9    O     O_3   0.411596 0.287840 0.784123 -0.576849
O10   O     O_3   0.444258 0.680279 0.559274 -0.593587
O11   O     O_3   0.928583 0.804224 0.627721 -0.579740
O12   O     O_R   0.408400 0.091620 0.614690 -0.576154
O13   O     O_3   0.940052 0.188058 0.587838 -0.587671
O14   O     O_3   0.308966 0.016986 0.858801 -0.593490
O15   O     O_3   0.316676 0.860073 0.869739 -0.642267
O16   O     O_3   0.816169 0.548272 0.856886 -0.591156
O17   O     O_3   0.798384 0.391861 0.863124 -0.648293
O18   O     O_R   0.908400 0.408380 0.614690 -0.592877
O19   O     O_R   0.908400 0.591620 0.614690 -0.569752
O20   O     O_R   0.408370 0.908370 0.385350 -0.619584
O21   O     O_R   0.408370 0.091630 0.385350 -0.629029
O22   O     O_R   0.908370 0.408370 0.385350 -0.621466
O23   O     O_R   0.908370 0.591630 0.385350 -0.634545
O24   O     O_R   0.591610 0.091610 0.614650 -0.618979
Zn1   Zn    Zn3+2 0.500010 0.000000 0.653130 1.001861
Zn2   Zn    Zn3+2 0.000010 0.500000 0.653130 0.995694
Zn3   Zn    Zn3+2 0.499980 0.000000 0.346870 0.948508
Zn4   Zn    Zn3+2 0.999980 0.500000 0.346870 0.952052

loop_
_geom_bond_atom_site_label_1
_geom_bond_atom_site_label_2
_ccdc_geom_bond_type
C19   C56   S    
C21   C26   A    
N3    Zn1   S    
C15   O6    A    
C12   C22   S    
C46   C59   S    
O5    Zn3   S    
C23   O22   A    
O1    Zn1   S    
C10   O17   S    
C48   C56   S    
O2    Zn1   S    
C54   H40   S    
C50   H19   S    
C9    O14   S    
C27   C33   A    
C54   O15   S    
C55   H42   S    
C48   H34   S    
C52   O13   S    
C34   O19   A    
C4    N2    A    
C52   H25   S    
C45   H27   S    
C16   O7    A    
C21   C59   S    
O20   Zn3   S    
C18   C42   A    
C20   C40   A    
C56   H28   S    
C20   C25   A    
C27   H45   S    
C55   H43   S    
C34   O23   A    
C3    H31   S    
C23   C26   S    
C7    N3    A    
C52   H24   S    
C2    C13   S    
C51   H20   S    
C54   H41   S    
C17   O4    A    
O19   Zn2   S    
C28   C35   A    
C44   C58   S    
O7    Zn4   S    
C41   C46   S    
C49   H15   S    
C50   O10   S    
C47   H23   S    
C1    O20   A    
O12   Zn1   S    
C51   H21   S    
C46   H12   S    
C25   C34   S    
C17   C38   S    
C11   H2    S    
C45   C47   S    
C57   H46   S    
O21   Zn3   S    
C58   O11   S    
C49   H14   S    
C14   O5    A    
C5    N3    A    
C53   H36   S    
C57   O17   S    
C60   N1    A    
O6    Zn3   S    
C50   H18   S    
C19   C43   A    
C9    O15   S    
C25   C29   A    
C44   H1    S    
C29   H50   S    
C36   C40   A    
O4    Zn2   S    
O24   Zn1   S    
C4    C6    A    
C3    N1    A    
C16   O3    A    
C45   O9    S    
C39   C43   A    
C53   H37   S    
C15   C36   S    
C55   H44   S    
N1    Zn3   S    
C59   H30   S    
N2    Zn4   S    
C35   C39   A    
O18   Zn2   S    
O23   Zn4   S    
C17   O8    A    
C13   H3    S    
C6    N4    A    
C49   H16   S    
C44   H9    S    
C6    H35   S    
C1    O1    A    
C32   C37   A    
C9    C11   S    
C51   H22   S    
C47   H11   S    
N4    Zn2   S    
C57   H47   S    
C14   O24   A    
C26   C30   A    
C56   O10   S    
C22   C27   A    
C28   H49   S    
C21   C41   A    
C54   H39   S    
C20   C58   S    
C11   C60   S    
C18   C45   S    
C7    C60   A    
C33   H7    S    
C32   H6    S    
C43   C48   S    
C31   H5    S    
C59   O13   S    
C23   O18   A    
C11   H52   S    
C18   C22   A    
C48   H13   S    
C12   O21   A    
C2    C8    A    
C24   C28   A    
C3    C5    A    
C10   C13   S    
C5    H33   S    
C38   C42   A    
C12   O12   A    
C53   H38   S    
C49   O9    S    
C33   C38   A    
C15   O2    A    
C30   H51   S    
C51   O11   S    
C52   H26   S    
C19   C24   A    
C29   C31   A    
O22   Zn4   S    
C14   C37   S    
C30   C32   A    
C2    N2    A    
C13   H4    S    
C35   H8    S    
C42   C47   S    
C37   C41   A    
C58   H29   S    
C10   O16   S    
C46   H10   S    
C8    N4    A    
C16   C39   S    
C7    C9    S    
C40   C44   S    
C57   H48   S    
C1    C24   S    
C8    C10   S    
C55   O16   S    
C50   H17   S    
O3    Zn2   S    
C31   C36   A    
O8    Zn4   S    
C53   O14   S    
C4    H32   S    
