data_mof_unit_17926.cif
_audit_creation_date              2012-12-10T16:57:42-0500
_audit_creation_method            fapswitch 2.2
_symmetry_space_group_name_H-M    P1
_symmetry_Int_Tables_number       1
_space_group_crystal_system       triclinic
_cell_length_a                    7.914161
_cell_length_b                    8.560197
_cell_length_c                    19.21261
_cell_angle_alpha                 93.636482
_cell_angle_beta                  84.262633
_cell_angle_gamma                 93.579174
_cell_volume                      1290.40126489

loop_
_atom_site_label
_atom_site_type_symbol
_atom_type_description
_atom_site_fract_x
_atom_site_fract_y
_atom_site_fract_z
_atom_type_partial_charge
C1    C     C_R   0.545101 0.794109 0.498362 0.942176
C2    C     C_R   0.635706 0.584197 0.178569 -0.151456
C3    C     C_R   0.497103 0.497188 0.853993 -0.015327
C4    C     C_R   0.502888 0.502841 0.146008 -0.015327
C5    C     C_R   0.630323 0.573970 0.813552 -0.141101
C6    C     C_R   0.369671 0.426054 0.186447 -0.141099
C7    C     C_R   0.630096 0.570661 0.741492 -0.230392
C8    C     C_R   0.369902 0.429352 0.258508 -0.230392
C9    C     C_R   0.497418 0.490106 0.708893 -0.138869
C10   C     C_R   0.502582 0.509901 0.291107 -0.138868
C11   C     C_R   0.501793 0.500709 0.070131 0.319922
C12   C     C_R   0.454899 0.205891 0.501638 0.942178
C13   C     C_R   0.498195 0.499329 0.929870 0.319922
C14   C     C_3   0.012301 0.315617 0.445018 -0.149963
C15   C     C_3   0.928241 0.275142 0.377628 -0.848757
C16   C     C_3   0.987699 0.684383 0.554982 -0.149963
C17   C     C_3   0.071760 0.724858 0.622372 -0.848758
C18   C     C_2   0.568648 0.957761 0.497241 -0.377725
C19   C     C_2   0.431352 0.042239 0.502759 -0.377726
C20   C     C_R   0.498982 0.496856 0.633754 0.840100
C21   C     C_R   0.501018 0.503144 0.366246 0.840101
C22   C     C_R   0.364637 0.408258 0.749026 0.434993
C23   C     C_R   0.635361 0.591754 0.250975 0.434992
C24   C     C_R   0.364288 0.415827 0.821433 -0.151455
H1    H     H_    0.261654 0.353985 0.851919 0.178107
H2    H     H_    0.723132 0.719064 0.328225 0.338645
H3    H     H_    0.794017 0.232887 0.388300 0.287495
H4    H     H_    0.937549 0.378345 0.344906 0.279882
H5    H     H_    0.995174 0.178946 0.347056 0.216405
H6    H     H_    0.146302 0.329348 0.426942 0.229723
H7    H     H_    0.989675 0.216700 0.480152 0.165067
H8    H     H_    0.062451 0.621655 0.655094 0.279883
H9    H     H_    0.205983 0.767113 0.611700 0.287495
H10   H     H_    0.004826 0.821054 0.652944 0.216404
H11   H     H_    0.010325 0.783300 0.519848 0.165068
H12   H     H_    0.738338 0.646043 0.148084 0.178106
H13   H     H_    0.853698 0.670652 0.573058 0.229722
H14   H     H_    0.734389 0.637503 0.837439 0.169058
H15   H     H_    0.265603 0.362525 0.162561 0.169058
H16   H     H_    0.732356 0.633491 0.711205 0.166086
H17   H     H_    0.267642 0.366518 0.288794 0.166086
H18   H     H_    0.698603 0.008145 0.491824 0.177674
H19   H     H_    0.301397 0.991855 0.508176 0.177674
H20   H     H_    0.276870 0.280938 0.671778 0.338644
N1    N     N_R   0.628838 0.573197 0.961582 -0.168179
N2    N     N_R   0.371149 0.426842 0.038420 -0.168180
N3    N     N_R   0.630549 0.573952 0.030538 -0.172635
N4    N     N_R   0.369438 0.426087 0.969463 -0.172636
N5    N     N_2   0.950330 0.457950 0.481240 -0.023938
N6    N     N_2   0.049670 0.542050 0.518760 -0.023938
O1    O     O_R   0.389250 0.738570 0.504600 -0.610020
O2    O     O_3   0.763771 0.682711 0.279880 -0.763378
O3    O     O_R   0.610750 0.261430 0.495400 -0.610020
O4    O     O_R   0.678400 0.711620 0.492580 -0.661023
O5    O     O_R   0.321600 0.288380 0.507420 -0.661022
O6    O     O_R   0.355380 0.513500 0.607880 -0.602476
O7    O     O_R   0.644620 0.486500 0.392120 -0.602477
O8    O     O_R   0.644530 0.486550 0.595850 -0.631149
O9    O     O_R   0.355470 0.513450 0.404150 -0.631150
O10   O     O_3   0.236229 0.317297 0.720122 -0.763378
Zn1   Zn    Zn3+2 0.306930 0.517990 0.508030 0.941055
Zn2   Zn    Zn3+2 0.693070 0.482010 0.491970 0.941054

loop_
_geom_bond_atom_site_label_1
_geom_bond_atom_site_label_2
_ccdc_geom_bond_type
O8    Zn2   S    
C13   N4    A    
C2    C4    A    
C7    H16   S    
C21   O9    A    
H2    O2    S    
C10   C23   A    
O3    Zn2   S    
C14   H7    S    
C9    C20   S    
C11   N3    A    
C12   O3    A    
O1    Zn1   S    
C20   O6    A    
C16   H13   S    
C1    O4    A    
C6    H15   S    
N1    N3    A    
C15   H4    S    
O7    Zn2   S    
C16   H11   S    
C5    H14   S    
C8    H17   S    
C4    C11   S    
C13   N1    A    
C1    O1    A    
C1    C18   S    
C17   H9    S    
C14   H6    S    
O5    Zn1   S    
C12   C19   S    
C4    C6    A    
C3    C24   A    
H20   O10   S    
C15   H5    S    
N2    N4    A    
C18   H18   S    
C10   C21   S    
C22   O10   S    
C16   N6    S    
C22   C24   A    
C9    C22   A    
O9    Zn1   S    
C12   O5    A    
C23   O2    S    
C17   H10   S    
C20   O8    A    
C14   N5    S    
C21   O7    A    
C7    C9    A    
C24   H1    S    
C8    C10   A    
N5    N6    D    
C2    H12   S    
C2    C23   A    
C5    C7    A    
N6    Zn1   S    
O6    Zn1   S    
C18   C19   D    
C11   N2    A    
C6    C8    A    
N5    Zn2   S    
O4    Zn2   S    
C14   C15   S    
C15   H3    S    
C17   H8    S    
C19   H19   S    
C16   C17   S    
C3    C5    A    
C3    C13   S    
