data_mof_unit_54476.cif
_audit_creation_date              2012-12-10T17:18:54-0500
_audit_creation_method            fapswitch 2.2
_symmetry_space_group_name_H-M    P1
_symmetry_Int_Tables_number       1
_space_group_crystal_system       triclinic
_cell_length_a                    10.168581
_cell_length_b                    10.69869
_cell_length_c                    13.583952
_cell_angle_alpha                 90.886009
_cell_angle_beta                  100.129758
_cell_angle_gamma                 98.015692
_cell_volume                      1439.34296913

loop_
_atom_site_label
_atom_site_type_symbol
_atom_type_description
_atom_site_fract_x
_atom_site_fract_y
_atom_site_fract_z
_atom_type_partial_charge
C1    C     C_R   0.056500 0.733726 0.493602 0.932785
C2    C     C_2   0.975278 0.054613 0.473397 0.048466
C3    C     C_2   0.431875 0.511762 0.508458 -0.112463
C4    C     C_2   0.568129 0.487940 0.491855 -0.109374
C5    C     C_R   0.094818 0.515902 0.685766 0.885177
C6    C     C_R   0.906849 0.489089 0.314099 0.885352
C7    C     C_R   0.153463 0.546213 0.790837 -0.059396
C8    C     C_R   0.861639 0.497237 0.206641 -0.055431
C9    C     C_R   0.157562 0.651973 0.950268 -0.180422
C10   C     C_R   0.887162 0.468309 0.034606 -0.197049
C11   C     C_R   0.088270 0.609105 0.855046 -0.183325
C12   C     C_R   0.943492 0.266259 0.506381 0.937719
C13   C     C_R   0.936858 0.462010 0.136489 -0.161291
C14   C     C_R   0.286566 0.526553 0.822278 -0.243182
C15   C     C_R   0.740875 0.544431 0.174780 -0.245555
C16   C     C_R   0.361216 0.578369 0.913014 0.098921
C17   C     C_R   0.690006 0.553519 0.073363 0.100032
C18   C     C_R   0.293649 0.636470 0.979882 0.156681
C19   C     C_R   0.762756 0.510808 0.002536 0.162387
C20   C     C_R   0.499875 0.567969 0.940261 0.070917
C21   C     C_R   0.562712 0.593137 0.041114 0.064818
C22   C     C_2   0.795666 0.084384 0.571327 1.011726
C23   C     C_R   0.494712 0.654044 0.106335 -0.208135
C24   C     C_2   0.203822 0.915287 0.428000 1.010219
C25   C     C_R   0.577495 0.533058 0.870059 -0.199122
C26   C     C_R   0.362865 0.677378 0.075198 -0.203125
C27   C     C_R   0.708098 0.507092 0.900959 -0.209853
C28   C     C_2   0.094418 0.868768 0.484417 -0.356425
C29   C     C_2   0.905516 0.131150 0.515387 -0.360212
C30   C     C_2   0.024788 0.945402 0.526451 0.050906
H1    H     H_    0.313725 0.724083 0.126917 0.182425
H2    H     H_    0.540117 0.527351 0.790388 0.148665
H3    H     H_    0.575520 0.413545 0.438733 0.175004
H4    H     H_    0.424487 0.585957 0.561767 0.170278
H5    H     H_    0.667042 0.623737 0.588983 0.191017
H6    H     H_    0.332975 0.376341 0.410962 0.195236
H7    H     H_    0.735263 0.922170 0.486250 0.321953
H8    H     H_    0.264985 0.077492 0.512958 0.324495
H9    H     H_    0.763759 0.478116 0.845516 0.161565
H10   H     H_    0.683826 0.567888 0.230428 0.162286
H11   H     H_    0.331071 0.469629 0.774543 0.163615
H12   H     H_    0.031815 0.426868 0.160191 0.175400
H13   H     H_    0.985393 0.626738 0.831297 0.173695
H14   H     H_    0.105561 0.698463 0.000121 0.164057
H15   H     H_    0.943739 0.436256 0.980992 0.160265
H16   H     H_    0.542533 0.687828 0.181098 0.163461
I1    I     I_    0.989931 0.087862 0.319320 -0.316673
I2    I     I_    0.009651 0.911968 0.680450 -0.315468
N1    N     N_2   0.322180 0.446120 0.460900 -0.181116
N2    N     N_2   0.677820 0.553880 0.539100 -0.185617
O1    O     O_R   0.935190 0.693030 0.507870 -0.575503
O2    O     O_R   0.715048 0.967156 0.546822 -0.734239
O3    O     O_2   0.225814 0.849267 0.360280 -0.567408
O4    O     O_R   0.284731 0.032411 0.452258 -0.733392
O5    O     O_R   0.064810 0.306970 0.492130 -0.572606
O6    O     O_R   0.142080 0.658430 0.482770 -0.587915
O7    O     O_R   0.857920 0.341570 0.517230 -0.586717
O8    O     O_R   0.969700 0.527180 0.651960 -0.599328
O9    O     O_R   0.030300 0.472820 0.348040 -0.595032
O10   O     O_R   0.176600 0.492580 0.626860 -0.619250
O11   O     O_R   0.823400 0.507420 0.373140 -0.621296
O12   O     O_2   0.773042 0.150290 0.638866 -0.554950
Zn1   Zn    Zn3+2 0.861850 0.523100 0.516760 0.987608
Zn2   Zn    Zn3+2 0.138150 0.476900 0.483240 0.993740

loop_
_geom_bond_atom_site_label_1
_geom_bond_atom_site_label_2
_ccdc_geom_bond_type
C1    C28   S    
O6    Zn2   S    
C11   H13   S    
C8    C13   A    
C22   C29   S    
C2    I1    S    
C25   C27   A    
C19   C27   A    
H8    O4    S    
C16   C20   A    
C10   C19   A    
O10   Zn2   S    
O5    Zn2   S    
C25   H2    S    
C28   C30   D    
C3    N1    D    
C26   H1    S    
N1    Zn2   S    
C7    C11   A    
N2    Zn1   S    
C9    C11   A    
O9    Zn2   S    
C3    H4    S    
C5    O8    A    
H5    N2    S    
C14   H11   S    
C12   O7    A    
C6    O11   A    
C30   I2    S    
C13   H12   S    
C17   C19   A    
C1    O6    A    
O7    Zn1   S    
C8    C15   A    
C5    C7    S    
C2    C29   D    
C21   C23   A    
C12   C29   S    
C14   C16   A    
C15   H10   S    
C23   C26   A    
C12   O5    A    
C22   O12   D    
C2    C30   S    
C24   O4    S    
C3    C4    S    
C9    C18   A    
O1    Zn1   S    
C20   C21   A    
C16   C18   A    
C20   C25   A    
C10   H15   S    
C4    N2    D    
O8    Zn1   S    
C23   H16   S    
H7    O2    S    
C4    H3    S    
C9    H14   S    
C6    C8    S    
C1    O1    A    
C5    O10   A    
C22   O2    S    
C24   O3    D    
C15   C17   A    
C6    O9    A    
C7    C14   A    
C17   C21   A    
H6    N1    S    
C24   C28   S    
C27   H9    S    
O11   Zn1   S    
C10   C13   A    
C18   C26   A    
