data_mof_unit_9437.cif
_audit_creation_date              2012-12-10T20:47:43-0500
_audit_creation_method            fapswitch 2.2
_symmetry_space_group_name_H-M    P1
_symmetry_Int_Tables_number       1
_space_group_crystal_system       triclinic
_cell_length_a                    15.018214
_cell_length_b                    8.920961
_cell_length_c                    8.119925
_cell_angle_alpha                 90.033818
_cell_angle_beta                  90.00555
_cell_angle_gamma                 89.999535
_cell_volume                      1087.88219633

loop_
_atom_site_label
_atom_site_type_symbol
_atom_type_description
_atom_site_fract_x
_atom_site_fract_y
_atom_site_fract_z
_atom_type_partial_charge
C1    C     C_R   0.499996 0.218067 0.499958 0.904036
C2    C     C_R   0.231990 0.499996 0.499969 -0.062327
C3    C     C_R   0.906309 0.363672 0.523910 0.112276
C4    C     C_R   0.093691 0.636328 0.476089 0.112276
C5    C     C_R   0.906307 0.636329 0.476136 0.112297
C6    C     C_R   0.093693 0.363671 0.523864 0.112297
C7    C     C_R   0.953031 0.500000 0.500010 -0.006233
C8    C     C_R   0.046969 0.500000 0.499990 -0.006233
C9    C     C_R   0.954146 0.230614 0.549682 -0.204860
C10   C     C_R   0.045854 0.769386 0.450318 -0.204860
C11   C     C_R   0.954141 0.769388 0.450348 -0.204860
C12   C     C_R   0.500004 0.781933 0.500042 0.904036
C13   C     C_R   0.045859 0.230612 0.549652 -0.204860
C14   C     C_1   0.499998 0.065224 0.499945 -0.180421
C15   C     C_1   0.500002 0.934776 0.500055 -0.180421
C16   C     C_3   0.762237 0.784387 0.461259 -0.900258
C17   C     C_3   0.237763 0.215613 0.538741 -0.900258
C18   C     C_3   0.762237 0.215610 0.538885 -0.900202
C19   C     C_3   0.237763 0.784390 0.461115 -0.900202
C20   C     C_R   0.326963 0.499994 0.499991 0.912146
C21   C     C_R   0.673037 0.500006 0.500009 0.912146
C22   C     C_R   0.812948 0.637150 0.478836 0.084733
C23   C     C_R   0.187052 0.362850 0.521164 0.084733
C24   C     C_R   0.812949 0.362853 0.521242 0.084754
C25   C     C_R   0.187051 0.637147 0.478758 0.084754
C26   C     C_R   0.768010 0.500004 0.500031 -0.062327
H1    H     H_    0.921748 0.124199 0.570930 0.154576
H2    H     H_    0.217040 0.137134 0.439720 0.236659
H3    H     H_    0.689124 0.226186 0.529012 0.235804
H4    H     H_    0.782935 0.137104 0.439875 0.236641
H5    H     H_    0.776383 0.165101 0.661050 0.242447
H6    H     H_    0.310876 0.773814 0.470988 0.235804
H7    H     H_    0.223617 0.834898 0.338950 0.242447
H8    H     H_    0.217065 0.862896 0.560125 0.236641
H9    H     H_    0.078252 0.875801 0.429070 0.154576
H10   H     H_    0.921741 0.875806 0.429131 0.154576
H11   H     H_    0.078259 0.124194 0.570868 0.154576
H12   H     H_    0.689127 0.773802 0.471167 0.235784
H13   H     H_    0.782960 0.862866 0.560280 0.236659
H14   H     H_    0.776354 0.834923 0.339109 0.242454
H15   H     H_    0.310873 0.226198 0.528833 0.235784
H16   H     H_    0.223645 0.165077 0.660891 0.242454
N1    N     N_1   0.500000 0.500000 0.073640 -0.026975
N2    N     N_1   0.500000 0.500000 0.926360 -0.026975
O1    O     O_R   0.500000 0.285350 0.636850 -0.616430
O2    O     O_R   0.500000 0.714650 0.363150 -0.616430
O3    O     O_R   0.500000 0.714650 0.636850 -0.613763
O4    O     O_R   0.500000 0.285350 0.363150 -0.613763
O5    O     O_R   0.367850 0.500000 0.636890 -0.615549
O6    O     O_R   0.632150 0.500000 0.363110 -0.615549
O7    O     O_R   0.632150 0.500000 0.636890 -0.615568
O8    O     O_R   0.367850 0.500000 0.363110 -0.615568
Zn1   Zn    Zn3+2 0.500000 0.500000 0.682780 0.998263
Zn2   Zn    Zn3+2 0.500000 0.500000 0.317220 0.998263

loop_
_geom_bond_atom_site_label_1
_geom_bond_atom_site_label_2
_ccdc_geom_bond_type
C16   C22   S    
N1    N2    T    
C1    O4    A    
C20   O5    A    
C3    C9    A    
C1    C14   S    
N1    Zn2   S    
C13   H11   S    
C12   C15   S    
C4    C8    A    
O3    Zn1   S    
O2    Zn2   S    
C4    C25   A    
O1    Zn1   S    
C7    C8    A    
C20   O8    A    
C18   H3    S    
C17   C23   S    
C6    C13   A    
O4    Zn2   S    
C1    O1    A    
C3    C24   A    
O6    Zn2   S    
C16   H14   S    
C12   O3    A    
O5    Zn1   S    
C6    C23   A    
C11   H10   S    
C21   C26   S    
C24   C26   A    
O8    Zn2   S    
C5    C11   A    
C2    C25   A    
C3    C7    A    
C19   H7    S    
C18   H4    S    
C19   C25   S    
C10   H9    S    
C18   C24   S    
C17   H15   S    
C10   C11   A    
C19   H6    S    
C16   H13   S    
C2    C20   S    
C21   O7    A    
C9    H1    S    
C12   O2    A    
C22   C26   A    
C2    C23   A    
C5    C7    A    
C9    C13   A    
C14   C15   T    
C21   O6    A    
C6    C8    A    
C18   H5    S    
C17   H16   S    
C17   H2    S    
C4    C10   A    
N2    Zn1   S    
C5    C22   A    
C16   H12   S    
O7    Zn1   S    
C19   H8    S    
