data_mof_unit_50810.cif
_audit_creation_date              2013-03-05T16:05:30-0500
_audit_creation_method            fapswitch 2.2
_symmetry_space_group_name_H-M    P1
_symmetry_Int_Tables_number       1
_space_group_crystal_system       triclinic
_cell_length_a                    10.824572
_cell_length_b                    9.664461
_cell_length_c                    10.725791
_cell_angle_alpha                 88.638663
_cell_angle_beta                  95.618926
_cell_angle_gamma                 89.922296
_cell_volume                      1116.34996674

loop_
_atom_site_label
_atom_site_type_symbol
_atom_site_description
_atom_site_fract_x
_atom_site_fract_y
_atom_site_fract_z
_atom_type_partial_charge
O1    O     O_R   0.319640 0.618740 0.499990 -0.608516
O2    O     O_R   0.680360 0.381260 0.500010 -0.608421
O3    O     O_R   0.680360 0.618740 0.500010 -0.587251
O4    O     O_R   0.319640 0.381260 0.499990 -0.587185
C1    C     C_R   0.871627 0.501208 0.502023 -0.093934
C2    C     C_R   0.128370 0.498807 0.498019 -0.093928
C3    C     C_R   0.262822 0.499926 0.498561 0.836413
C4    C     C_R   0.737177 0.500075 0.501451 0.836690
O5    O     O_R   0.499970 0.618770 0.316850 -0.582515
O6    O     O_R   0.500030 0.381230 0.683150 -0.582496
O7    O     O_R   0.500030 0.618770 0.683150 -0.609140
O8    O     O_R   0.499970 0.381230 0.316850 -0.609173
C5    C     C_R   0.494780 0.501331 0.259404 0.826263
C6    C     C_R   0.505212 0.498668 0.740596 0.826489
Cu1   Cu    Cu3+1 0.500000 0.640660 0.500000 0.980425
Cu2   Cu    Cu3+1 0.500000 0.359340 0.500000 0.980465
N1    N     N_R   0.500000 0.852070 0.500000 -0.269506
N2    N     N_R   0.500000 0.147930 0.500000 -0.269515
C7    C     C_3   0.498768 0.631229 0.035704 0.014987
C8    C     C_3   0.501220 0.368764 0.964295 0.014998
C9    C     C_3   0.603801 0.563263 0.972379 -0.008454
C10   C     C_3   0.396187 0.436728 0.027621 -0.008411
C11   C     C_3   0.400868 0.565790 0.939970 -0.357426
C12   C     C_3   0.599119 0.434202 0.060030 -0.357435
H1    H     H_    0.319374 0.620433 0.890335 0.159344
H2    H     H_    0.680612 0.379556 0.109662 0.159332
C13   C     C_3   0.507065 0.496736 0.877470 -0.058204
C14   C     C_3   0.492922 0.503258 0.122529 -0.058176
C15   C     C_R   0.413058 0.076845 0.425046 0.053487
C16   C     C_R   0.586944 0.923156 0.574951 0.053456
C17   C     C_R   0.582548 0.071327 0.580649 0.101401
C18   C     C_R   0.417455 0.928674 0.419349 0.101519
C19   C     C_R   0.075878 0.434321 0.599639 -0.111308
C20   C     C_R   0.924117 0.565683 0.400395 -0.111232
C21   C     C_R   0.946549 0.438736 0.603527 0.023692
C22   C     C_R   0.053453 0.561362 0.396563 0.023607
C23   C     C_2   0.306503 0.153283 0.359274 0.585447
H3    H     H_    0.319684 0.247147 0.306400 0.123231
O9    O     O_2   0.200546 0.112976 0.366961 -0.494339
C24   C     C_2   0.693503 0.846719 0.640716 0.585390
H4    H     H_    0.680328 0.752834 0.693562 0.123363
O10   O     O_2   0.799458 0.887046 0.633050 -0.494333
C25   C     C_2   0.659845 0.141136 0.682605 0.428535
H5    H     H_    0.680562 0.248243 0.676368 0.149953
O11   O     O_2   0.697695 0.079796 0.779737 -0.533393
C26   C     C_2   0.340166 0.858862 0.317390 0.428169
H6    H     H_    0.319491 0.751745 0.323613 0.149821
O12   O     O_2   0.302284 0.920208 0.220272 -0.533465
C27   C     C_2   0.495654 0.780590 0.069256 0.489921
H7    H     H_    0.423530 0.847969 0.024334 0.119642
O13   O     O_2   0.575368 0.827743 0.144700 -0.478450
C28   C     C_2   0.504342 0.219404 0.930742 0.489975
H8    H     H_    0.576456 0.152022 0.975682 0.119620
O14   O     O_2   0.424645 0.172253 0.855279 -0.478447
C29   C     C_2   0.724168 0.632574 0.952181 0.451794
H9    H     H_    0.809193 0.572371 0.958950 0.108290
O15   O     O_2   0.728067 0.757098 0.931620 -0.484142
C30   C     C_2   0.275825 0.367407 0.047825 0.451246
H10   H     H_    0.190820 0.427609 0.041157 0.108550
O16   O     O_2   0.271901 0.242872 0.068250 -0.484092
C31   C     C_2   0.158829 0.370150 0.704363 0.403693
H11   H     H_    0.240634 0.424932 0.742709 0.049939
O17   O     O_2   0.140623 0.252959 0.743190 -0.468453
C32   C     C_2   0.841161 0.629717 0.295598 0.403930
H12   H     H_    0.759351 0.574891 0.257332 0.049857
O18   O     O_2   0.859364 0.746840 0.256606 -0.468736
C33   C     C_2   0.891545 0.390598 0.718781 0.298770
H13   H     H_    0.929344 0.302734 0.774267 0.175643
O19   O     O_2   0.803751 0.451653 0.755098 -0.636118
C34   C     C_2   0.108495 0.609722 0.281418 0.298986
H14   H     H_    0.070998 0.698020 0.226330 0.175876
O20   O     O_2   0.196023 0.548438 0.244804 -0.636014

loop_
_geom_bond_atom_site_label_1
_geom_bond_atom_site_label_2
_geom_bond_distance
_ccdc_geom_bond_type
C10   C30   1.498003 S    
C1    C4    1.454841 S    
C7    C11   1.548210 S    
C25   H5    1.061379 S    
C2    C22   1.414885 A    
C5    C14   1.465925 S    
O4    Cu2   1.963483 S    
C2    C3    1.454884 S    
O1    Cu1   1.964055 S    
C8    C13   1.535548 S    
C11   C13   1.544764 S    
C6    C13   1.465925 S    
C22   C34   1.488667 S    
O2    Cu2   1.964054 S    
C7    C27   1.497075 S    
C1    C20   1.410410 A    
C2    C19   1.410405 A    
C21   C33   1.488834 S    
C16   C17   1.435663 A    
C29   H9    1.083660 S    
C18   C26   1.486105 S    
C32   H12   1.083447 S    
C27   O13   1.220192 D    
C24   O10   1.221560 D    
N1    C16   1.372526 A    
C9    C13   1.539582 S    
C16   C24   1.478965 S    
C8    C28   1.497075 S    
N2    C15   1.372524 A    
O6    Cu2   1.980747 S    
C28   H8    1.084328 S    
C7    C14   1.535545 S    
C25   O11   1.221099 D    
C23   H3    1.075476 S    
C17   C25   1.486120 S    
C31   O17   1.220370 D    
O4    C3    1.299675 A    
C1    C21   1.414943 A    
C19   C31   1.490105 S    
C33   H13   1.081674 S    
C19   C21   1.405256 A    
C28   O14   1.220193 D    
C20   C32   1.490159 S    
O3    C4    1.299654 A    
C15   C18   1.435663 A    
C20   C22   1.405211 A    
C29   O15   1.219868 D    
O5    Cu1   1.980748 S    
C31   H11   1.083458 S    
C23   O9    1.221558 D    
O7    C6    1.299667 A    
C26   O12   1.221099 D    
C34   H14   1.081766 S    
C34   O20   1.218627 D    
C8    C10   1.534863 S    
C30   O16   1.219753 D    
Cu1   Cu2   2.718806 S    
C12   C14   1.544763 S    
C11   H1    1.110802 S    
O3    Cu1   1.963483 S    
O8    C5    1.299659 A    
C9    C29   1.497994 S    
C27   H7    1.084326 S    
O6    C6    1.302920 A    
C9    C12   1.547886 S    
C15   C23   1.478966 S    
Cu1   N1    2.043164 S    
N1    C18   1.382460 A    
O5    C5    1.302929 A    
C26   H6    1.061372 S    
C24   H4    1.075475 S    
O1    C3    1.303045 A    
C10   C14   1.539590 S    
N2    C17   1.382458 A    
C7    C9    1.534860 S    
C30   H10   1.083507 S    
C10   C11   1.547896 S    
O7    Cu1   1.970752 S    
C8    C12   1.548198 S    
Cu2   N2    2.043165 S    
O2    C4    1.303047 A    
O8    Cu2   1.970753 S    
C12   H2    1.110802 S    
C33   O19   1.218580 D    
C32   O18   1.220350 D    
