data_mof_unit_31371.cif
_audit_creation_date              2012-12-10T20:25:44-0500
_audit_creation_method            fapswitch 2.2
_symmetry_space_group_name_H-M    P1
_symmetry_Int_Tables_number       1
_space_group_crystal_system       triclinic
_cell_length_a                    8.587512
_cell_length_b                    10.687371
_cell_length_c                    9.869025
_cell_angle_alpha                 90.158237
_cell_angle_beta                  98.519782
_cell_angle_gamma                 90.03674
_cell_volume                      895.759478158

loop_
_atom_site_label
_atom_site_type_symbol
_atom_type_description
_atom_site_fract_x
_atom_site_fract_y
_atom_site_fract_z
_atom_type_partial_charge
C1    C     C_R   0.497252 0.259963 0.499574 0.924734
C2    C     C_R   0.364478 0.476650 0.911292 0.182707
C3    C     C_3   0.267521 0.360271 0.893027 -0.442313
C4    C     C_R   0.201217 0.500177 0.464176 0.960296
C5    C     C_3   0.268745 0.359641 0.047046 -0.476316
C6    C     C_R   0.495113 0.739964 0.499791 0.875844
C7    C     C_R   0.798750 0.500969 0.535766 0.989658
C8    C     C_2   0.036117 0.499390 0.444815 -0.372980
C9    C     C_2   0.963768 0.504062 0.554827 -0.364650
C10   C     C_R   0.487723 0.064366 0.621549 -0.039360
C11   C     C_R   0.476896 0.128321 0.497938 -0.096944
C12   C     C_R   0.434184 0.934785 0.374127 -0.193571
C13   C     C_R   0.436583 0.064122 0.373679 -0.188141
C14   C     C_3   0.530798 0.874015 0.872410 -0.352665
C15   C     C_3   0.652083 0.871842 0.002155 -0.821975
C16   C     C_R   0.471385 0.871322 0.498942 -0.058901
C17   C     C_R   0.482159 0.936593 0.622707 -0.091571
C18   C     C_3   0.601815 0.927239 0.749915 -0.187081
C19   C     C_3   0.611305 0.069711 0.745355 1.116578
C20   C     C_R   0.364736 0.476246 0.053792 0.201489
C21   C     C_R   0.630153 0.534455 0.088716 -0.115870
C22   C     C_R   0.630307 0.534093 0.944918 -0.093692
F1    F     F_    0.560881 0.131857 0.854173 -0.693379
F2    F     F_    0.754847 0.113026 0.716534 -0.684929
H1    H     H_    0.974602 0.493751 0.340371 0.170798
H2    H     H_    0.711454 0.879153 0.730663 0.167828
H3    H     H_    0.735912 0.561004 0.156161 0.143761
H4    H     H_    0.755025 0.813918 0.985675 0.241268
H5    H     H_    0.692670 0.968059 0.031791 0.303159
H6    H     H_    0.598289 0.830650 0.087474 0.239566
H7    H     H_    0.426397 0.929116 0.891675 0.237387
H8    H     H_    0.490151 0.776762 0.849110 0.229585
H9    H     H_    0.736156 0.560174 0.904675 0.143756
H10   H     H_    0.148526 0.377114 0.835007 0.198388
H11   H     H_    0.331314 0.280191 0.855198 0.268890
H12   H     H_    0.150699 0.376270 0.077050 0.200311
H13   H     H_    0.334697 0.279506 0.099138 0.224374
H14   H     H_    0.025249 0.510823 0.659046 0.167971
H15   H     H_    0.416538 0.112684 0.276514 0.169273
H16   H     H_    0.413396 0.885359 0.277127 0.164872
N1    N     N_R   0.498950 0.499140 0.142680 -0.104268
N2    N     N_R   0.498950 0.499180 0.857030 -0.099684
O1    O     O_R   0.500020 0.316790 0.614690 -0.577771
O2    O     O_R   0.500000 0.316760 0.385350 -0.627969
O3    O     O_R   0.271760 0.500010 0.587850 -0.621504
O4    O     O_R   0.271740 0.499970 0.358500 -0.631627
O5    O     O_R   0.500000 0.683240 0.614650 -0.633626
O6    O     O_R   0.499980 0.683210 0.385310 -0.631544
O7    O     O_R   0.728260 0.500030 0.641500 -0.620201
O8    O     O_R   0.728240 0.499990 0.412150 -0.621315
Zn1   Zn    Zn3+2 0.500010 0.500020 0.653130 0.974119
Zn2   Zn    Zn3+2 0.499990 0.499980 0.346870 0.947236

loop_
_geom_bond_atom_site_label_1
_geom_bond_atom_site_label_2
_ccdc_geom_bond_type
C12   H16   S    
O8    Zn2   S    
C15   H5    S    
C5    H13   S    
C14   H7    S    
N1    Zn2   S    
C19   F1    S    
C18   H2    S    
C3    H11   S    
N2    Zn1   S    
C4    C8    S    
O2    Zn2   S    
C2    C3    S    
C21   H3    S    
C5    C20   S    
C4    O4    A    
C21   C22   A    
C8    H1    S    
C11   C13   A    
O1    Zn1   S    
C15   H4    S    
C22   N2    A    
C6    O6    A    
C2    N2    A    
C21   N1    A    
C9    H14   S    
C10   C19   S    
C19   F2    S    
C4    O3    A    
C13   H15   S    
C10   C11   A    
O3    Zn1   S    
C10   C17   A    
C2    C20   A    
C5    H12   S    
O4    Zn2   S    
O6    Zn2   S    
C12   C13   A    
C7    O7    A    
C15   H6    S    
C17   C18   S    
C18   C19   S    
C6    O5    A    
C14   H8    S    
C7    C9    S    
C22   H9    S    
C14   C18   S    
C14   C15   S    
C8    C9    D    
O5    Zn1   S    
C1    O2    A    
C3    H10   S    
C3    C5    S    
C6    C16   S    
C1    O1    A    
C12   C16   A    
C7    O8    A    
C20   N1    A    
C16   C17   A    
O7    Zn1   S    
C1    C11   S    
