data_mof_unit_30106.cif
_audit_creation_date              2012-10-26T19:42:18-0400
_audit_creation_method            fapswitch 2.2
_symmetry_space_group_name_H-M    P1
_symmetry_Int_Tables_number       1
_space_group_crystal_system       triclinic
_cell_length_a                    9.631763
_cell_length_b                    10.855567
_cell_length_c                    17.389054
_cell_angle_alpha                 97.67783
_cell_angle_beta                  86.501819
_cell_angle_gamma                 91.175696
_cell_volume                      1798.37118588

loop_
_atom_site_label
_atom_site_type_symbol
_atom_type_description
_atom_site_fract_x
_atom_site_fract_y
_atom_site_fract_z
_atom_type_partial_charge
C1    C     C_R   0.501113 0.736460 0.494907 0.531129
C2    C     C_R   0.526690 0.510426 0.267387 0.008265
C3    C     C_R   0.259396 0.866457 0.444466 -0.049595
C4    C     C_R   0.482410 0.500172 0.649750 0.519866
C5    C     C_R   0.125720 0.919325 0.453739 0.309935
C6    C     C_R   0.112913 0.039729 0.492659 -0.090818
C7    C     C_R   0.230170 0.109530 0.515472 -0.152122
C8    C     C_R   0.365238 0.058896 0.502071 0.002397
C9    C     C_R   0.375498 0.930520 0.477535 -0.008140
C10   C     C_R   0.500556 0.869842 0.488713 -0.016683
C11   C     C_R   0.620768 0.940102 0.505601 -0.158109
C12   C     C_R   0.346843 0.507955 0.777341 -0.142220
C13   C     C_R   0.617037 0.068460 0.513804 -0.160490
C14   C     C_R   0.490721 0.129822 0.512024 -0.012588
C15   C     C_R   0.873232 0.312236 0.386435 0.249286
C16   C     C_R   0.497066 0.264200 0.507407 0.552500
C17   C     C_R   0.970138 0.233718 0.335272 0.219636
C18   C     C_R   0.111044 0.257507 0.335926 0.199703
C19   C     C_R   0.162267 0.333867 0.395977 -0.124834
C20   C     C_R   0.080364 0.412520 0.449449 -0.035070
C21   C     C_R   0.930168 0.408907 0.446867 0.041540
C22   C     C_R   0.922902 0.590940 0.543262 0.393568
C23   C     C_R   0.409193 0.518791 0.149476 -0.157712
C24   C     C_R   0.071355 0.590049 0.543959 0.397128
C25   C     C_R   0.517943 0.507515 0.351260 0.538282
C26   C     C_R   0.475318 0.503651 0.734424 0.006342
C27   C     C_R   0.598880 0.506959 0.773454 -0.149826
C28   C     C_R   0.594541 0.519276 0.853875 -0.072117
C29   C     C_R   0.466311 0.524359 0.896518 0.062196
C30   C     C_R   0.342488 0.519727 0.858185 -0.132115
C31   C     C_3   0.023350 0.752194 0.375945 -0.123199
C32   C     C_3   0.819153 0.700513 0.653820 -0.081543
C33   C     C_3   0.681116 0.204535 0.320126 0.005889
C34   C     C_R   0.406787 0.532747 0.229997 -0.141989
C35   C     C_3   0.523748 0.195140 0.315832 -0.364908
C36   C     C_3   0.957417 0.023736 0.292407 -0.007028
C37   C     C_3   0.897506 0.930063 0.229514 -0.388810
C38   C     C_3   0.191584 0.252092 0.209154 0.011239
C39   C     C_3   0.309445 0.207022 0.150626 -0.393234
C40   C     C_3   0.149696 0.692714 0.658028 -0.073436
C41   C     C_3   0.577494 0.256492 0.990876 -0.125886
C42   C     C_R   0.651643 0.481778 0.223482 -0.155370
C43   C     C_R   0.654382 0.468841 0.142796 -0.124630
C44   C     C_R   0.532743 0.485210 0.105264 0.038150
C45   C     C_2   0.460570 0.536338 0.981346 -0.109262
C46   C     C_2   0.535849 0.463890 0.019631 0.257603
Cu1   Cu    Cu3+1 0.359340 0.500010 0.500010 0.940311
Cu2   Cu    Cu3+1 0.640660 0.499990 0.499990 1.022771
H1    H     H_    0.699340 0.500858 0.742128 0.113065
H2    H     H_    0.745919 0.465077 0.251193 0.136005
H3    H     H_    0.242799 0.523649 0.890787 0.098430
H4    H     H_    0.312959 0.529478 0.122166 0.088611
H5    H     H_    0.250072 0.502261 0.748751 0.112486
H6    H     H_    0.390106 0.605015 0.012543 0.062663
H7    H     H_    0.691466 0.526055 0.882716 0.147097
H8    H     H_    0.068122 0.673623 0.400351 0.140460
H9    H     H_    0.089192 0.776236 0.325119 0.072845
H10   H     H_    0.920504 0.720143 0.355041 0.144430
H11   H     H_    0.861639 0.787228 0.685313 0.110611
H12   H     H_    0.750929 0.444076 0.109605 0.139069
H13   H     H_    0.857417 0.620002 0.679685 0.055807
H14   H     H_    0.704702 0.705982 0.664272 0.148090
H15   H     H_    0.709670 0.113184 0.335706 0.163257
H16   H     H_    0.718894 0.222188 0.260833 0.178305
H17   H     H_    0.471544 0.165662 0.368246 0.157958
H18   H     H_    0.478713 0.281640 0.303276 0.171571
H19   H     H_    0.499472 0.121823 0.267449 0.108607
H20   H     H_    0.907309 0.008075 0.349688 0.160020
H21   H     H_    0.070811 0.007043 0.292455 0.193378
H22   H     H_    0.946498 0.943964 0.171765 0.156017
H23   H     H_    0.718200 0.895987 0.512643 0.204775
H24   H     H_    0.917577 0.833838 0.240174 0.095922
H25   H     H_    0.783387 0.942195 0.228932 0.141100
H26   H     H_    0.196022 0.355409 0.219628 0.116590
H27   H     H_    0.092530 0.223004 0.182174 0.183600
H28   H     H_    0.311759 0.103844 0.141742 0.152644
H29   H     H_    0.293587 0.240379 0.094202 0.090270
H30   H     H_    0.410603 0.244116 0.171257 0.150925
H31   H     H_    0.260638 0.702560 0.671550 0.149122
H32   H     H_    0.105404 0.607707 0.680262 0.057830
H33   H     H_    0.097424 0.775334 0.690554 0.107665
H34   H     H_    0.273681 0.775658 0.411730 0.123991
H35   H     H_    0.467600 0.240539 0.975127 0.116597
H36   H     H_    0.589255 0.239899 0.051840 0.112684
H37   H     H_    0.641983 0.187096 0.952655 0.137410
H38   H     H_    0.010902 0.080729 0.504225 0.111982
H39   H     H_    0.211191 0.200306 0.547483 0.155478
H40   H     H_    0.713761 0.119786 0.522346 0.141575
H41   H     H_    0.309668 0.556572 0.262878 0.113465
H42   H     H_    0.271202 0.332376 0.395026 0.228129
N1    N     N_R   0.852190 0.498790 0.499250 -0.249766
N2    N     N_R   0.148060 0.498710 0.499220 -0.269709
O1    O     O_R   0.381190 0.680360 0.500010 -0.464878
O2    O     O_3   0.853283 0.698369 0.573593 -0.513730
O3    O     O_3   0.729137 0.301370 0.376275 -0.498953
O4    O     O_3   0.930268 0.144595 0.275736 -0.608030
O5    O     O_3   0.203644 0.199610 0.278734 -0.574125
O6    O     O_3   0.139464 0.695111 0.577629 -0.510863
O7    O     O_3   0.625102 0.376364 0.978581 -0.578382
O8    O     O_R   0.618760 0.680340 0.500000 -0.461272
O9    O     O_R   0.367440 0.500030 0.613600 -0.507216
O10   O     O_R   0.605010 0.500010 0.613590 -0.517049
O11   O     O_R   0.381240 0.319660 0.500000 -0.546398
O12   O     O_R   0.618810 0.319640 0.499990 -0.440747
O13   O     O_R   0.394990 0.499990 0.386410 -0.552209
O14   O     O_R   0.632560 0.499970 0.386400 -0.444039
O15   O     O_3   0.002938 0.855876 0.433512 -0.569173

loop_
_geom_bond_atom_site_label_1
_geom_bond_atom_site_label_2
_ccdc_geom_bond_type
C32   O2    S    
C46   O7    S    
Cu1   O9    S    
Cu1   N2    S    
C19   C20   A    
C30   H3    S    
C25   O13   A    
C7    C8    A    
C45   C46   D    
C20   N2    A    
C26   C27   A    
C24   O6    S    
C39   H29   S    
C31   H10   S    
C36   C37   S    
C32   H13   S    
C40   O6    S    
C38   C39   S    
C11   H23   S    
C35   H17   S    
Cu2   O12   S    
C33   O3    S    
C18   C19   A    
C16   O12   A    
Cu2   O14   S    
C8    C9    A    
Cu1   O13   S    
Cu2   N1    S    
C4    O10   A    
C22   N1    A    
C40   H32   S    
C18   O5    S    
C31   H8    S    
C9    C10   A    
C12   H5    S    
C2    C34   A    
C37   H22   S    
C22   O2    S    
C38   O5    S    
C24   N2    A    
C1    O8    A    
C28   H7    S    
C44   C46   S    
C25   O14   A    
C38   H27   S    
Cu2   O8    S    
C7    H39   S    
Cu1   O11   S    
C39   H30   S    
C35   H18   S    
C41   H36   S    
C23   C44   A    
C29   C45   S    
C43   C44   A    
C29   C30   A    
C3    C9    A    
C36   O4    S    
C16   O11   A    
Cu1   Cu2   S    
C35   H19   S    
C33   H15   S    
C23   C34   A    
Cu2   O10   S    
C4    O9    A    
C3    H34   S    
C41   O7    S    
C17   C18   A    
Cu1   O1    S    
C40   H31   S    
C17   O4    S    
C39   H28   S    
C5    O15   S    
C43   H12   S    
C42   H2    S    
C45   H6    S    
C14   C16   S    
C42   C43   A    
C36   H21   S    
C21   N1    A    
C15   C17   A    
C37   H25   S    
C28   C29   A    
C8    C14   A    
C12   C30   A    
C31   O15   S    
C40   H33   S    
C1    C10   S    
C3    C5    A    
C4    C26   S    
C36   H20   S    
C6    C7    A    
C41   H37   S    
C6    H38   S    
C31   H9    S    
C34   H41   S    
C32   H14   S    
C19   H42   S    
C15   O3    S    
C11   C13   A    
C23   H4    S    
C5    C6    A    
C2    C42   A    
C33   H16   S    
C13   H40   S    
C33   C35   S    
C38   H26   S    
C2    C25   S    
C22   C24   A    
C10   C11   A    
C15   C21   A    
C20   C21   A    
C1    O1    A    
C37   H24   S    
C12   C26   A    
C27   C28   A    
C32   H11   S    
C13   C14   A    
C27   H1    S    
C41   H35   S    
