data_mof_unit_52032.cif
_audit_creation_date              2012-12-11T17:37:41-0500
_audit_creation_method            fapswitch 2.2
_symmetry_space_group_name_H-M    P1
_symmetry_Int_Tables_number       1
_space_group_crystal_system       triclinic
_cell_length_a                    13.098704
_cell_length_b                    13.021377
_cell_length_c                    15.428522
_cell_angle_alpha                 117.553883
_cell_angle_beta                  63.709571
_cell_angle_gamma                 97.667845
_cell_volume                      2083.25835858

loop_
_atom_site_label
_atom_site_type_symbol
_atom_type_description
_atom_site_fract_x
_atom_site_fract_y
_atom_site_fract_z
_atom_type_partial_charge
C1    C     C_R   0.998555 0.832962 0.060221 -0.114245
C2    C     C_R   0.674510 0.554538 0.321445 0.037215
C3    C     C_R   0.660733 0.458121 0.928242 0.100904
C4    C     C_R   0.091681 0.788590 0.294343 0.073969
C5    C     C_R   0.337886 0.517374 0.953107 -0.115733
C6    C     C_R   0.966102 0.177833 0.780680 -0.138689
C7    C     C_R   0.206910 0.492109 0.689915 -0.134610
C8    C     C_R   0.052219 0.254567 0.086083 -0.123520
C9    C     C_R   0.949230 0.171833 0.994498 -0.116576
C10   C     C_R   0.303000 0.586705 0.788621 -0.151258
C11   C     C_R   0.257996 0.418735 0.050435 -0.150200
C12   C     C_R   0.680014 0.475997 0.220297 -0.133268
C13   C     C_R   0.048306 0.275581 0.683823 -0.123065
C14   C     C_R   0.360423 0.437298 0.979333 0.149585
C15   C     C_R   0.035332 0.163687 0.675875 0.059263
C16   C     C_R   0.304189 0.548267 0.688495 0.062719
C17   C     C_R   0.006354 0.151085 0.043032 0.031373
C18   C     C_R   0.430731 0.921369 0.107768 -0.122976
C19   C     C_R   0.360189 0.906924 0.200391 -0.144736
C20   C     C_R   0.258873 0.980828 0.278586 0.117962
C21   C     C_R   0.228822 0.068631 0.262533 -0.185933
C22   C     C_R   0.299036 0.082219 0.169499 -0.117884
C23   C     C_R   0.753477 0.517583 0.894640 0.053406
C24   C     C_R   0.400138 0.008898 0.092339 -0.090175
C25   C     C_R   0.160259 0.061764 0.478375 -0.235567
C26   C     C_R   0.086853 0.054056 0.574494 0.064492
C27   C     C_R   0.063041 0.941644 0.567556 0.028467
C28   C     C_R   0.097471 0.846096 0.466415 -0.231295
C29   C     C_R   0.136798 0.862192 0.373874 0.048223
C30   C     C_R   0.184900 0.966747 0.377196 0.030036
C31   C     C_R   0.029743 0.912483 0.726198 -0.174775
C32   C     C_R   0.956054 0.892884 0.814597 -0.163041
C33   C     C_R   0.840895 0.877936 0.835590 -0.097737
C34   C     C_R   0.025660 0.696709 0.297497 -0.146015
C35   C     C_R   0.799871 0.879941 0.766873 -0.114225
C36   C     C_R   0.873134 0.899767 0.678578 -0.179881
C37   C     C_R   0.987733 0.918481 0.659350 0.121126
C38   C     C_R   0.865788 0.362749 0.357295 -0.109433
C39   C     C_R   0.750080 0.395832 0.400693 -0.107913
C40   C     C_R   0.706268 0.510538 0.479634 0.114338
C41   C     C_R   0.775388 0.587778 0.523373 -0.171954
C42   C     C_R   0.891838 0.555664 0.476456 -0.127064
C43   C     C_R   0.937593 0.444342 0.391177 -0.122395
C44   C     C_R   0.503361 0.559876 0.591243 -0.250800
C45   C     C_R   0.676343 0.421443 0.991839 -0.157546
C46   C     C_R   0.393704 0.567501 0.600813 0.071123
C47   C     C_R   0.376350 0.581120 0.522139 0.024262
C48   C     C_R   0.470015 0.588954 0.436488 -0.253480
C49   C     C_R   0.579561 0.572950 0.423661 0.074324
C50   C     C_R   0.596090 0.554889 0.500584 0.015834
C51   C     C_R   0.254402 0.455561 0.439174 -0.160506
C52   C     C_R   0.145826 0.417795 0.455524 -0.170608
C53   C     C_R   0.049987 0.489243 0.545881 -0.125064
C54   C     C_R   0.061635 0.602585 0.614334 -0.116092
C55   C     C_R   0.170204 0.640328 0.599305 -0.148055
C56   C     C_R   0.103496 0.796294 0.204167 -0.153702
C57   C     C_R   0.266802 0.563890 0.515520 0.115225
C58   C     C_2   0.471924 0.397604 0.955254 -0.205792
C59   C     C_2   0.565082 0.436840 0.900683 -0.184223
C60   C     C_2   0.825242 0.957871 0.111646 -0.193733
C61   C     C_2   0.825790 0.047284 0.201182 -0.170006
C62   C     C_R   0.784201 0.574619 0.310191 -0.090920
C63   C     C_R   0.894692 0.748614 0.967901 -0.165720
C64   C     C_R   0.906775 0.853003 0.046223 0.115046
H1    H     H_    0.028403 0.893822 0.118727 0.098396
H2    H     H_    0.930665 0.114350 0.808578 0.130473
H3    H     H_    0.178627 0.453769 0.627673 0.135369
H4    H     H_    0.091056 0.273610 0.140096 0.079860
H5    H     H_    0.890537 0.116029 0.966447 0.111252
H6    H     H_    0.358947 0.645442 0.819419 0.096289
H7    H     H_    0.246771 0.366205 0.090798 0.091263
H8    H     H_    0.090175 0.298962 0.618674 0.094497
H9    H     H_    0.454708 0.019755 0.020520 0.097299
H10   H     H_    0.509251 0.864884 0.048013 0.103670
H11   H     H_    0.384841 0.838965 0.211599 0.115861
H12   H     H_    0.609728 0.439262 0.200404 0.098714
H13   H     H_    0.149924 0.124596 0.321032 0.105667
H14   H     H_    0.274993 0.149454 0.157183 0.099272
H15   H     H_    0.194113 0.142798 0.480415 0.127539
H16   H     H_    0.075235 0.761894 0.463252 0.124592
H17   H     H_    0.118168 0.926017 0.711506 0.121260
H18   H     H_    0.988417 0.891458 0.867384 0.137855
H19   H     H_    0.782782 0.865260 0.905052 0.095223
H20   H     H_    0.711107 0.867201 0.782620 0.105497
H21   H     H_    0.840490 0.902172 0.626043 0.118036
H22   H     H_    0.028607 0.421148 0.351089 0.111977
H23   H     H_    0.900700 0.275829 0.293833 0.113929
H24   H     H_    0.696655 0.335194 0.367414 0.116376
H25   H     H_    0.742122 0.676266 0.584545 0.116372
H26   H     H_    0.947057 0.618880 0.503547 0.128614
H27   H     H_    0.517735 0.543116 0.647872 0.132614
H28   H     H_    0.457965 0.596654 0.374434 0.133087
H29   H     H_    0.328624 0.395699 0.374083 0.119384
H30   H     H_    0.136273 0.331271 0.401304 0.112565
H31   H     H_    0.966808 0.456365 0.562120 0.147552
H32   H     H_    0.987368 0.658656 0.682755 0.153553
H33   H     H_    0.011491 0.654938 0.347255 0.100512
H34   H     H_    0.179300 0.723133 0.659105 0.116448
H35   H     H_    0.473583 0.356188 0.001566 0.125068
H36   H     H_    0.563541 0.474691 0.851711 0.133843
H37   H     H_    0.759149 0.961348 0.088647 0.132405
H38   H     H_    0.887567 0.049707 0.230940 0.127835
H39   H     H_    0.630428 0.358926 0.019279 0.096794
H40   H     H_    0.159658 0.847607 0.167616 0.120944
H41   H     H_    0.810377 0.636227 0.371028 0.114836
H42   H     H_    0.825682 0.732922 0.945077 0.113966
H43   H     H_    0.397298 0.556244 0.904069 0.088996
N1    N     N_R   0.037320 0.720000 0.995830 -0.045822
N2    N     N_R   0.946240 0.290870 0.848020 -0.043807
N3    N     N_R   0.146160 0.501170 0.788610 -0.040556
N4    N     N_R   0.025750 0.332680 0.063570 -0.035795
N5    N     N_R   0.962680 0.280000 0.004170 -0.043275
N6    N     N_R   0.209230 0.553860 0.848010 -0.038259
N7    N     N_R   0.175100 0.482030 0.063570 -0.040213
N8    N     N_R   0.996810 0.351820 0.788610 -0.040506
N9    N     N_R   0.790770 0.446140 0.151990 -0.041872
N10   N     N_R   0.824900 0.517970 0.936430 -0.061086
N11   N     N_R   0.003190 0.648180 0.211390 -0.041175
N12   N     N_R   0.774330 0.457010 0.995830 -0.051287
N13   N     N_R   0.053760 0.709130 0.151980 -0.041599
N14   N     N_R   0.853840 0.498830 0.211390 -0.039706
N15   N     N_R   0.974250 0.667320 0.936430 -0.039484
N16   N     N_R   0.225670 0.542990 0.004170 -0.044762
Ni1   Ni    Ni4+2 0.130310 0.630310 0.000000 0.211760
Ni2   Ni    Ni4+2 0.869690 0.369690 0.000000 0.209127
Ni3   Ni    Ni4+2 0.985660 0.509480 0.863750 0.224986
Ni4   Ni    Ni4+2 0.014340 0.490520 0.136250 0.218004
C65   C     C_1   0.778635 0.551680 0.811471 -0.035814
N17   N     N_1   0.794678 0.579727 0.745851 -0.102898

loop_
_geom_bond_atom_site_label_1
_geom_bond_atom_site_label_2
_ccdc_geom_bond_type
C34   N11   A    
C41   H25   S    
C53   H31   S    
C41   C42   A    
C3    C23   A    
N4    N5    A    
C2    C12   A    
C65   N17   T    
N16   Ni1   S    
C62   H41   S    
C20   C30   S    
C53   C54   A    
C28   C29   A    
C26   C27   A    
N8    Ni3   S    
C18   C24   A    
C36   C37   A    
C9    H5    S    
N14   Ni4   S    
N10   N12   A    
C38   C39   A    
C11   C14   A    
C11   H7    S    
C24   H9    S    
C44   C50   A    
C34   H33   S    
C18   C19   A    
C11   N7    A    
C45   H39   S    
C6    C15   A    
C54   C55   A    
C19   C20   A    
C1    H1    S    
C52   H30   S    
C51   C57   A    
N10   Ni3   S    
C54   H32   S    
C4    C29   S    
C45   N12   A    
C9    N5    A    
C18   H10   S    
C21   C22   A    
C4    C56   A    
C59   H36   S    
C56   N13   A    
C39   H24   S    
N1    Ni1   S    
C44   C46   A    
C14   C58   S    
C4    C34   A    
N9    N14   A    
C51   C52   A    
C56   H40   S    
C8    N4    A    
C16   C46   S    
C39   C40   A    
C15   C26   S    
C58   C59   D    
C3    C45   A    
C31   C37   A    
C60   C61   D    
C42   H26   S    
C35   C36   A    
N15   Ni3   S    
C29   C30   A    
C2    C49   S    
C47   C57   S    
C47   C48   A    
C5    C14   A    
C63   H42   S    
C33   H19   S    
N3    N6    A    
C22   H14   S    
N5    Ni2   S    
C13   N8    A    
C44   H27   S    
C51   H29   S    
N7    N16   A    
N12   Ni2   S    
N2    Ni2   S    
C48   C49   A    
N3    Ni3   S    
C8    H4    S    
N9    Ni2   S    
C55   C57   A    
C12   H12   S    
N4    Ni4   S    
C6    N2    A    
C22   C24   A    
C42   C43   A    
C60   H37   S    
C1    C64   A    
C10   H6    S    
C63   N15   A    
C52   C53   A    
C5    H43   S    
C9    C17   A    
C25   C30   A    
C46   C47   A    
C40   C41   A    
C10   N6    A    
C25   H15   S    
C43   H22   S    
C31   C32   A    
C7    C16   A    
C58   H35   S    
N1    N15   A    
C23   N10   A    
C35   H20   S    
C13   H8    S    
C36   H21   S    
C32   H18   S    
C5    N16   A    
C8    C17   A    
C31   H17   S    
C7    N3    A    
C38   H23   S    
C60   C64   S    
C32   C33   A    
C13   C15   A    
C61   H38   S    
C25   C26   A    
C38   C43   A    
C10   C16   A    
N7    Ni4   S    
N6    Ni1   S    
C27   C37   S    
C40   C50   S    
C55   H34   S    
C19   H11   S    
C33   C35   A    
C28   H16   S    
N11   N13   A    
C48   H28   S    
N2    N8    A    
C1    N1    A    
C7    H3    S    
C63   C64   A    
C2    C62   A    
C6    H2    S    
C20   C21   A    
C49   C50   A    
N11   Ni4   S    
C21   H13   S    
C27   C28   A    
C62   N14   A    
N13   Ni1   S    
C23   C65   S    
C12   N9    A    
C3    C59   S    
