data_mof_unit_33574.cif
_audit_creation_date              2012-12-10T16:56:31-0500
_audit_creation_method            fapswitch 2.2
_symmetry_space_group_name_H-M    P1
_symmetry_Int_Tables_number       1
_space_group_crystal_system       triclinic
_cell_length_a                    10.770062
_cell_length_b                    10.909924
_cell_length_c                    9.718815
_cell_angle_alpha                 90.631848
_cell_angle_beta                  89.109584
_cell_angle_gamma                 91.062382
_cell_volume                      1141.56613189

loop_
_atom_site_label
_atom_site_type_symbol
_atom_type_description
_atom_site_fract_x
_atom_site_fract_y
_atom_site_fract_z
_atom_type_partial_charge
C1    C     C_R   0.494464 0.265306 0.498947 0.906218
C2    C     C_3   0.877712 0.502277 0.498257 0.111675
C3    C     C_3   0.928373 0.623617 0.566917 -0.153506
C4    C     C_3   0.931164 0.484562 0.350397 -0.399620
C5    C     C_2   0.459171 0.929801 0.392928 -0.208558
C6    C     C_2   0.479621 0.865749 0.506484 -0.406626
C7    C     C_2   0.440448 0.062637 0.396634 0.495926
C8    C     C_2   0.493190 0.132571 0.496500 -0.473954
C9    C     C_2   0.401088 0.479700 0.923459 -0.073953
C10   C     C_2   0.407217 0.460858 0.076606 -0.024951
C11   C     C_R   0.259927 0.500357 0.500735 0.784137
C12   C     C_R   0.495683 0.734479 0.501092 0.895451
C13   C     C_R   0.739905 0.500109 0.499083 0.767422
C14   C     C_3   0.067703 0.391480 0.583569 -0.370901
C15   C     C_3   0.924255 0.392973 0.584338 -0.424390
C16   C     C_3   0.073055 0.627388 0.560016 -0.179362
C17   C     C_3   0.073469 0.488287 0.351610 -0.402733
C18   C     C_3   0.121865 0.502128 0.501890 0.101780
Cu1   Cu    Cu3+1 0.500030 0.500020 0.638630 0.952789
Cu2   Cu    Cu3+1 0.499970 0.499980 0.361370 0.987560
H1    H     H_    0.102951 0.390431 0.690080 0.161392
H2    H     H_    0.896785 0.554268 0.279673 0.175868
H3    H     H_    0.102622 0.695523 0.481139 0.122426
H4    H     H_    0.452094 0.883309 0.294004 0.201471
H5    H     H_    0.477242 0.908229 0.607850 0.150832
H6    H     H_    0.543905 0.091985 0.578974 0.113193
H7    H     H_    0.310983 0.473087 0.876025 0.167342
H8    H     H_    0.582605 0.476882 0.887542 0.212514
H9    H     H_    0.329347 0.413172 0.125305 0.187326
H10   H     H_    0.099186 0.304592 0.534359 0.200390
H11   H     H_    0.887559 0.304643 0.541497 0.165736
H12   H     H_    0.889545 0.399526 0.692566 0.169874
H13   H     H_    0.899177 0.615463 0.676675 0.136013
H14   H     H_    0.108030 0.565878 0.287326 0.153414
H15   H     H_    0.108501 0.402775 0.302620 0.220654
H16   H     H_    0.899082 0.394332 0.308054 0.175076
N1    N     N_2   0.498630 0.498660 0.846910 -0.278494
N2    N     N_2   0.498590 0.498630 0.153040 -0.222669
O1    O     O_R   0.500020 0.321960 0.617040 -0.584660
O2    O     O_R   0.499980 0.321920 0.382900 -0.501171
O3    O     O_R   0.317710 0.500000 0.617070 -0.586021
O4    O     O_R   0.317670 0.499960 0.382930 -0.585520
O5    O     O_R   0.500020 0.678080 0.617100 -0.566491
O6    O     O_R   0.499980 0.678040 0.382960 -0.586823
O7    O     O_R   0.682330 0.500040 0.617070 -0.599095
O8    O     O_R   0.682290 0.500000 0.382930 -0.591749
C19   C     C_R   0.873683 0.743699 0.517550 0.086692
C20   C     C_R   0.806150 0.816447 0.611943 -0.137971
C21   C     C_R   0.766796 0.932775 0.575914 -0.143228
C22   C     C_R   0.790362 0.977040 0.443740 -0.103836
C23   C     C_R   0.855806 0.905817 0.348259 -0.091907
C24   C     C_R   0.898834 0.790790 0.385093 -0.116224
H17   H     H_    0.786504 0.784753 0.715278 0.132968
H18   H     H_    0.718327 0.988550 0.651240 0.122996
H19   H     H_    0.759227 0.067058 0.415819 0.123085
H20   H     H_    0.876135 0.941127 0.246573 0.129974
H21   H     H_    0.956389 0.742525 0.311563 0.116246
S1    S     S_3+6 0.347706 0.121879 0.264580 -0.035328
O9    O     O_2   0.267033 0.222041 0.320958 -0.348457
O10   O     O_2   0.430771 0.171489 0.151828 -0.315319
O11   O     O_3   0.256541 0.009279 0.199939 -0.586150
H22   H     H_    0.210484 0.048035 0.124982 0.362792
C25   C     C_R   0.579478 0.594192 0.103909 0.327927
C26   C     C_R   0.533929 0.711452 0.078242 -0.122805
C27   C     C_R   0.614332 0.805665 0.034312 -0.157616
C28   C     C_R   0.741006 0.783667 0.016659 -0.123246
C29   C     C_R   0.787226 0.667624 0.043317 -0.198180
C30   C     C_R   0.707015 0.573421 0.087857 -0.184489
H23   H     H_    0.436585 0.729421 0.094175 0.120038
H24   H     H_    0.578522 0.895770 0.014763 0.154814
H25   H     H_    0.803404 0.856551 0.982768 0.129539
H26   H     H_    0.885214 0.650715 0.030029 0.137101
H27   H     H_    0.743429 0.483548 0.107360 0.129288
C31   C     C_R   0.128291 0.673653 0.695689 0.137866
C32   C     C_R   0.098756 0.618339 0.822915 -0.151151
C33   C     C_R   0.143360 0.668752 0.945730 -0.187774
C34   C     C_R   0.217492 0.774790 0.943790 -0.116301
C35   C     C_R   0.249020 0.829894 0.818960 -0.107056
C36   C     C_R   0.204381 0.780182 0.695799 -0.124764
H28   H     H_    0.037892 0.538840 0.829135 0.111846
H29   H     H_    0.119220 0.626184 0.042752 0.117097
H30   H     H_    0.249577 0.814704 0.039254 0.162189
H31   H     H_    0.306682 0.912214 0.817721 0.132663
H32   H     H_    0.227672 0.826354 0.600589 0.121449

loop_
_geom_bond_atom_site_label_1
_geom_bond_atom_site_label_2
_ccdc_geom_bond_type
C4    H16   S    
C11   C18   S    
C1    C8    S    
C8    H6    S    
C14   C18   S    
Cu1   Cu2   S    
C15   H12   S    
C34   C35   A    
C16   C31   S    
H8    N1    S    
C14   H1    S    
C23   H20   S    
C12   O5    A    
C6    C12   S    
C5    C6    D    
Cu2   O2    S    
C6    H5    S    
C3    H13   S    
S1    O10   D    
C21   H18   S    
C4    H2    S    
C11   O4    A    
C29   H26   S    
C2    C13   S    
Cu1   N1    S    
C1    O2    A    
C35   H31   S    
C19   C20   A    
C32   H28   S    
C7    S1    S    
S1    O11   S    
C28   C29   A    
C14   H10   S    
Cu2   O6    S    
Cu1   O5    S    
C22   C23   A    
C20   H17   S    
C31   C32   A    
C29   C30   A    
C7    C8    D    
C33   C34   A    
C5    C7    S    
C35   C36   A    
C30   H27   S    
C23   C24   A    
C2    C4    S    
C32   C33   A    
Cu2   N2    S    
C28   H25   S    
C9    N1    D    
C17   C18   S    
C26   H23   S    
C2    C15   S    
Cu1   O1    S    
C4    C17   S    
C20   C21   A    
C21   C22   A    
C16   H3    S    
C31   C36   A    
C17   H14   S    
C9    H7    S    
N2    C25   S    
C9    C10   S    
C25   C30   A    
C14   C15   S    
C33   H29   S    
Cu2   O4    S    
Cu1   O7    S    
C15   H11   S    
C19   C24   A    
C22   H19   S    
C10   N2    D    
C26   C27   A    
C2    C3    S    
S1    O9    D    
C12   O6    A    
C13   O7    A    
C10   H9    S    
C36   H32   S    
C5    H4    S    
C34   H30   S    
C3    C19   S    
C11   O3    A    
O11   H22   S    
C24   H21   S    
C1    O1    A    
C25   C26   A    
Cu1   O3    S    
C16   C18   S    
C27   C28   A    
C13   O8    A    
C17   H15   S    
Cu2   O8    S    
C3    C16   S    
C27   H24   S    
