data_mof_unit_38744.cif
_audit_creation_date              2012-12-10T20:42:42-0500
_audit_creation_method            fapswitch 2.2
_symmetry_space_group_name_H-M    P1
_symmetry_Int_Tables_number       1
_space_group_crystal_system       triclinic
_cell_length_a                    8.910778
_cell_length_b                    10.680599
_cell_length_c                    9.8847
_cell_angle_alpha                 89.92095
_cell_angle_beta                  90.012164
_cell_angle_gamma                 89.944102
_cell_volume                      940.749718321

loop_
_atom_site_label
_atom_site_type_symbol
_atom_type_description
_atom_site_fract_x
_atom_site_fract_y
_atom_site_fract_z
_atom_type_partial_charge
C1    C     C_R   0.504574 0.259980 0.500104 0.872417
C2    C     C_R   0.368624 0.490478 0.928814 0.221776
C3    C     C_3   0.259513 0.384936 0.923209 -0.513509
C4    C     C_R   0.218763 0.499909 0.499977 0.937523
C5    C     C_3   0.259990 0.384375 0.076903 -0.505737
C6    C     C_R   0.504670 0.739983 0.499916 0.872716
C7    C     C_R   0.781253 0.499975 0.500028 0.934391
C8    C     C_1   0.065418 0.499855 0.499991 -0.215505
C9    C     C_1   0.934609 0.499884 0.500028 -0.211210
C10   C     C_R   0.527998 0.063558 0.622870 0.141119
C11   C     C_R   0.528492 0.128535 0.500701 -0.102908
C12   C     C_R   0.557968 0.935376 0.379350 -0.226013
C13   C     C_R   0.557864 0.064882 0.379467 -0.228450
C14   C     C_R   0.528631 0.871344 0.500449 -0.103515
C15   C     C_R   0.527994 0.935832 0.622707 0.133761
C16   C     C_3   0.420938 0.928387 0.738864 -0.471498
C17   C     C_3   0.420959 0.070292 0.739100 -0.495909
C18   C     C_R   0.368685 0.490221 0.071146 0.223169
C19   C     C_R   0.628400 0.520493 0.071803 -0.143053
C20   C     C_R   0.628409 0.520475 0.928126 -0.139204
H1    H     H_    0.570246 0.114009 0.284162 0.173236
H2    H     H_    0.150077 0.414203 0.879312 0.206530
H3    H     H_    0.310804 0.111722 0.710594 0.201032
H4    H     H_    0.732646 0.535228 0.874558 0.156287
H5    H     H_    0.308625 0.298995 0.878171 0.211991
H6    H     H_    0.150727 0.413114 0.121421 0.206518
H7    H     H_    0.309811 0.298097 0.121335 0.214704
H8    H     H_    0.570442 0.886560 0.284007 0.173644
H9    H     H_    0.310818 0.887251 0.710168 0.203296
H10   H     H_    0.473788 0.887040 0.830528 0.206289
H11   H     H_    0.473981 0.110821 0.830932 0.205018
H12   H     H_    0.732631 0.535283 0.125367 0.156412
N1    N     N_R   0.499010 0.499140 0.142800 -0.107831
N2    N     N_R   0.499010 0.499180 0.857150 -0.107066
O1    O     O_R   0.500020 0.316790 0.614690 -0.615364
O2    O     O_R   0.500000 0.316760 0.385350 -0.623419
O3    O     O_R   0.285350 0.500020 0.614650 -0.617464
O4    O     O_R   0.285340 0.499980 0.385310 -0.613903
O5    O     O_R   0.500000 0.683240 0.614650 -0.616781
O6    O     O_R   0.499980 0.683210 0.385310 -0.622074
O7    O     O_R   0.714660 0.500020 0.614690 -0.624976
O8    O     O_R   0.714650 0.499980 0.385350 -0.625233
Zn1   Zn    Zn3+2 0.500010 0.500020 0.653130 0.939550
Zn2   Zn    Zn3+2 0.499990 0.499980 0.346870 0.939246

loop_
_geom_bond_atom_site_label_1
_geom_bond_atom_site_label_2
_ccdc_geom_bond_type
O3    Zn1   S    
O4    Zn2   S    
C6    C14   S    
C11   C13   A    
C19   C20   A    
C1    C11   S    
C3    H5    S    
C4    C8    S    
C20   N2    A    
C2    N2    A    
C2    C3    S    
C13   H1    S    
C4    O3    A    
O7    Zn1   S    
C17   H3    S    
O8    Zn2   S    
C12   H8    S    
C19   H12   S    
C12   C14   A    
C10   C15   A    
C7    O7    A    
C14   C15   A    
C17   H11   S    
C18   N1    A    
C6    O6    A    
O2    Zn2   S    
C2    C18   A    
C10   C11   A    
C10   C17   S    
C16   H10   S    
C15   C16   S    
C20   H4    S    
O6    Zn2   S    
O1    Zn1   S    
C12   C13   A    
C1    O1    A    
C19   N1    A    
C7    O8    A    
C7    C9    S    
C6    O5    A    
C8    C9    T    
C3    H2    S    
O5    Zn1   S    
C5    C18   S    
C16   H9    S    
C5    H7    S    
N1    Zn2   S    
N2    Zn1   S    
C5    H6    S    
C1    O2    A    
C4    O4    A    
C16   C17   S    
C3    C5    S    
