data_mof_unit_26641.cif
_audit_creation_date              2013-03-05T15:48:29-0500
_audit_creation_method            fapswitch 2.2
_symmetry_space_group_name_H-M    P1
_symmetry_Int_Tables_number       1
_space_group_crystal_system       triclinic
_cell_length_a                    18.576541
_cell_length_b                    18.520452
_cell_length_c                    18.930461
_cell_angle_alpha                 108.839387
_cell_angle_beta                  109.167813
_cell_angle_gamma                 108.02975
_cell_volume                      5155.07849232

loop_
_atom_site_label
_atom_site_type_symbol
_atom_site_description
_atom_site_fract_x
_atom_site_fract_y
_atom_site_fract_z
_atom_type_partial_charge
O1    O     O_R   0.408690 0.356690 0.448570 -0.636965
O2    O     O_R   0.408090 0.460090 0.551440 -0.537832
C1    C     C_R   0.379536 0.379511 0.500124 0.941152
O3    O     O_R   0.592400 0.448300 0.540670 -0.648818
O4    O     O_R   0.591800 0.551700 0.643540 -0.580736
C2    C     C_R   0.622214 0.500662 0.619369 0.936401
Zn1   Zn    Zn3+2 0.500400 0.430960 0.431310 1.066315
Zn2   Zn    Zn3+2 0.499600 0.569040 0.568690 1.178318
O5    O     O_R   0.591910 0.539910 0.448560 -0.596552
O6    O     O_R   0.591310 0.643310 0.551430 -0.613583
O7    O     O_R   0.408200 0.448300 0.356460 -0.608845
O8    O     O_R   0.407600 0.551700 0.459330 -0.542201
C3    C     C_R   0.620977 0.619308 0.499187 0.886386
C4    C     C_R   0.371529 0.492723 0.380099 0.900774
C5    C     C_3   0.684096 0.410372 0.658175 -0.451536
H1    H     H_    0.696417 0.390530 0.603129 0.199213
H2    H     H_    0.616785 0.363082 0.635169 0.239600
C6    C     C_3   0.745523 0.406673 0.733228 -0.037960
H3    H     H_    0.702447 0.373751 0.753302 0.258900
H4    H     H_    0.780488 0.537864 0.637111 0.160295
C7    C     C_3   0.782153 0.563986 0.699896 -0.155652
C8    C     C_3   0.687449 0.535685 0.769009 -0.333131
C9    C     C_3   0.693561 0.503127 0.685751 -0.062505
H5    H     H_    0.683888 0.597311 0.786370 0.212473
H6    H     H_    0.624890 0.488278 0.754140 0.280946
C10   C     C_3   0.811897 0.502479 0.807653 -0.080232
C11   C     C_3   0.855827 0.558423 0.766943 0.454980
C12   C     C_3   0.756383 0.539611 0.844360 0.279410
C13   C     C_R   0.369260 0.389343 0.658676 0.343942
C14   C     C_R   0.349425 0.406956 0.726785 0.036397
C15   C     C_R   0.262886 0.366757 0.708516 0.164643
C16   C     C_R   0.201334 0.302645 0.624798 0.128094
C17   C     C_R   0.228182 0.270862 0.565631 -0.015825
C18   C     C_R   0.304610 0.325112 0.574402 -0.054110
C19   C     C_R   0.180253 0.187365 0.497294 -0.081321
C20   C     C_R   0.190858 0.166840 0.424713 0.082773
C21   C     C_R   0.248723 0.232927 0.420216 0.044177
C22   C     C_R   0.311036 0.311819 0.498327 -0.073900
C23   C     C_R   0.140591 0.083034 0.354731 -0.189844
C24   C     C_R   0.146921 0.064338 0.280902 -0.257257
C25   C     C_R   0.197205 0.129870 0.271552 0.340497
C26   C     C_R   0.240003 0.215690 0.337606 0.054001
H7    H     H_    0.096671 0.030301 0.356445 0.158090
H8    H     H_    0.110346 0.998664 0.229844 0.198369
H9    H     H_    0.390575 0.405128 0.114716 0.212181
C27   C     C_R   0.214481 0.506661 0.398204 0.189130
C28   C     C_R   0.146292 0.522122 0.404381 0.223914
C29   C     C_R   0.093066 0.534402 0.342448 0.221931
C30   C     C_R   0.107949 0.531115 0.274562 -0.220757
C31   C     C_R   0.173602 0.513350 0.264631 0.040663
C32   C     C_R   0.229828 0.501999 0.327284 -0.057678
C33   C     C_R   0.186430 0.511944 0.194671 -0.002474
C34   C     C_R   0.258151 0.505226 0.189388 -0.037894
C35   C     C_R   0.292178 0.464724 0.231296 -0.008163
C36   C     C_R   0.293819 0.481367 0.311724 -0.111385
C37   C     C_R   0.295173 0.533491 0.141746 0.257510
C38   C     C_R   0.346117 0.499071 0.117499 0.270501
C39   C     C_R   0.359998 0.439139 0.141152 -0.206100
C40   C     C_R   0.331873 0.419690 0.195637 0.340357
H10   H     H_    0.068664 0.545781 0.230660 0.196260
H11   H     H_    0.885923 0.590899 0.577067 0.161646
C41   C     C_R   0.580120 0.731789 0.434309 0.177309
C42   C     C_R   0.563196 0.802646 0.444965 0.155610
C43   C     C_R   0.631018 0.884189 0.478689 0.220732
C44   C     C_R   0.715891 0.895661 0.504124 0.046096
C45   C     C_R   0.734560 0.825802 0.501238 0.042480
C46   C     C_R   0.666293 0.746653 0.476249 -0.089912
C47   C     C_R   0.819126 0.833305 0.527856 -0.118391
C48   C     C_R   0.837974 0.776268 0.558202 -0.035730
C49   C     C_R   0.769636 0.693148 0.521775 -0.014984
C50   C     C_R   0.684722 0.683036 0.491844 -0.061331
C51   C     C_R   0.920991 0.795471 0.620100 0.414975
C52   C     C_R   0.935459 0.728048 0.630417 0.079971
C53   C     C_R   0.871625 0.643238 0.576380 -0.145062
C54   C     C_R   0.789912 0.624570 0.519759 0.121749
O9    O     O_R   0.946100 0.356720 0.906240 -0.615065
O10   O     O_R   0.049540 0.460090 0.906170 -0.613368
C55   C     C_R   0.001625 0.380709 0.880304 0.889780
O11   O     O_R   0.853530 0.448360 0.905250 -0.564152
O12   O     O_R   0.956970 0.551730 0.905180 -0.594677
C56   C     C_R   0.877525 0.500732 0.876430 0.831546
Zn3   Zn    Zn3+2 0.928290 0.431030 0.997370 1.096069
Zn4   Zn    Zn3+2 0.066410 0.569060 0.997270 1.177031
O13   O     O_R   0.945170 0.540000 0.088470 -0.614807
O14   O     O_R   0.048600 0.643370 0.088400 -0.596297
O15   O     O_R   0.037740 0.448360 0.089460 -0.591351
O16   O     O_R   0.141170 0.551730 0.089390 -0.539120
C57   C     C_R   0.998264 0.620836 0.118624 0.830737
C58   C     C_R   0.118294 0.502928 0.120670 0.922060
O17   O     O_R   0.948510 0.908450 0.356890 -0.620329
O18   O     O_R   0.052500 0.908420 0.460860 -0.520835
C59   C     C_R   0.005326 0.882348 0.383247 0.830220
O19   O     O_R   0.039610 0.091640 0.448030 -0.643378
O20   O     O_R   0.143600 0.091610 0.551990 -0.552618
C60   C     C_R   0.118342 0.121810 0.501311 0.881533
Zn5   Zn    Zn3+2 0.930570 0.000030 0.430590 0.988184
Zn6   Zn    Zn3+2 0.069430 0.999990 0.569430 1.210274
O21   O     O_R   0.947500 0.091600 0.539170 -0.645646
O22   O     O_R   0.051490 0.091570 0.643140 -0.582731
O23   O     O_R   0.856400 0.908420 0.448030 -0.608800
O24   O     O_R   0.960390 0.908390 0.552000 -0.566210
C61   C     C_R   0.991954 0.115141 0.617820 0.808476
C62   C     C_R   0.880722 0.885118 0.507143 0.849223
C63   C     C_R   0.027269 0.400289 0.740289 -0.244901
C64   C     C_R   0.004006 0.400983 0.663128 -0.197846
C65   C     C_R   0.949400 0.324134 0.587745 0.190482
C66   C     C_R   0.926293 0.245198 0.590676 0.189035
C67   C     C_R   0.967533 0.245223 0.669525 0.013213
C68   C     C_R   0.003035 0.321849 0.744160 0.008787
C69   C     C_R   0.976580 0.174209 0.678537 -0.141055
C70   C     C_R   0.984175 0.168443 0.753144 -0.010303
C71   C     C_R   0.005083 0.241375 0.825305 -0.061627
C72   C     C_R   0.010484 0.316849 0.819013 -0.073711
C73   C     C_R   0.962115 0.089073 0.754462 -0.235272
C74   C     C_R   0.950860 0.080540 0.821518 0.253405
C75   C     C_R   0.986451 0.155268 0.898443 0.158519
C76   C     C_R   0.021475 0.236811 0.902406 0.211676
H12   H     H_    0.067708 0.462380 0.795694 0.218869
H13   H     H_    0.024781 0.462242 0.662660 0.190027
H14   H     H_    0.946611 0.031702 0.701196 0.191519
C77   C     C_R   0.157469 0.794819 0.230899 0.346100
C78   C     C_R   0.213692 0.882197 0.262474 0.032565
C79   C     C_R   0.216873 0.943162 0.330676 -0.220112
C80   C     C_R   0.162127 0.917788 0.363126 0.213772
C81   C     C_R   0.085876 0.836764 0.310984 -0.055411
C82   C     C_R   0.082471 0.772288 0.242798 -0.064490
C83   C     C_R   0.015543 0.816182 0.327465 -0.088590
C84   C     C_R   0.956384 0.730203 0.293253 -0.059283
C85   C     C_R   0.937431 0.672540 0.213372 0.040352
C86   C     C_R   0.004805 0.689651 0.190449 -0.139038
C87   C     C_R   0.916919 0.699420 0.337016 0.264357
C88   C     C_R   0.840413 0.622086 0.291046 -0.141421
C89   C     C_R   0.805035 0.575015 0.203480 0.174076
C90   C     C_R   0.852625 0.601081 0.163302 0.153586
H15   H     H_    0.270548 0.007587 0.366406 0.214234
H16   H     H_    0.808756 0.598094 0.323534 0.188045
C91   C     C_3   0.811379 0.634062 0.917985 -0.775607
H17   H     H_    0.784101 0.647587 0.961831 0.248881
H18   H     H_    0.878380 0.648367 0.956831 0.233874
H19   H     H_    0.810850 0.682543 0.896295 0.270144
C92   C     C_3   0.793102 0.655161 0.716040 -0.719665
H20   H     H_    0.745451 0.651622 0.659586 0.198559
H21   H     H_    0.784044 0.687363 0.770357 0.274383
H22   H     H_    0.857251 0.696342 0.726483 0.275635
N1    N     N_R   0.931658 0.645271 0.832175 0.234852
O25   O     O_R   0.009716 0.658799 0.847347 -0.357450
O26   O     O_R   0.924152 0.712390 0.870449 -0.391292
N2    N     N_R   0.200734 0.109608 0.193123 0.231779
O27   O     O_R   0.135694 0.044866 0.122407 -0.287204
O28   O     O_R   0.273225 0.146977 0.194077 -0.300286
N3    N     N_R   0.456940 0.426996 0.678118 0.187814
O29   O     O_R   0.488550 0.378080 0.648807 -0.471700
O30   O     O_R   0.503701 0.510252 0.722156 -0.399720
C93   C     C_3   0.420804 0.469710 0.817048 -0.645012
H23   H     H_    0.400802 0.470353 0.866085 0.251646
H24   H     H_    0.473975 0.452210 0.830871 0.279484
H25   H     H_    0.445460 0.536170 0.825177 0.269450
C94   C     C_3   0.236825 0.391819 0.777096 -0.742591
H26   H     H_    0.267710 0.375956 0.826859 0.265319
H27   H     H_    0.256285 0.461824 0.805468 0.268468
H28   H     H_    0.166932 0.356814 0.753851 0.239017
C95   C     C_3   0.109847 0.285737 0.592362 -0.807036
H29   H     H_    0.080540 0.247660 0.617910 0.220436
H30   H     H_    0.108520 0.348240 0.613634 0.268078
H31   H     H_    0.072392 0.251493 0.522069 0.255048
C96   C     C_3   0.251816 0.283723 0.310308 -0.666751
H32   H     H_    0.307551 0.295126 0.298764 0.300974
H33   H     H_    0.193010 0.262439 0.251778 0.272488
H34   H     H_    0.261219 0.343812 0.357426 0.198544
N4    N     N_R   0.259198 0.486721 0.460383 0.186021
O31   O     O_R   0.218184 0.412285 0.454622 -0.423587
O32   O     O_R   0.315259 0.550487 0.535938 -0.291317
N5    N     N_R   0.127390 0.518535 0.471166 0.273667
O33   O     O_R   0.055735 0.457403 0.453278 -0.359004
O34   O     O_R   0.179746 0.578329 0.549328 -0.276245
N6    N     N_R   0.022985 0.549781 0.347178 0.239738
O35   O     O_R   0.027616 0.590775 0.420062 -0.273036
O36   O     O_R   0.955093 0.525625 0.278035 -0.399201
N7    N     N_R   0.304123 0.613189 0.141938 0.252943
O37   O     O_R   0.285318 0.619371 0.072309 -0.283507
O38   O     O_R   0.344613 0.682934 0.214218 -0.233131
N8    N     N_R   0.382592 0.522828 0.067441 0.241572
O39   O     O_R   0.461288 0.537071 0.086136 -0.351296
O40   O     O_R   0.332675 0.511890 0.993937 -0.344875
N9    N     N_R   0.320972 0.338876 0.192504 0.198100
O41   O     O_R   0.243784 0.274277 0.145954 -0.296010
O42   O     O_R   0.386363 0.322859 0.207972 -0.340725
N10   N     N_R   0.513794 0.646595 0.368388 0.205150
O43   O     O_R   0.534469 0.592762 0.326582 -0.387999
O44   O     O_R   0.434210 0.631295 0.334337 -0.375748
N11   N     N_R   0.477529 0.792449 0.422505 0.291769
O45   O     O_R   0.434458 0.757693 0.455034 -0.279965
O46   O     O_R   0.446208 0.826249 0.377714 -0.246030
N12   N     N_R   0.613674 0.956295 0.488490 0.237463
O47   O     O_R   0.579531 0.978387 0.536453 -0.301233
O48   O     O_R   0.630989 0.999266 0.448682 -0.369742
C97   C     C_3   0.784672 0.985732 0.544741 -0.719893
H35   H     H_    0.786293 0.000731 0.493136 0.268053
H36   H     H_    0.773022 0.031372 0.588801 0.244992
H37   H     H_    0.847025 0.993756 0.583933 0.183343
N13   N     N_R   0.986751 0.882050 0.680522 0.189009
O49   O     O_R   0.061588 0.907896 0.682945 -0.336519
O50   O     O_R   0.983801 0.919501 0.749616 -0.346795
C98   C     C_3   0.020082 0.745389 0.696404 -0.632352
H38   H     H_    0.018838 0.685556 0.697827 0.219382
H39   H     H_    0.072412 0.773188 0.682298 0.285498
H40   H     H_    0.034583 0.790766 0.760336 0.276844
C99   C     C_3   0.735399 0.533992 0.447417 -0.778094
H41   H     H_    0.687927 0.531281 0.391296 0.271587
H42   H     H_    0.776359 0.510481 0.425529 0.242216
H43   H     H_    0.703774 0.490067 0.468437 0.237449
N14   N     N_R   0.986661 0.148413 0.971636 0.275397
O51   O     O_R   0.933432 0.163865 0.997133 -0.311547
O52   O     O_R   0.043681 0.132181 0.015953 -0.218544
C100  C     C_3   0.781510 0.342857 0.706149 -0.818229
H44   H     H_    0.771439 0.322294 0.640302 0.245083
H45   H     H_    0.850801 0.369110 0.748984 0.227130
H46   H     H_    0.747744 0.282716 0.707738 0.264821
C101  C     C_3   0.917376 0.327446 0.505154 -0.800270
H47   H     H_    0.951130 0.393387 0.514304 0.277673
H48   H     H_    0.929020 0.283487 0.459535 0.262469
H49   H     H_    0.847685 0.308630 0.477737 0.229629
C102  C     C_3   0.841300 0.170378 0.520050 -0.777120
H50   H     H_    0.811585 0.132524 0.546124 0.246529
H51   H     H_    0.794359 0.192580 0.495124 0.237002
H52   H     H_    0.847844 0.131722 0.466272 0.259659
N15   N     N_R   0.898810 0.996575 0.808378 0.264361
O53   O     O_R   0.912264 0.977768 0.870501 -0.252706
O54   O     O_R   0.835563 0.938280 0.733208 -0.373753
N16   N     N_R   0.082849 0.312541 0.982974 0.204757
O55   O     O_R   0.085136 0.315764 0.053370 -0.337822
O56   O     O_R   0.147533 0.371076 0.987520 -0.438400
C103  C     C_3   0.718429 0.495851 0.154611 -0.761698
H53   H     H_    0.692910 0.483076 0.197176 0.239570
H54   H     H_    0.670926 0.504259 0.108532 0.259914
H55   H     H_    0.724311 0.438628 0.120170 0.258096
N17   N     N_R   0.191974 0.735929 0.213836 0.233692
O57   O     O_R   0.202052 0.696247 0.258941 -0.371325
O58   O     O_R   0.222053 0.729330 0.160225 -0.309629
C104  C     C_3   0.282233 0.909637 0.237054 -0.626025
H56   H     H_    0.315289 0.980718 0.263036 0.224913
H57   H     H_    0.331459 0.889451 0.261227 0.293517
H58   H     H_    0.252517 0.880472 0.166854 0.257382
N18   N     N_R   0.197317 0.962659 0.453589 0.224692
O59   O     O_R   0.203553 0.918841 0.494966 -0.258126
O60   O     O_R   0.248573 0.045204 0.494830 -0.388119
N19   N     N_R   0.963147 0.735020 0.427383 0.230558
O61   O     O_R   0.046451 0.765948 0.465174 -0.254857
O62   O     O_R   0.922198 0.712799 0.466628 -0.430765
C105  C     C_3   0.804980 0.563736 0.069065 -0.695274
H59   H     H_    0.785164 0.493805 0.038654 0.290567
H60   H     H_    0.747351 0.574124 0.052032 0.259061
H61   H     H_    0.843884 0.596099 0.045204 0.205265
C106  C     C_3   0.891826 0.509708 0.715214 -0.881033
H62   H     H_    0.936249 0.493049 0.754056 0.262987
H63   H     H_    0.841765 0.451397 0.655131 0.223989
H64   H     H_    0.928579 0.551262 0.695233 0.237591
N20   N     N_R   0.707579 0.489952 0.876719 0.202902
O63   O     O_R   0.653883 0.512036 0.896513 -0.398731
O64   O     O_R   0.708703 0.421229 0.879707 -0.390088

loop_
_geom_bond_atom_site_label_1
_geom_bond_atom_site_label_2
_geom_bond_distance
_ccdc_geom_bond_type
C5    C6    1.540163 S    
C45   C47   1.428612 A    
C59   C83   1.446606 S    
C25   C26   1.415382 A    
C89   C90   1.416910 A    
C97   H37   1.082635 S    
C52   C53   1.390144 A    
C35   C36   1.440379 A    
N12   O48   1.301071 A    
C19   C20   1.399273 A    
C6    C10   1.595034 S    
C47   C62   1.497262 S    
C57   C86   1.471161 S    
C84   C85   1.387740 A    
O11   Zn3   2.029742 S    
C73   C74   1.401253 A    
C38   C39   1.386125 A    
C102  H52   1.108208 S    
C79   C80   1.390423 A    
C96   H33   1.110384 S    
N5    O33   1.300724 A    
C67   C68   1.399632 A    
Zn1   O7    2.021164 S    
C91   H18   1.108674 S    
C10   C11   1.654883 S    
C13   C14   1.421008 A    
C30   H10   1.080403 S    
C41   C46   1.421303 A    
C101  H47   1.110261 S    
C20   C21   1.404894 A    
C21   C22   1.447410 A    
N2    O28   1.300696 A    
C95   H29   1.087719 S    
O2    C1    1.299034 A    
C48   C49   1.409512 A    
C92   H21   1.104967 S    
C71   C76   1.426150 A    
O12   C56   1.282201 A    
O7    C4    1.284732 A    
C77   N17   1.430366 S    
N9    O42   1.301891 A    
C46   C50   1.414396 A    
C13   N3    1.418525 S    
C65   C66   1.415659 A    
O10   Zn4   2.037438 S    
C105  H60   1.108128 S    
C74   C75   1.404587 A    
Zn5   O23   2.024706 S    
C76   N16   1.442198 S    
C37   C38   1.407966 A    
N10   O44   1.295524 A    
C6    H3    1.097169 S    
N13   O49   1.302283 A    
C26   C96   1.492189 S    
C21   C26   1.432822 A    
C97   H36   1.110613 S    
C2    C9    1.472978 S    
O5    C3    1.277068 A    
C69   C70   1.414892 A    
C63   C64   1.386199 A    
C106  H63   1.102375 S    
C94   H28   1.104184 S    
Zn6   O22   2.015355 S    
N8    O39   1.301245 A    
C78   C104  1.506910 S    
C28   C29   1.397887 A    
C1    C22   1.465816 S    
Zn5   O21   2.047932 S    
C88   C89   1.391544 A    
C8    H6    1.092979 S    
C16   C95   1.491507 S    
C29   C30   1.387397 A    
C31   C33   1.414301 A    
C66   C67   1.436427 A    
C49   C50   1.416335 A    
C80   N18   1.435305 S    
C103  H53   1.111070 S    
C93   H24   1.110120 S    
C88   H16   1.083387 S    
C34   C37   1.431699 A    
C105  H61   1.098492 S    
C5    C9    1.558213 S    
C4    C36   1.487557 S    
C7    C11   1.589247 S    
N3    O29   1.300790 A    
O24   C62   1.280870 A    
C8    C12   1.534845 S    
N17   O57   1.299890 A    
C63   C68   1.415668 A    
C94   H27   1.110308 S    
C98   H38   1.110426 S    
N13   O50   1.295971 A    
C33   C58   1.464962 S    
N16   O55   1.300449 A    
C51   N13   1.434278 S    
O12   Zn4   2.045150 S    
C73   H14   1.075459 S    
C103  H55   1.110135 S    
C71   C72   1.416570 A    
N1    O26   1.296760 A    
N1    O25   1.305008 A    
C66   C102  1.504508 S    
C35   C40   1.427950 A    
N19   O62   1.294133 A    
C7    C9    1.554987 S    
N18   O59   1.301811 A    
O15   C58   1.306644 A    
C91   H19   1.102615 S    
H9    C39   1.083709 S    
C77   C78   1.409259 A    
C53   C54   1.392826 A    
C99   H42   1.111686 S    
N11   O45   1.301712 A    
C15   C94   1.515891 S    
C45   C46   1.410066 A    
N2    O27   1.301549 A    
C93   H25   1.109457 S    
O3    C2    1.288151 A    
C100  H46   1.112001 S    
O9    Zn3   2.025568 S    
O18   C59   1.262619 A    
O11   C56   1.292657 A    
C47   C48   1.434315 A    
C23   H7    1.079414 S    
C3    C50   1.470880 S    
C106  H64   1.110778 S    
O3    Zn1   2.053612 S    
C39   C40   1.394228 A    
Zn3   O15   2.045276 S    
C27   C32   1.443213 A    
C20   C23   1.413725 A    
C104  H58   1.110232 S    
C102  H50   1.096674 S    
N7    O37   1.300912 A    
C79   H15   1.083891 S    
N10   O43   1.301887 A    
O1    C1    1.283288 A    
C94   H26   1.109540 S    
O23   C62   1.320311 A    
C48   C51   1.443090 A    
N20   O64   1.298394 A    
C100  H44   1.109045 S    
N11   O46   1.301419 A    
C63   H12   1.075028 S    
C74   N15   1.440990 S    
C41   C42   1.409874 A    
C81   C83   1.409219 A    
C101  H48   1.110416 S    
C95   H31   1.109442 S    
C54   C99   1.506365 S    
O17   C59   1.312399 A    
N15   O53   1.300860 A    
C98   H40   1.110163 S    
C24   H8    1.083143 S    
C14   C15   1.409262 A    
Zn2   O8    2.053610 S    
O17   Zn5   2.015266 S    
C104  H57   1.110292 S    
C17   C18   1.381031 A    
C93   H23   1.105483 S    
C38   N8    1.434258 S    
O20   C60   1.291045 A    
C31   C32   1.423134 A    
C89   C103  1.510064 S    
O18   Zn6   2.047799 S    
N16   O56   1.300770 A    
C103  H54   1.109587 S    
C52   C98   1.507863 S    
C99   H41   1.109856 S    
C11   N1    1.506244 S    
C28   N5    1.434352 S    
N5    O34   1.300640 A    
C87   N19   1.433532 S    
C44   C97   1.487810 S    
Zn2   O6    2.026429 S    
C24   C25   1.386519 A    
N15   O54   1.302178 A    
N14   O52   1.301011 A    
C30   C31   1.410704 A    
O19   Zn5   2.040181 S    
Zn3   O13   2.037355 S    
N17   O58   1.300658 A    
C81   C82   1.414296 A    
C8    H5    1.110746 S    
C92   H22   1.107312 S    
C55   C72   1.460065 S    
C90   C105  1.493830 S    
C87   C88   1.396916 A    
C84   C87   1.412074 A    
C23   C24   1.381177 A    
C33   C34   1.408058 A    
C8    C9    1.551369 S    
C41   N10   1.442290 S    
C85   C86   1.433569 A    
C64   C65   1.391081 A    
O14   C57   1.280557 A    
Zn1   O5    2.038271 S    
N18   O60   1.301231 A    
C27   C28   1.414371 A    
N6    O35   1.300990 A    
C19   C60   1.433618 S    
C70   C71   1.405907 A    
Zn4   O14   2.025568 S    
C18   C22   1.432111 A    
C10   C12   1.618705 S    
C15   C16   1.408268 A    
O2    Zn2   2.038271 S    
C12   C91   1.558967 S    
O13   C57   1.305497 A    
N6    O36   1.300971 A    
O9    C55   1.300818 A    
C51   C52   1.414353 A    
O6    C3    1.305779 A    
Zn4   O16   2.029746 S    
O4    Zn2   2.021166 S    
N19   O61   1.301658 A    
C102  H51   1.108698 S    
C34   C35   1.392903 A    
C68   C72   1.414034 A    
H11   C53   1.084239 S    
C10   C56   1.480468 S    
C91   H17   1.108577 S    
C12   N20   1.501818 S    
O20   Zn6   2.024830 S    
C16   C17   1.404466 A    
C106  H62   1.105657 S    
C100  H45   1.106049 S    
N20   O63   1.304476 A    
O8    C4    1.311722 A    
C7    C92   1.549022 S    
C77   C82   1.439724 A    
C75   N14   1.430505 S    
C95   H30   1.107188 S    
O21   C61   1.280357 A    
C92   H20   1.107969 S    
C43   C44   1.410966 A    
C101  H49   1.108833 S    
N12   O47   1.301144 A    
N9    O41   1.300531 A    
O4    C2    1.281832 A    
C96   H32   1.098806 S    
N4    O32   1.301775 A    
C99   H43   1.109944 S    
C42   N11   1.437625 S    
C5    H1    1.111162 S    
C13   C18   1.426317 A    
C43   N12   1.437772 S    
C104  H56   1.111358 S    
C17   C19   1.398918 A    
C67   C69   1.431802 A    
C75   C76   1.412890 A    
C40   N9    1.425413 S    
C70   C73   1.409566 A    
C32   C36   1.443700 A    
N3    O30   1.300875 A    
C97   H35   1.105364 S    
C11   C106  1.566237 S    
N8    O40   1.300550 A    
C85   C90   1.431945 A    
C105  H59   1.108384 S    
C6    C100  1.558667 S    
C61   C69   1.481999 S    
C42   C43   1.395337 A    
C27   N4    1.428461 S    
C14   C93   1.518002 S    
O22   C61   1.315060 A    
H4    C7    1.114841 S    
C96   H34   1.095859 S    
O19   C60   1.276747 A    
C44   C45   1.428911 A    
N4    O31   1.300395 A    
C49   C54   1.425050 A    
C65   C101  1.508609 S    
O16   C58   1.273305 A    
C82   C86   1.456253 A    
O10   C55   1.277596 A    
C64   H13   1.083477 S    
O1    Zn1   2.026430 S    
N7    O38   1.299137 A    
C78   C79   1.382895 A    
C5    H2    1.112835 S    
C98   H39   1.109427 S    
Zn6   O24   2.040174 S    
C83   C84   1.395037 A    
N14   O51   1.300770 A    
C80   C81   1.428997 A    
C29   N6    1.439988 S    
C37   N7    1.431986 S    
C25   N2    1.438305 S    
