data_mof_unit_50313.cif
_audit_creation_date              2013-03-05T15:53:06-0500
_audit_creation_method            fapswitch 2.2
_symmetry_space_group_name_H-M    P1
_symmetry_Int_Tables_number       1
_space_group_crystal_system       triclinic
_cell_length_a                    9.885766
_cell_length_b                    10.722049
_cell_length_c                    15.210279
_cell_angle_alpha                 91.584878
_cell_angle_beta                  69.484073
_cell_angle_gamma                 89.077568
_cell_volume                      1508.81754335

loop_
_atom_site_label
_atom_site_type_symbol
_atom_site_description
_atom_site_fract_x
_atom_site_fract_y
_atom_site_fract_z
_atom_type_partial_charge
O1    O     O_R   0.385310 0.683220 0.500000 -0.659046
O2    O     O_R   0.614640 0.683250 0.500010 -0.642508
C1    C     C_R   0.500635 0.740305 0.494858 0.862625
O3    O     O_R   0.319840 0.499980 0.632240 -0.635323
O4    O     O_R   0.549160 0.500000 0.632250 -0.608415
C2    C     C_R   0.411093 0.495663 0.676301 0.837780
Zn1   Zn    Zn3+2 0.346880 0.499980 0.499990 0.980644
Zn2   Zn    Zn3+2 0.653120 0.500020 0.500010 0.973899
O5    O     O_R   0.385360 0.316750 0.499990 -0.607008
O6    O     O_R   0.614690 0.316780 0.500000 -0.606754
O7    O     O_R   0.450840 0.500000 0.367750 -0.550535
O8    O     O_R   0.680160 0.500020 0.367760 -0.614499
C3    C     C_R   0.495186 0.261315 0.509883 0.914963
C4    C     C_R   0.589620 0.492833 0.323394 0.921181
C5    C     C_R   0.364874 0.456177 0.773558 -0.067571
C6    C     C_R   0.645768 0.466371 0.221011 -0.185003
C7    C     C_R   0.209847 0.332129 0.897845 -0.150753
C8    C     C_R   0.234333 0.396067 0.815076 -0.233701
C9    C     C_R   0.468356 0.453968 0.816488 -0.132163
C10   C     C_R   0.453240 0.378880 0.892666 0.086489
C11   C     C_R   0.319435 0.321201 0.936981 0.038910
C12   C     C_R   0.564727 0.369864 0.930507 -0.059126
C13   C     C_R   0.525613 0.341168 0.025791 -0.028438
C14   C     C_R   0.401028 0.269808 0.064523 -0.161888
C15   C     C_R   0.299034 0.257130 0.020191 0.268424
C16   C     C_R   0.711897 0.393064 0.878621 0.304938
C17   C     C_R   0.803523 0.424169 0.927383 -0.276251
C18   C     C_R   0.752427 0.429829 0.025317 0.066832
C19   C     C_R   0.612392 0.387036 0.076875 0.010199
C20   C     C_R   0.840364 0.479386 0.071637 -0.144069
C21   C     C_R   0.787097 0.498440 0.168457 -0.197393
C22   C     C_R   0.560246 0.405339 0.176196 0.292157
H1    H     H_    0.855521 0.541654 0.202099 0.186655
H2    H     H_    0.105614 0.291007 0.929967 0.194575
H3    H     H_    0.384786 0.217762 0.126775 0.228408
H4    H     H_    0.721583 0.885389 0.480819 0.173433
C23   C     C_R   0.244162 0.894609 0.487864 -0.145558
H5    H     H_    0.250030 0.809750 0.446780 0.177357
C24   C     C_R   0.111234 0.959233 0.519670 -0.145953
C25   C     C_R   0.096852 0.072557 0.568986 -0.127286
C26   C     C_R   0.218679 0.126991 0.577702 -0.129830
C27   C     C_R   0.356761 0.067504 0.537096 0.098345
C28   C     C_R   0.365626 0.943099 0.505332 0.100858
C29   C     C_R   0.496221 0.874512 0.492429 -0.118167
C30   C     C_R   0.620477 0.935466 0.491979 -0.206842
C31   C     C_R   0.617460 0.062466 0.503815 -0.170709
C32   C     C_R   0.487569 0.129257 0.523100 -0.119174
H6    H     H_    0.929921 0.350278 0.401614 0.169202
C33   C     C_R   0.792158 0.667519 0.621745 -0.153079
H7    H     H_    0.681938 0.673051 0.627409 0.196755
C34   C     C_R   0.829060 0.748047 0.682496 -0.200151
H8    H     H_    0.748266 0.811412 0.729991 0.165851
C35   C     C_R   0.968722 0.746447 0.683066 -0.159059
H9    H     H_    0.996963 0.808738 0.730795 0.164923
C36   C     C_R   0.072633 0.665046 0.622300 -0.131783
H10   H     H_    0.177195 0.668257 0.627373 0.199520
C37   C     C_R   0.039468 0.583102 0.559146 0.175941
C38   C     C_R   0.894648 0.583425 0.559120 0.216876
N1    N     N_R   0.856800 0.501200 0.500850 -0.123888
C39   C     C_R   0.958897 0.417637 0.445812 -0.085876
H11   H     H_    0.178188 0.346925 0.405204 0.226064
C40   C     C_R   0.101433 0.416805 0.446798 -0.017667
N2    N     N_R   0.142390 0.501280 0.500880 -0.137852
N3    N     N_R   0.174393 0.183052 0.062392 0.203520
O9    O     O_R   0.134079 0.103001 0.011195 -0.392709
O10   O     O_R   0.114607 0.181577 0.153428 -0.361352
H12   H     H_    0.948740 0.508664 0.032408 0.155303
H13   H     H_    0.018702 0.919946 0.507673 0.148610
H14   H     H_    0.992503 0.120375 0.597553 0.183253
H15   H     H_    0.203949 0.215643 0.616119 0.170482
H16   H     H_    0.717856 0.108290 0.495691 0.179846
N4    N     N_R   0.419101 0.367632 0.232115 0.179381
O11   O     O_R   0.305797 0.433254 0.234634 -0.408343
O12   O     O_R   0.404850 0.270914 0.284181 -0.426360
H17   H     H_    0.914104 0.447778 0.888853 0.175049
H18   H     H_    0.153679 0.394946 0.781948 0.190767
H19   H     H_    0.563918 0.508810 0.787843 0.163135
N5    N     N_R   0.772860 0.371652 0.778217 0.193103
O13   O     O_R   0.719397 0.287690 0.737185 -0.405566
O14   O     O_R   0.895901 0.419273 0.730171 -0.448601

loop_
_geom_bond_atom_site_label_1
_geom_bond_atom_site_label_2
_geom_bond_distance
_ccdc_geom_bond_type
C5    C8    1.399155 A    
C36   H10   1.064211 S    
C26   C27   1.418039 A    
C9    C10   1.395426 A    
C22   N4    1.427985 S    
C30   C31   1.367073 A    
C6    C21   1.398962 A    
C5    C9    1.393457 A    
C16   C17   1.395970 A    
C40   N2    1.365658 A    
C13   C19   1.428709 A    
C18   C19   1.421742 A    
C19   C22   1.421598 A    
Zn2   N1    2.018287 S    
C20   C21   1.387109 A    
O7    C4    1.299333 A    
N5    O14   1.300718 A    
C39   C40   1.414292 A    
C24   H13   1.082897 S    
C9    H19   1.082408 S    
O5    C3    1.285836 A    
C2    C5    1.464069 S    
C33   C34   1.390945 A    
C13   C14   1.412819 A    
C21   H1    1.083354 S    
H6    C39   1.081842 S    
C20   H12   1.084221 S    
N1    C39   1.363603 A    
O3    Zn1   1.934149 S    
C17   H17   1.081956 S    
C37   N2    1.373501 A    
C35   C36   1.390059 A    
C1    C29   1.440823 S    
C14   H3    1.076703 S    
C25   H14   1.082717 S    
C34   H8    1.082750 S    
C14   C15   1.402048 A    
N4    O12   1.301667 A    
C24   C25   1.388717 A    
C3    C32   1.435103 S    
N5    O13   1.301827 A    
C38   N1    1.379351 A    
C35   H9    1.082718 S    
C7    C11   1.411918 A    
C33   C38   1.411910 A    
C34   C35   1.383561 A    
C15   N3    1.437524 S    
N3    O10   1.301848 A    
C23   C28   1.420842 A    
Zn1   O7    1.911296 S    
C28   C29   1.424760 A    
C23   H5    1.078499 S    
Zn2   O8    1.934146 S    
C7    C8    1.397489 A    
H4    C30   1.083922 S    
C16   N5    1.441935 S    
Zn1   N2    2.016656 S    
C31   H16   1.083889 S    
O3    C2    1.299692 A    
C25   C26   1.392457 A    
C10   C12   1.414079 A    
C36   C37   1.409092 A    
C12   C16   1.420956 A    
C4    C6    1.475902 S    
C7    H2    1.081001 S    
C29   C30   1.398671 A    
Zn1   O5    1.995068 S    
C11   C15   1.410000 A    
C31   C32   1.393731 A    
C8    H18   1.082293 S    
O1    Zn1   2.007105 S    
O2    Zn2   1.995069 S    
O8    C4    1.298139 A    
N4    O11   1.301618 A    
O6    C3    1.294229 A    
O4    Zn2   1.911296 S    
C6    C22   1.415890 A    
N3    O9    1.301345 A    
C18   C20   1.399261 A    
O2    C1    1.301120 A    
C23   C24   1.395546 A    
C37   C38   1.431744 A    
O4    C2    1.294913 A    
C27   C32   1.413628 A    
H11   C40   1.075361 S    
C10   C11   1.418084 A    
Zn2   O6    2.007104 S    
C33   H7    1.063033 S    
C27   C28   1.396867 A    
C17   C18   1.394397 A    
C12   C13   1.407237 A    
O1    C1    1.281848 A    
C26   H15   1.082294 S    
