data_mof_unit_6780.cif
_audit_creation_date              2012-12-11T14:06:33-0500
_audit_creation_method            fapswitch 2.2
_symmetry_space_group_name_H-M    P1
_symmetry_Int_Tables_number       1
_space_group_crystal_system       triclinic
_cell_length_a                    11.854632
_cell_length_b                    11.968511
_cell_length_c                    19.404126
_cell_angle_alpha                 90.714134
_cell_angle_beta                  89.394125
_cell_angle_gamma                 120.070742
_cell_volume                      2382.33988929

loop_
_atom_site_label
_atom_site_type_symbol
_atom_type_description
_atom_site_fract_x
_atom_site_fract_y
_atom_site_fract_z
_atom_type_partial_charge
C1    C     C_R   0.551420 0.476925 0.596883 0.540485
C2    C     C_R   0.524068 0.077910 0.597676 0.539170
C3    C     C_R   0.922159 0.446916 0.597545 0.532470
C4    C     C_2   0.030514 0.420499 0.306881 -0.108914
C5    C     C_2   0.557267 0.613862 0.313662 -0.137998
C6    C     C_2   0.380788 0.936533 0.314630 -0.146098
C7    C     C_R   0.452124 0.923864 0.928606 0.564942
C8    C     C_R   0.076541 0.527355 0.928609 0.563681
C9    C     C_R   0.442372 0.590704 0.919514 0.557992
C10   C     C_R   0.399407 0.837102 0.130614 0.546266
C11   C     C_R   0.152308 0.560502 0.133523 0.528151
C12   C     C_R   0.437223 0.598969 0.131581 0.542406
C13   C     C_R   0.550679 0.473476 0.402497 0.571968
C14   C     C_R   0.524684 0.073434 0.403500 0.562534
C15   C     C_R   0.930250 0.449974 0.406313 0.569081
C16   C     C_1   0.035029 0.513753 0.858863 0.004277
C17   C     C_1   0.453434 0.564472 0.848398 -0.001170
C18   C     C_1   0.481131 0.964420 0.858698 0.002111
C19   C     C_1   0.993291 0.494975 0.726722 -0.028886
C20   C     C_1   0.485256 0.521996 0.719361 -0.027390
C21   C     C_1   0.500776 0.006388 0.726554 -0.029060
C22   C     C_1   0.013530 0.505806 0.798177 -0.031090
C23   C     C_1   0.465301 0.544493 0.788586 -0.029280
C24   C     C_1   0.493548 0.985804 0.797961 -0.031595
C25   C     C_1   0.969224 0.478932 0.666302 0.008499
C26   C     C_1   0.510163 0.502224 0.661815 0.004890
C27   C     C_1   0.507740 0.030749 0.666284 0.006257
C28   C     C_2   0.031142 0.504833 0.353696 -0.038294
C29   C     C_2   0.496767 0.492740 0.338953 -0.043860
C30   C     C_2   0.500921 0.989122 0.343038 -0.054109
C31   C     C_2   0.108345 0.547981 0.203965 -0.086300
C32   C     C_2   0.441029 0.589335 0.205638 -0.109788
C33   C     C_2   0.408426 0.845886 0.204535 -0.097242
C34   C     C_2   0.100931 0.452823 0.242546 0.283366
C35   C     C_2   0.552793 0.643285 0.241279 0.331518
C36   C     C_2   0.345603 0.890927 0.243201 0.318819
Cr1   Cr    Cr6+3 0.468420 0.238090 0.499960 1.004231
Cr2   Cr    Cr6+3 0.761910 0.230330 0.499960 1.006272
Cr3   Cr    Cr6+3 0.769670 0.531580 0.499960 1.018426
Cr4   Cr    Cr6+3 0.515700 0.760130 0.026360 1.070917
Cr5   Cr    Cr6+3 0.239870 0.755570 0.026360 1.078189
Cr6   Cr    Cr6+3 0.244430 0.484300 0.026360 1.082258
H1    H     H_    0.963939 0.317985 0.311781 0.155330
H2    H     H_    0.635152 0.691955 0.342805 0.148552
H3    H     H_    0.306118 0.948355 0.340876 0.156281
H4    H     H_    0.073284 0.611127 0.222775 0.112959
H5    H     H_    0.349516 0.541642 0.232061 0.065241
H6    H     H_    0.468753 0.813392 0.225930 0.015927
O1    O     O_R   0.434830 0.101190 0.575190 -0.509702
O2    O     O_R   0.898810 0.333640 0.575190 -0.504854
O3    O     O_R   0.666360 0.565170 0.575190 -0.506274
O4    O     O_3   0.333333 0.666667 0.026340 -0.372385
O5    O     O_R   0.480130 0.360720 0.570290 -0.495858
O6    O     O_R   0.639280 0.119410 0.570290 -0.496374
O7    O     O_R   0.880590 0.519870 0.570290 -0.509655
O8    O     O_R   0.439410 0.104260 0.424150 -0.546743
O9    O     O_R   0.895740 0.335150 0.424150 -0.545364
O10   O     O_R   0.664850 0.560590 0.424150 -0.514347
O11   O     O_R   0.484380 0.363570 0.430280 -0.512492
O12   O     O_R   0.636430 0.120810 0.430280 -0.506851
O13   O     O_R   0.879190 0.515620 0.430280 -0.492482
O14   O     O_3   0.666667 0.333333 0.499980 -0.265622
O15   O     O_R   0.548200 0.655360 0.951320 -0.481424
O16   O     O_R   0.344640 0.892840 0.951320 -0.495447
O17   O     O_R   0.107160 0.451800 0.951320 -0.507640
O18   O     O_R   0.505020 0.871000 0.955840 -0.513698
O19   O     O_R   0.129000 0.634020 0.955840 -0.492179
O20   O     O_R   0.365980 0.494980 0.955840 -0.473914
O21   O     O_R   0.543640 0.655270 0.102360 -0.397873
O22   O     O_R   0.344730 0.888370 0.102360 -0.405270
O23   O     O_R   0.111630 0.456360 0.102360 -0.410575
O24   O     O_R   0.500790 0.870920 0.095850 -0.496125
O25   O     O_R   0.129080 0.629870 0.095850 -0.487114
O26   O     O_R   0.370130 0.499210 0.095850 -0.462213
F1    F     F_    0.130073 0.364443 0.215750 -0.655214
F2    F     F_    0.669279 0.724358 0.210781 -0.606215
F3    F     F_    0.247883 0.903906 0.215421 -0.636518
C37   C     C_3   0.138166 0.645353 0.359090 -0.260192
C38   C     C_3   0.213276 0.675514 0.427790 -0.298898
C39   C     C_3   0.180920 0.755902 0.477272 -0.416623
H7    H     H_    0.205907 0.849512 0.453553 0.155496
H8    H     H_    0.076027 0.703553 0.491021 0.188409
H9    H     H_    0.238459 0.775786 0.525234 0.146333
H10   H     H_    0.194239 0.585434 0.453900 0.168692
H11   H     H_    0.319831 0.731134 0.417056 0.149401
H12   H     H_    0.211419 0.668258 0.317824 0.112892
H13   H     H_    0.095495 0.708536 0.351692 0.172430
C40   C     C_3   0.384339 0.378427 0.299710 -0.268599
C41   C     C_3   0.334815 0.238767 0.322098 -0.294271
C42   C     C_3   0.230546 0.143544 0.272584 -0.400515
H14   H     H_    0.151696 0.167038 0.266790 0.200574
H15   H     H_    0.274085 0.146549 0.221186 0.226725
H16   H     H_    0.186457 0.044319 0.293259 0.183709
H17   H     H_    0.417130 0.219467 0.321916 0.208336
H18   H     H_    0.288434 0.221657 0.373870 0.188996
H19   H     H_    0.298588 0.391866 0.303619 0.188719
H20   H     H_    0.415110 0.380940 0.245263 0.186181
C43   C     C_3   0.610329 0.968933 0.311953 -0.265482
C44   C     C_3   0.746804 0.034769 0.344181 -0.291328
C45   C     C_3   0.840519 0.006326 0.303328 -0.425975
H21   H     H_    0.806348 0.901520 0.303563 0.208125
H22   H     H_    0.849567 0.039565 0.249300 0.206317
H23   H     H_    0.938220 0.058146 0.327587 0.134597
H24   H     H_    0.787301 0.140231 0.343681 0.204791
H25   H     H_    0.741621 0.000201 0.397684 0.179188
H26   H     H_    0.575990 0.864405 0.315710 0.143447
H27   H     H_    0.626841 0.003157 0.257874 0.176549

loop_
_geom_bond_atom_site_label_1
_geom_bond_atom_site_label_2
_ccdc_geom_bond_type
C37   H13   S    
C14   O8    A    
C12   O21   A    
C40   H19   S    
C6    H3    S    
C12   O26   A    
Cr3   O3    S    
Cr1   O14   S    
C42   H14   S    
Cr5   O19   S    
C17   C23   T    
Cr4   O15   S    
C18   C24   T    
C13   C29   S    
C36   F3    S    
C38   H10   S    
C11   O23   A    
C33   C36   D    
C41   H17   S    
C1    O5    A    
Cr6   O23   S    
C29   C40   S    
Cr1   O8    S    
C3    O7    A    
Cr3   O7    S    
C31   H4    S    
Cr6   O17   S    
C2    C27   S    
C28   C37   S    
Cr5   O4    S    
C40   H20   S    
C34   F1    S    
Cr1   O5    S    
C37   H12   S    
C44   H24   S    
C21   C27   T    
C11   C31   S    
C8    O17   A    
C8    C16   S    
Cr4   O18   S    
C12   C32   S    
Cr6   O20   S    
C15   O9    A    
C14   C30   S    
C39   H9    S    
Cr3   O13   S    
C4    C28   D    
C3    O2    A    
C5    C29   D    
C44   H25   S    
C4    C34   S    
C35   F2    S    
Cr6   O26   S    
Cr4   O21   S    
C32   C35   D    
C3    C25   S    
C19   C22   S    
C39   H8    S    
C11   O25   A    
C37   C38   S    
C13   O10   A    
Cr4   O4    S    
Cr3   O10   S    
C45   H23   S    
C43   H27   S    
C41   H18   S    
C2    O1    A    
Cr2   O9    S    
Cr1   O1    S    
C42   H15   S    
C44   C45   S    
Cr2   O6    S    
C20   C23   S    
C7    C18   S    
C45   H22   S    
C15   O13   A    
C31   C34   D    
C1    O3    A    
Cr1   O11   S    
Cr2   O12   S    
C10   O22   A    
C9    C17   S    
C6    C30   D    
C5    H2    S    
C2    O6    A    
C1    C26   S    
C32   H5    S    
C38   H11   S    
C42   H16   S    
Cr3   O14   S    
C16   C22   T    
Cr4   O24   S    
C9    O15   A    
C39   H7    S    
Cr2   O2    S    
C4    H1    S    
C14   O12   A    
C30   C43   S    
C43   H26   S    
C41   C42   S    
C9    O20   A    
C7    O18   A    
C15   C28   S    
C20   C26   T    
C5    C35   S    
C45   H21   S    
C6    C36   S    
C10   C33   S    
C19   C25   T    
C7    O16   A    
Cr5   O25   S    
C38   C39   S    
C40   C41   S    
C8    O19   A    
C43   C44   S    
C21   C24   S    
C33   H6    S    
Cr5   O16   S    
C13   O11   A    
Cr6   O4    S    
Cr5   O22   S    
Cr2   O14   S    
C10   O24   A    
