data_mof_unit_65759.cif
_audit_creation_date              2012-12-10T18:35:47-0500
_audit_creation_method            fapswitch 2.2
_symmetry_space_group_name_H-M    P1
_symmetry_Int_Tables_number       1
_space_group_crystal_system       triclinic
_cell_length_a                    25.652303
_cell_length_b                    36.131407
_cell_length_c                    22.125613
_cell_angle_alpha                 89.998838
_cell_angle_beta                  125.335294
_cell_angle_gamma                 89.996834
_cell_volume                      16729.4007712

loop_
_atom_site_label
_atom_site_type_symbol
_atom_type_description
_atom_site_fract_x
_atom_site_fract_y
_atom_site_fract_z
_atom_type_partial_charge
C1    C     C_R   0.608160 0.249922 0.000090 0.780873
C2    C     C_3   0.744303 0.478472 0.054924 -0.521904
C3    C     C_1   0.077136 0.249995 0.654724 -0.106540
C4    C     C_1   0.610669 0.249935 0.721458 -0.136068
C5    C     C_1   0.610666 0.750074 0.721459 -0.137566
C6    C     C_1   0.110673 0.749938 0.721458 -0.140497
C7    C     C_1   0.110676 0.250066 0.721459 -0.135439
C8    C     C_3   0.791100 0.021670 0.082882 0.256423
C9    C     C_3   0.791100 0.978324 0.082882 0.256372
C10   C     C_3   0.290528 0.521670 0.082872 0.256251
C11   C     C_3   0.290528 0.478324 0.082872 0.256402
C12   C     C_3   0.778172 0.021450 0.959156 -0.417960
C13   C     C_3   0.262371 0.021165 0.067938 -0.480833
C14   C     C_3   0.778172 0.978549 0.959156 -0.418312
C15   C     C_3   0.278793 0.521450 0.959832 -0.418929
C16   C     C_3   0.278793 0.478549 0.959832 -0.418770
C17   C     C_1   0.750233 0.889289 0.000276 -0.126565
C18   C     C_1   0.750233 0.110711 0.000277 -0.126320
C19   C     C_1   0.250234 0.389289 0.000277 -0.128687
C20   C     C_1   0.250233 0.610711 0.000277 -0.128859
C21   C     C_3   0.751171 0.036626 0.001582 0.185863
C22   C     C_3   0.751171 0.963374 0.001582 0.185991
C23   C     C_3   0.251165 0.536626 0.001585 0.190335
C24   C     C_3   0.252485 0.978637 0.061445 -0.454941
C25   C     C_3   0.251166 0.463374 0.001585 0.190611
C26   C     C_3   0.682023 0.978489 0.961927 -0.476734
C27   C     C_3   0.682023 0.021517 0.961928 -0.476966
C28   C     C_3   0.181952 0.478489 0.961244 -0.480946
C29   C     C_3   0.181952 0.521517 0.961244 -0.480181
C30   C     C_1   0.750577 0.922627 0.000727 -0.030381
C31   C     C_1   0.750577 0.077373 0.000728 -0.030171
C32   C     C_1   0.250576 0.422627 0.000728 -0.032680
C33   C     C_1   0.250576 0.577373 0.000729 -0.032205
C34   C     C_R   0.650377 0.249955 0.800818 0.827327
C35   C     C_1   0.752439 0.577636 0.998667 0.119168
C36   C     C_R   0.650379 0.750045 0.800819 0.826950
C37   C     C_R   0.150377 0.749955 0.800818 0.822761
C38   C     C_R   0.150379 0.250045 0.800819 0.826695
C39   C     C_R   0.749964 0.150359 0.000019 0.820956
C40   C     C_R   0.749964 0.849641 0.000019 0.820709
C41   C     C_R   0.249964 0.650359 0.000019 0.821386
C42   C     C_R   0.249965 0.349641 0.000019 0.820325
C43   C     C_R   0.749948 0.349498 0.000042 0.824685
C44   C     C_R   0.749959 0.650502 0.000057 0.819089
C45   C     C_R   0.249943 0.849499 0.000036 0.825863
C46   C     C_1   0.752176 0.422360 0.997985 0.050224
C47   C     C_R   0.249955 0.150502 0.000050 0.815008
C48   C     C_3   0.698470 0.478614 0.920879 0.221127
C49   C     C_3   0.695709 0.521856 0.923570 0.132387
C50   C     C_3   0.193163 0.978502 0.923447 0.171393
C51   C     C_3   0.189323 0.021412 0.930192 0.257277
C52   C     C_3   0.823299 0.477615 0.018720 -0.120309
C53   C     C_3   0.820358 0.522517 0.010215 -0.160359
C54   C     C_3   0.318063 0.977429 0.007208 -0.089290
C55   C     C_3   0.313267 0.022151 0.996287 -0.101445
C56   C     C_1   0.750578 0.610920 0.999111 -0.077750
C57   C     C_1   0.252082 0.077629 0.998452 0.123241
C58   C     C_1   0.750519 0.389080 0.998844 -0.106827
C59   C     C_1   0.250505 0.110917 0.999082 -0.064893
C60   C     C_1   0.250417 0.889084 0.998921 -0.145603
C61   C     C_2   0.874901 0.463833 0.097708 0.312681
C62   C     C_2   0.880895 0.540184 0.077232 0.579842
C63   C     C_2   0.375481 0.964211 0.083764 0.401606
C64   C     C_2   0.377447 0.040247 0.054995 0.588222
C65   C     C_2   0.385220 0.294873 0.427933 0.410502
C66   C     C_2   0.381655 0.708484 0.427956 0.410127
C67   C     C_2   0.886867 0.796291 0.427930 0.411309
C68   C     C_1   0.251727 0.922368 0.997974 -0.133344
C69   C     C_2   0.886098 0.204373 0.427951 0.413279
C70   C     C_2   0.844392 0.459603 0.973401 0.239694
C71   C     C_2   0.820416 0.536029 0.944343 0.379424
C72   C     C_2   0.328413 0.957959 0.953503 0.267249
C73   C     C_2   0.301088 0.034234 0.922690 0.381881
C74   C     C_3   0.973366 0.283846 0.981704 -0.176575
C75   C     C_3   0.973375 0.716154 0.981709 -0.172514
C76   C     C_3   0.473366 0.783845 0.981704 -0.177655
C77   C     C_R   0.608161 0.750079 0.000092 0.780432
C78   C     C_3   0.473375 0.216154 0.981710 -0.171120
C79   C     C_3   0.483577 0.759140 0.932245 -0.178883
C80   C     C_3   0.483577 0.240861 0.932245 -0.179452
C81   C     C_3   0.983577 0.259140 0.932244 -0.178040
C82   C     C_3   0.983577 0.740861 0.932245 -0.180312
C83   C     C_3   0.551016 0.750160 0.000279 0.049514
C84   C     C_3   0.551014 0.249840 0.000275 0.047163
C85   C     C_3   0.051015 0.250161 0.000278 0.049349
C86   C     C_3   0.051014 0.749840 0.000275 0.046739
C87   C     C_3   0.541705 0.774888 0.049781 -0.121950
C88   C     C_R   0.108160 0.749922 0.000090 0.783229
C89   C     C_3   0.541712 0.225111 0.049784 -0.120875
C90   C     C_3   0.041704 0.274888 0.049781 -0.125283
C91   C     C_3   0.041712 0.725110 0.049783 -0.121788
C92   C     C_3   0.016327 0.240872 0.067760 -0.174191
C93   C     C_3   0.016327 0.759125 0.067760 -0.172955
C94   C     C_3   0.516328 0.740872 0.067761 -0.173271
C95   C     C_3   0.516327 0.259126 0.067759 -0.173880
C96   C     C_3   0.526538 0.716166 0.018302 -0.177736
C97   C     C_3   0.526528 0.283833 0.018295 -0.178115
C98   C     C_3   0.026538 0.216167 0.018301 -0.176146
C99   C     C_R   0.108161 0.250079 0.000092 0.779760
C100  C     C_3   0.026528 0.783833 0.018295 -0.177136
C101  C     C_3   0.958201 0.225124 0.950224 -0.129306
C102  C     C_3   0.958193 0.774877 0.950221 -0.130962
C103  C     C_3   0.458201 0.725123 0.950224 -0.131253
C104  C     C_3   0.458193 0.274876 0.950220 -0.130841
C105  C     C_R   0.891742 0.249921 0.999908 0.789058
C106  C     C_R   0.891743 0.750078 0.999909 0.788121
C107  C     C_R   0.391742 0.749920 0.999908 0.784416
C108  C     C_R   0.391743 0.250078 0.999909 0.788448
C109  C     C_3   0.948889 0.249850 0.999726 0.045559
C110  C     C_3   0.755558 0.463177 0.997374 0.177645
C111  C     C_3   0.948890 0.750148 0.999728 0.045162
C112  C     C_3   0.448889 0.749849 0.999726 0.047087
C113  C     C_3   0.448890 0.250148 0.999728 0.044687
C114  C     C_3   0.466087 0.259396 0.544055 -0.458505
C115  C     C_3   0.465397 0.742954 0.544060 -0.459471
C116  C     C_3   0.966451 0.760412 0.544056 -0.458468
C117  C     C_3   0.966281 0.240067 0.544062 -0.457765
C118  C     C_3   0.537081 0.211810 0.542646 -0.385797
C119  C     C_3   0.540179 0.787474 0.542626 -0.385120
C120  C     C_3   0.035709 0.711539 0.542650 -0.385631
C121  C     C_3   0.756038 0.536790 0.998369 0.192912
C122  C     C_3   0.036347 0.288336 0.542635 -0.385883
C123  C     C_3   0.493966 0.211992 0.456685 -0.404077
C124  C     C_3   0.497050 0.787295 0.456665 -0.406386
C125  C     C_3   0.992599 0.711723 0.456689 -0.404297
C126  C     C_3   0.993232 0.288152 0.456674 -0.406321
C127  C     C_1   0.389107 0.250115 0.278529 -0.106715
C128  C     C_1   0.389092 0.749889 0.278529 -0.110188
C129  C     C_1   0.889112 0.750119 0.278529 -0.106104
C130  C     C_1   0.889105 0.249880 0.278528 -0.109615
C131  C     C_3   0.535973 0.250187 0.573204 0.326704
C132  C     C_3   0.254492 0.963204 0.996889 0.109681
C133  C     C_3   0.535946 0.749846 0.573205 0.328014
C134  C     C_3   0.035987 0.750201 0.573204 0.329440
C135  C     C_3   0.035984 0.249806 0.573205 0.326911
C136  C     C_3   0.422065 0.259011 0.457673 -0.136334
C137  C     C_3   0.421409 0.743371 0.457676 -0.135661
C138  C     C_3   0.922415 0.760041 0.457673 -0.136798
C139  C     C_3   0.922249 0.240443 0.457679 -0.138203
C140  C     C_3   0.462446 0.250516 0.426913 0.253029
C141  C     C_3   0.462392 0.749529 0.426913 0.254647
C142  C     C_3   0.962470 0.750537 0.426913 0.253256
C143  C     C_3   0.255091 0.036784 0.997743 0.089527
C144  C     C_3   0.962457 0.249471 0.426913 0.254781
C145  C     C_3   0.517005 0.279392 0.457150 -0.407608
C146  C     C_3   0.514512 0.719061 0.457168 -0.407346
C147  C     C_3   0.018055 0.778687 0.457146 -0.406319
C148  C     C_3   0.017569 0.220976 0.457155 -0.407437
C149  C     C_3   0.559324 0.279701 0.543064 -0.387503
C150  C     C_3   0.556807 0.718782 0.543081 -0.388172
C151  C     C_3   0.060387 0.779008 0.543060 -0.390958
C152  C     C_3   0.059898 0.220663 0.543069 -0.387346
C153  C     C_R   0.849532 0.249915 0.199177 0.821376
C154  C     C_3   0.751821 0.521070 0.060989 -0.475546
C155  C     C_R   0.849534 0.750083 0.199178 0.820415
C156  C     C_R   0.349533 0.749914 0.199177 0.823719
C157  C     C_R   0.349534 0.250084 0.199178 0.820386
C158  C     C_1   0.422207 0.250233 0.345258 -0.091441
C159  C     C_1   0.422177 0.749784 0.345257 -0.092460
C160  C     C_1   0.922219 0.750242 0.345257 -0.091529
C161  C     C_1   0.922208 0.249759 0.345257 -0.092959
C162  C     C_1   0.577127 0.250003 0.654724 -0.106438
C163  C     C_1   0.577115 0.750015 0.654724 -0.107704
C164  C     C_1   0.077135 0.750010 0.654724 -0.109343
H1    H     H_    0.028700 0.233382 0.123288 0.141236
H2    H     H_    0.923059 0.795310 0.909343 0.150320
H3    H     H_    0.076847 0.704677 0.090663 0.160724
H4    H     H_    0.643922 0.533566 0.818520 0.356012
H5    H     H_    0.727520 0.479481 0.855969 0.382580
H6    H     H_    0.180167 0.031715 0.836272 0.389672
H7    H     H_    0.176463 0.942940 0.848158 0.341908
H8    H     H_    0.900441 0.438230 0.105585 0.098579
H9    H     H_    0.926957 0.532663 0.089093 0.034605
H10   H     H_    0.398656 0.938089 0.088549 0.097608
H11   H     H_    0.419468 0.032656 0.057149 0.081403
H12   H     H_    0.410307 0.321105 0.442272 0.072567
H13   H     H_    0.423073 0.704690 0.909348 0.149507
H14   H     H_    0.404557 0.681552 0.442309 0.071899
H15   H     H_    0.912892 0.822189 0.442267 0.072099
H16   H     H_    0.911690 0.178315 0.442297 0.073456
H17   H     H_    0.875625 0.968801 0.104152 0.337412
H18   H     H_    0.875625 0.031186 0.104152 0.337450
H19   H     H_    0.375415 0.468801 0.105170 0.337265
H20   H     H_    0.375415 0.531187 0.105171 0.337273
H21   H     H_    0.887347 0.469736 0.980152 0.058994
H22   H     H_    0.809150 0.517929 0.899395 0.095280
H23   H     H_    0.296208 0.936516 0.916240 0.142648
H24   H     H_    0.423058 0.295310 0.909341 0.150307
H25   H     H_    0.281988 0.015268 0.876555 0.143267
H26   H     H_    0.386683 0.236206 0.439714 0.165375
H27   H     H_    0.387946 0.767235 0.439704 0.165038
H28   H     H_    0.886220 0.737724 0.439717 0.165321
H29   H     H_    0.886429 0.262992 0.439717 0.165296
H30   H     H_    0.448356 0.238648 0.565375 0.171483
H31   H     H_    0.449419 0.764848 0.565367 0.171043
H32   H     H_    0.947983 0.740187 0.565378 0.171394
H33   H     H_    0.028699 0.766613 0.123288 0.142143
H34   H     H_    0.948154 0.260541 0.565378 0.171380
H35   H     H_    0.586883 0.204563 0.562922 0.176663
H36   H     H_    0.590508 0.793058 0.562898 0.175921
H37   H     H_    0.085236 0.703573 0.562925 0.175941
H38   H     H_    0.086004 0.295964 0.562905 0.175722
H39   H     H_    0.520113 0.190127 0.563195 0.170389
H40   H     H_    0.525039 0.810253 0.563162 0.170092
H41   H     H_    0.017970 0.690358 0.563202 0.170001
H42   H     H_    0.018964 0.309756 0.563180 0.169649
H43   H     H_    0.456512 0.190294 0.436090 0.171670
H44   H     H_    0.528700 0.733382 0.123289 0.141085
H45   H     H_    0.461424 0.810086 0.436057 0.170957
H46   H     H_    0.954372 0.690526 0.436097 0.171803
H47   H     H_    0.955361 0.309587 0.436075 0.170435
H48   H     H_    0.523185 0.204821 0.435894 0.185897
H49   H     H_    0.526790 0.792804 0.435870 0.184201
H50   H     H_    0.021546 0.703835 0.435897 0.185663
H51   H     H_    0.022306 0.295702 0.435877 0.183810
H52   H     H_    0.557716 0.307658 0.563058 0.173807
H53   H     H_    0.552921 0.691356 0.563091 0.172728
H54   H     H_    0.059789 0.807167 0.563052 0.170598
H55   H     H_    0.528698 0.266615 0.123287 0.141963
H56   H     H_    0.058832 0.192597 0.563072 0.174345
H57   H     H_    0.609874 0.274158 0.564191 0.175785
H58   H     H_    0.607744 0.722651 0.564207 0.175410
H59   H     H_    0.110725 0.772740 0.564187 0.174715
H60   H     H_    0.110337 0.226589 0.564192 0.175616
H61   H     H_    0.497198 0.307500 0.435750 0.163453
H62   H     H_    0.492411 0.691380 0.435783 0.163456
H63   H     H_    0.999262 0.806950 0.435743 0.162883
H64   H     H_    0.998306 0.192784 0.435763 0.163757
H65   H     H_    0.464752 0.286764 0.566327 0.169264
H66   H     H_    0.549377 0.688434 0.033308 0.136503
H67   H     H_    0.461836 0.716152 0.566346 0.168223
H68   H     H_    0.966106 0.787998 0.566325 0.168004
H69   H     H_    0.965478 0.212582 0.566342 0.170369
H70   H     H_    0.547104 0.272510 0.437401 0.183179
H71   H     H_    0.545108 0.724267 0.437415 0.182394
H72   H     H_    0.047893 0.771081 0.437396 0.182998
H73   H     H_    0.047530 0.228241 0.437400 0.182727
H74   H     H_    0.748138 0.031499 0.900860 0.189505
H75   H     H_    0.748138 0.968504 0.900859 0.189349
H76   H     H_    0.249156 0.531499 0.901525 0.188763
H77   H     H_    0.549359 0.311565 0.033294 0.136840
H78   H     H_    0.249156 0.468504 0.901525 0.188731
H79   H     H_    0.827147 0.031979 0.983202 0.166573
H80   H     H_    0.827147 0.968015 0.983202 0.166395
H81   H     H_    0.327857 0.531979 0.984393 0.165721
H82   H     H_    0.327856 0.468015 0.984392 0.165743
H83   H     H_    0.660309 0.031796 0.990113 0.179878
H84   H     H_    0.660309 0.968211 0.990113 0.180242
H85   H     H_    0.159796 0.531796 0.988930 0.175537
H86   H     H_    0.159796 0.468211 0.988930 0.174924
H87   H     H_    0.651665 0.031763 0.903795 0.204135
H88   H     H_    0.049377 0.188435 0.033307 0.137759
H89   H     H_    0.651665 0.968247 0.903794 0.204068
H90   H     H_    0.151987 0.531763 0.903095 0.203087
H91   H     H_    0.151987 0.468246 0.903095 0.202975
H92   H     H_    0.766552 0.030797 0.108531 0.115894
H93   H     H_    0.766551 0.969198 0.108531 0.115815
H94   H     H_    0.265543 0.530797 0.107999 0.113242
H95   H     H_    0.265544 0.469199 0.108000 0.113031
H96   H     H_    0.695270 0.471194 0.037622 0.163870
H97   H     H_    0.710186 0.533314 0.057217 0.163602
H98   H     H_    0.205340 0.972179 0.050670 0.165632
H99   H     H_    0.049360 0.811564 0.033296 0.137716
H100  H     H_    0.226547 0.034021 0.074653 0.165412
H101  H     H_    0.776659 0.465498 0.110285 0.248531
H102  H     H_    0.794662 0.528621 0.116536 0.277211
H103  H     H_    0.288525 0.965158 0.115196 0.241849
H104  H     H_    0.309825 0.028055 0.119005 0.281405
H105  H     H_    0.653527 0.468146 0.911655 0.111190
H106  H     H_    0.652994 0.529305 0.922762 0.081578
H107  H     H_    0.149981 0.966318 0.916652 0.100318
H108  H     H_    0.154050 0.025898 0.943590 0.113914
H109  H     H_    0.471205 0.766630 0.876717 0.137132
H110  H     H_    0.923072 0.204691 0.909348 0.151009
H111  H     H_    0.471205 0.233372 0.876718 0.138983
H112  H     H_    0.971204 0.266631 0.876717 0.138056
H113  H     H_    0.971205 0.733373 0.876717 0.138420
H114  H     H_    0.950526 0.311577 0.966701 0.147209
H115  H     H_    0.950542 0.688422 0.966713 0.152130
H116  H     H_    0.450526 0.811577 0.966701 0.143209
H117  H     H_    0.450543 0.188422 0.966714 0.152808
H118  H     H_    0.576834 0.795320 0.090658 0.159796
H119  H     H_    0.576847 0.204678 0.090664 0.161925
H120  H     H_    0.076833 0.295321 0.090658 0.158583
O1    O     O_3   0.749950 0.249950 0.000000 -0.484643
O2    O     O_R   0.637220 0.728540 0.836030 -0.633370
O3    O     O_R   0.137220 0.771460 0.836030 -0.636676
O4    O     O_R   0.137220 0.228540 0.836030 -0.630981
O5    O     O_R   0.654190 0.228460 0.043020 -0.642698
O6    O     O_R   0.654190 0.771540 0.043020 -0.642762
O7    O     O_R   0.154190 0.728460 0.043020 -0.642681
O8    O     O_R   0.154190 0.271540 0.043020 -0.643717
O9    O     O_R   0.845720 0.228460 0.956990 -0.647057
O10   O     O_R   0.845720 0.771540 0.956990 -0.648270
O11   O     O_R   0.345720 0.728460 0.956990 -0.647345
O12   O     O_3   0.749950 0.750050 0.000000 -0.486733
O13   O     O_R   0.345720 0.271540 0.956990 -0.648251
O14   O     O_R   0.611190 0.271450 0.957030 -0.643543
O15   O     O_R   0.611190 0.728550 0.957030 -0.643633
O16   O     O_R   0.111190 0.771450 0.957030 -0.642073
O17   O     O_R   0.111190 0.228550 0.957030 -0.642262
O18   O     O_R   0.888700 0.271440 0.042960 -0.636870
O19   O     O_R   0.888700 0.728560 0.042960 -0.633264
O20   O     O_R   0.388700 0.771440 0.042960 -0.638949
O21   O     O_R   0.388700 0.228560 0.042960 -0.632869
O22   O     O_R   0.801200 0.228440 0.163980 -0.621716
O23   O     O_3   0.249950 0.749950 0.000000 -0.482436
O24   O     O_R   0.801200 0.771560 0.163980 -0.623210
O25   O     O_R   0.301200 0.728440 0.163980 -0.622343
O26   O     O_R   0.301200 0.271560 0.163980 -0.623510
O27   O     O_R   0.698710 0.228470 0.836030 -0.639352
O28   O     O_R   0.698710 0.771530 0.836030 -0.639277
O29   O     O_R   0.198710 0.728470 0.836030 -0.638892
O30   O     O_R   0.198710 0.271530 0.836030 -0.640110
O31   O     O_R   0.740720 0.167960 0.043020 -0.629027
O32   O     O_R   0.740720 0.832040 0.043020 -0.629252
O33   O     O_R   0.240720 0.667960 0.043020 -0.629963
O34   O     O_3   0.249950 0.250050 0.000000 -0.487267
O35   O     O_R   0.240720 0.332040 0.043020 -0.630371
O36   O     O_R   0.697700 0.331940 0.957000 -0.633149
O37   O     O_R   0.697700 0.668060 0.957000 -0.642706
O38   O     O_R   0.197700 0.831940 0.957000 -0.638283
O39   O     O_R   0.197700 0.168060 0.957000 -0.635264
O40   O     O_R   0.759220 0.167970 0.957030 -0.641382
O41   O     O_R   0.759220 0.832030 0.957030 -0.641676
O42   O     O_R   0.259220 0.667970 0.957030 -0.640790
O43   O     O_R   0.259220 0.332030 0.957030 -0.641622
O44   O     O_R   0.802170 0.331930 0.042960 -0.634802
O45   O     O_R   0.862680 0.271430 0.163960 -0.642570
O46   O     O_R   0.802170 0.668070 0.042960 -0.612718
O47   O     O_R   0.302170 0.831930 0.042960 -0.636064
O48   O     O_R   0.302170 0.168070 0.042960 -0.616194
O49   O     O_3   0.688245 0.538828 0.861759 -0.744911
O50   O     O_3   0.697461 0.464930 0.860627 -0.696412
O51   O     O_3   0.163729 0.041479 0.863854 -0.728576
O52   O     O_3   0.192003 0.968855 0.861136 -0.801230
O53   O     O_2   0.886265 0.479441 0.153110 -0.561584
O54   O     O_2   0.879535 0.562545 0.117689 -0.561966
O55   O     O_2   0.394302 0.980905 0.140957 -0.575336
O56   O     O_R   0.862680 0.728570 0.163960 -0.638175
O57   O     O_2   0.383337 0.062933 0.099476 -0.568940
O58   O     O_2   0.326892 0.294686 0.388012 -0.557626
O59   O     O_2   0.323408 0.710267 0.388037 -0.557659
O60   O     O_2   0.828544 0.796800 0.388010 -0.556071
O61   O     O_2   0.827770 0.204191 0.388033 -0.554801
O62   O     O_3   0.853064 0.963116 0.127192 -0.720103
O63   O     O_3   0.853064 0.036873 0.127192 -0.719884
O64   O     O_3   0.352460 0.463116 0.127735 -0.720907
O65   O     O_3   0.352459 0.536873 0.127736 -0.721053
O66   O     O_2   0.816601 0.433283 0.932264 -0.518940
O67   O     O_R   0.362680 0.771430 0.163960 -0.640315
O68   O     O_2   0.830337 0.568560 0.938929 -0.546890
O69   O     O_2   0.375031 0.965259 0.953670 -0.588390
O70   O     O_2   0.309206 0.066355 0.912484 -0.567254
O71   O     O_R   0.362680 0.228570 0.163960 -0.638304
O72   O     O_R   0.637220 0.271460 0.836030 -0.632283
Zn1   Zn    Zn3+2 0.824580 0.280660 0.061400 0.982190
Zn2   Zn    Zn3+2 0.763170 0.780750 0.938580 0.970942
Zn3   Zn    Zn3+2 0.263170 0.719250 0.938580 0.968248
Zn4   Zn    Zn3+2 0.263170 0.280750 0.938580 0.970432
Zn5   Zn    Zn3+2 0.675310 0.280670 0.938580 0.980939
Zn6   Zn    Zn3+2 0.675310 0.719330 0.938580 0.976983
Zn7   Zn    Zn3+2 0.175310 0.780670 0.938580 0.970463
Zn8   Zn    Zn3+2 0.175310 0.219330 0.938580 0.983767
Zn9   Zn    Zn3+2 0.824580 0.719340 0.061400 1.000479
Zn10  Zn    Zn3+2 0.324580 0.780660 0.061400 0.976476
Zn11  Zn    Zn3+2 0.324580 0.219340 0.061400 0.999508
Zn12  Zn    Zn3+2 0.736740 0.219240 0.061440 0.990049
Zn13  Zn    Zn3+2 0.736740 0.780760 0.061440 0.989055
Zn14  Zn    Zn3+2 0.236740 0.719240 0.061440 0.990360
Zn15  Zn    Zn3+2 0.236740 0.280760 0.061440 0.986827
Zn16  Zn    Zn3+2 0.763170 0.219250 0.938580 0.972450

loop_
_geom_bond_atom_site_label_1
_geom_bond_atom_site_label_2
_ccdc_geom_bond_type
C69   C139  S    
C36   O28   A    
C107  C112  S    
C122  H42   S    
O1    Zn12  S    
C83   C87   S    
C76   C79   S    
C36   O2    A    
C136  C140  S    
O46   Zn9   S    
O36   Zn5   S    
C8    O63   S    
O6    Zn13  S    
C52   C61   S    
C14   H75   S    
C86   C88   S    
C92   C109  S    
C57   C59   T    
C124  H45   S    
O23   Zn3   S    
C87   C94   S    
C67   C138  S    
C27   H87   S    
C115  H31   S    
C118  C131  S    
C70   H21   S    
C137  H27   S    
C95   H55   S    
C127  C157  S    
C116  C138  S    
C99   O17   A    
C124  H49   S    
C12   H74   S    
C145  H70   S    
O2    Zn6   S    
C17   C30   T    
C102  C111  S    
C117  C139  S    
C19   C32   T    
C133  C163  S    
C155  O56   A    
C49   O49   S    
C51   O51   S    
C78   C89   S    
C121  C154  S    
C76   H116  S    
C119  H36   S    
C1    O14   A    
C94   H44   S    
C120  C125  S    
C145  H61   S    
C42   O35   A    
C8    H92   S    
C103  C112  S    
C11   H95   S    
C108  C113  S    
C43   O44   A    
C27   H83   S    
C39   O40   A    
C90   C92   S    
C52   C110  S    
O31   Zn12  S    
C1    O5    A    
C65   O58   D    
O5    Zn12  S    
C94   C96   S    
C54   C63   S    
C93   C100  S    
C14   H80   S    
C20   C33   T    
O1    Zn16  S    
O23   Zn10  S    
C46   C110  S    
C24   H103  S    
H20   O65   S    
C131  C149  S    
C78   C113  S    
C84   C97   S    
C74   C81   S    
C117  C135  S    
O37   Zn6   S    
C77   O6    A    
O25   Zn14  S    
C16   C25   S    
C114  H30   S    
C38   O30   A    
C11   O64   S    
C119  H40   S    
O67   Zn10  S    
C140  C145  S    
C85   C90   S    
C95   C97   S    
C51   C143  S    
C54   C132  S    
C3    C7    T    
C74   C90   S    
C62   O54   D    
O10   Zn2   S    
C154  H97   S    
C134  C151  S    
C123  C140  S    
O39   Zn8   S    
O14   Zn5   S    
C128  C156  S    
C47   C59   S    
O4    Zn8   S    
C136  H26   S    
C114  C136  S    
C67   H15   S    
C18   C31   T    
C139  H29   S    
C63   O55   D    
C16   H78   S    
C48   C110  S    
O43   Zn4   S    
C5    C36   S    
C93   H33   S    
C148  H64   S    
C39   O31   A    
C37   O3    A    
C38   O4    A    
C78   H117  S    
C81   C101  S    
O41   Zn2   S    
C1    C84   S    
C21   C31   S    
O72   Zn5   S    
C5    C163  T    
C91   H3    S    
C126  H47   S    
C69   H16   S    
C78   C80   S    
O34   Zn8   S    
O44   Zn1   S    
C11   C25   S    
C135  C152  S    
O7    Zn14  S    
C139  C144  S    
H4    O49   S    
C140  C158  S    
C141  C159  S    
C115  C137  S    
C43   C58   S    
C19   C42   S    
C75   C91   S    
O21   Zn11  S    
O35   Zn15  S    
C147  H72   S    
O45   Zn1   S    
C2    C154  S    
C146  C150  S    
C51   H108  S    
C116  H68   S    
C79   C103  S    
O32   Zn13  S    
C106  C111  S    
O26   Zn15  S    
C104  H24   S    
C6    C37   S    
C55   C143  S    
C157  O26   A    
O1    Zn1   S    
C97   C104  S    
C45   O38   A    
C147  H63   S    
C153  O22   A    
C131  C162  S    
C62   H9    S    
C41   O42   A    
C29   H85   S    
C147  C151  S    
C72   H23   S    
C85   C99   S    
C117  H69   S    
C49   C121  S    
C123  H48   S    
O22   Zn12  S    
C82   C102  S    
H6    O51   S    
C76   C87   S    
C101  H110  S    
C99   O8    A    
C13   H104  S    
C52   C53   S    
C48   O50   S    
H5    O50   S    
C105  C109  S    
C146  H71   S    
C74   H114  S    
C22   C30   S    
C35   C56   T    
O3    Zn7   S    
C142  C147  S    
C133  C150  S    
C148  C152  S    
C12   C14   S    
C26   H89   S    
C75   C82   S    
C71   O68   D    
C81   H112  S    
C14   C22   S    
C87   H118  S    
C98   H88   S    
C83   C96   S    
C126  C144  S    
C150  H53   S    
C151  H59   S    
C120  C134  S    
C124  C141  S    
C73   H25   S    
C40   O41   A    
C104  C113  S    
C55   C73   S    
C50   H107  S    
C66   O59   D    
O8    Zn15  S    
C129  C160  T    
C81   C85   S    
C117  H34   S    
C128  C159  T    
O20   Zn10  S    
C156  O25   A    
C9    H93   S    
C144  C161  S    
C114  C131  S    
C28   H91   S    
O38   Zn7   S    
C80   C84   S    
C114  H65   S    
H18   O63   S    
O9    Zn16  S    
O24   Zn13  S    
C25   C28   S    
C44   O46   A    
C26   C27   S    
C80   C104  S    
C120  H41   S    
C28   C29   S    
C105  O9    A    
C153  O45   A    
C86   C91   S    
C45   O47   A    
C107  O11   A    
C116  C134  S    
O27   Zn16  S    
C101  C109  S    
H17   O62   S    
C68   C132  S    
C42   O43   A    
C105  O18   A    
C54   C55   S    
C92   H1    S    
O34   Zn11  S    
C26   H84   S    
C9    O62   S    
C88   O16   A    
C86   C100  S    
O17   Zn8   S    
C49   H106  S    
C21   C27   S    
C79   H109  S    
C150  H58   S    
O1    Zn5   S    
C156  O67   A    
O34   Zn4   S    
O18   Zn1   S    
C148  H73   S    
C35   C121  S    
C138  C142  S    
C129  C155  S    
O42   Zn3   S    
C115  C133  S    
C82   C86   S    
C15   H76   S    
C80   H111  S    
C17   C40   S    
C89   C95   S    
C18   C39   S    
C91   C93   S    
C125  H50   S    
C24   C132  S    
O12   Zn13  S    
C100  H99   S    
C41   O33   A    
O71   Zn11  S    
C50   C51   S    
C29   H90   S    
C127  C158  T    
O12   Zn9   S    
C50   C132  S    
C141  C146  S    
C93   C111  S    
C48   C49   S    
C6    C164  T    
C108  O21   A    
C152  H60   S    
C65   H12   S    
C4    C162  T    
C23   C29   S    
C63   H10   S    
O12   Zn6   S    
C137  C141  S    
C2    C110  S    
C138  H28   S    
C108  O13   A    
C98   C101  S    
C146  H62   S    
C75   C111  S    
O13   Zn4   S    
C122  H38   S    
O28   Zn2   S    
O34   Zn15  S    
C53   C121  S    
C79   C83   S    
C44   O37   A    
C69   O61   D    
C134  C164  S    
C3    C135  S    
C118  C123  S    
C13   C143  S    
C13   H100  S    
C122  C135  S    
C65   C136  S    
C107  O20   A    
C97   H77   S    
C155  O24   A    
C60   C68   T    
O23   Zn7   S    
C22   C26   S    
C96   C103  S    
C24   H98   S    
C145  C149  S    
H7    O52   S    
C2    H96   S    
C45   C60   S    
C88   O7    A    
C118  H39   S    
C144  C148  S    
C74   C109  S    
C20   C41   S    
C92   C98   S    
C119  C124  S    
C66   H14   S    
C119  C133  S    
C9    C22   S    
C77   C83   S    
C15   C16   S    
C64   O57   D    
C47   O39   A    
C44   C56   S    
C85   C98   S    
C15   H81   S    
C8    C9    S    
C23   C33   S    
C50   O52   S    
C10   H94   S    
C96   H66   S    
C94   C112  S    
C115  H67   S    
C25   C32   S    
C15   C23   S    
C61   O53   D    
C120  H37   S    
C149  H57   S    
C118  H35   S    
C106  O10   A    
C28   H86   S    
O29   Zn3   S    
C4    C34   S    
C89   H119  S    
O23   Zn14  S    
C57   C143  S    
C90   H120  S    
C10   C11   S    
C2    H101  S    
C12   C21   S    
C37   O29   A    
C13   C24   S    
C75   H115  S    
C103  H13   S    
O15   Zn6   S    
C116  H32   S    
C122  C126  S    
C106  O19   A    
C40   O32   A    
C53   C62   S    
C125  C142  S    
C76   C112  S    
C12   H79   S    
C55   C64   S    
C100  C102  S    
C8    C21   S    
C151  H54   S    
C123  H43   S    
C61   H8    S    
C64   H11   S    
C67   O60   D    
C130  C161  T    
C70   O66   D    
O40   Zn16  S    
C48   H105  S    
C82   H113  S    
O30   Zn4   S    
C84   C89   S    
C157  O71   A    
C71   H22   S    
O16   Zn7   S    
O47   Zn10  S    
C142  C160  S    
C154  H102  S    
C47   O48   A    
C34   O72   A    
C125  H46   S    
O11   Zn3   S    
H19   O64   S    
C16   H82   S    
C10   C23   S    
O56   Zn9   S    
C77   O15   A    
C149  H52   S    
C34   O27   A    
C66   C137  S    
C95   C113  S    
O48   Zn11  S    
C152  H56   S    
C7    C38   S    
C43   O36   A    
C130  C153  S    
C72   O69   D    
C73   O70   D    
C52   C70   S    
C126  H51   S    
O12   Zn2   S    
C54   C72   S    
C102  H2    S    
O33   Zn14  S    
O19   Zn9   S    
C10   O65   S    
C46   C58   T    
C53   C71   S    
