data_mof_unit_46258.cif
_audit_creation_date              2013-03-05T15:51:49-0500
_audit_creation_method            fapswitch 2.2
_symmetry_space_group_name_H-M    P1
_symmetry_Int_Tables_number       1
_space_group_crystal_system       triclinic
_cell_length_a                    11.971299
_cell_length_b                    12.842932
_cell_length_c                    23.481897
_cell_angle_alpha                 90.290424
_cell_angle_beta                  86.388654
_cell_angle_gamma                 93.87291
_cell_volume                      3594.86285328

loop_
_atom_site_label
_atom_site_type_symbol
_atom_site_description
_atom_site_fract_x
_atom_site_fract_y
_atom_site_fract_z
_atom_type_partial_charge
O1    O     O_R   0.421690 0.658830 0.502820 -0.545363
O2    O     O_R   0.578310 0.341170 0.497180 -0.554381
O3    O     O_R   0.609320 0.646410 0.496030 -0.646188
O4    O     O_R   0.390680 0.353590 0.503970 -0.646217
C1    C     C_R   0.522728 0.700126 0.498007 0.880906
C2    C     C_R   0.477451 0.299657 0.502350 0.955857
O5    O     O_R   0.406170 0.506240 0.587240 -0.587456
O6    O     O_R   0.593830 0.493760 0.412760 -0.569206
O7    O     O_R   0.593790 0.493820 0.580450 -0.598211
O8    O     O_R   0.406210 0.506180 0.419550 -0.635605
C3    C     C_R   0.500285 0.498903 0.610664 0.937566
C4    C     C_R   0.499892 0.501675 0.389474 0.885551
Zn1   Zn    Zn3+2 0.374720 0.508290 0.504530 0.998700
Zn2   Zn    Zn3+2 0.625280 0.491710 0.495470 0.993919
C5    C     C_R   0.481318 0.402661 0.120361 0.583745
C6    C     C_R   0.493265 0.589753 0.881157 0.582470
N1    N     N_R   0.479372 0.495278 0.148746 -0.348186
N2    N     N_R   0.481831 0.496961 0.853082 -0.348501
C7    C     C_R   0.474102 0.587740 0.121287 0.565078
C8    C     C_R   0.466935 0.404058 0.881123 0.565334
C9    C     C_R   0.481762 0.591633 0.061303 -0.074993
C10   C     C_R   0.473419 0.400392 0.940705 -0.075718
C11   C     C_R   0.480089 0.495902 0.030910 -0.141143
C12   C     C_R   0.480717 0.496205 0.970958 -0.142668
C13   C     C_R   0.477414 0.399853 0.060634 -0.085078
C14   C     C_R   0.488293 0.592349 0.941113 -0.085592
C15   C     C_R   0.490699 0.687863 0.031413 0.102694
C16   C     C_R   0.472331 0.304321 0.970368 0.103279
C17   C     C_R   0.494183 0.688142 0.971137 0.410845
C18   C     C_R   0.474597 0.304144 0.030495 0.409541
O9    O     O_2   0.488798 0.314284 0.150354 -0.478909
O10   O     O_2   0.511275 0.678614 0.850508 -0.480343
O11   O     O_2   0.460653 0.674886 0.152640 -0.528938
O12   O     O_2   0.444979 0.316274 0.850835 -0.530022
C19   C     C_R   0.579665 0.452867 0.761798 0.177520
C20   C     C_R   0.583511 0.542814 0.232905 0.208634
C21   C     C_R   0.583872 0.450809 0.701611 0.109828
C22   C     C_R   0.588151 0.548319 0.292527 0.111061
C23   C     C_R   0.500146 0.498068 0.672941 -0.142787
C24   C     C_R   0.498084 0.502135 0.327521 -0.143578
C25   C     C_R   0.411791 0.542828 0.703862 -0.335768
C26   C     C_R   0.403645 0.454796 0.303275 -0.322784
H1    H     H_    0.347059 0.578443 0.681944 0.204232
H2    H     H_    0.334475 0.419638 0.330207 0.168920
C27   C     C_R   0.403785 0.540375 0.763028 0.234236
C28   C     C_R   0.396316 0.453086 0.244503 0.240104
C29   C     C_R   0.488530 0.496909 0.792046 0.213822
C30   C     C_R   0.486743 0.496145 0.209279 0.196275
C31   C     C_R   0.462575 0.188155 0.503370 -0.143271
C32   C     C_R   0.538638 0.811216 0.497349 -0.203185
C33   C     C_R   0.628827 0.964836 0.537459 0.261473
C34   C     C_R   0.367164 0.032224 0.468710 0.275607
C35   C     C_R   0.622478 0.858117 0.528922 -0.329663
C36   C     C_R   0.373166 0.139245 0.476467 -0.385900
C37   C     C_R   0.461413 0.869471 0.471321 0.413320
C38   C     C_R   0.543541 0.131559 0.527162 0.394933
C39   C     C_R   0.456391 0.974663 0.485730 -0.023050
C40   C     C_R   0.543711 0.024173 0.517350 -0.072953
H3    H     H_    0.308811 0.184654 0.460365 0.171852
H4    H     H_    0.682453 0.811392 0.547972 0.173022
N3    N     N_R   0.207800 0.519350 0.510590 -0.111753
N4    N     N_R   0.792200 0.480650 0.489410 -0.111967
C41   C     C_R   0.953742 0.398556 0.448936 -0.426994
C42   C     C_R   0.046222 0.601480 0.551032 -0.427364
C43   C     C_R   0.836655 0.408087 0.453463 0.595743
C44   C     C_R   0.163226 0.591288 0.546912 0.634630
C45   C     C_R   0.859084 0.545072 0.521147 -0.136994
C46   C     C_R   0.141068 0.455875 0.478258 -0.117870
C47   C     C_R   0.976171 0.537336 0.518158 0.050553
C48   C     C_R   0.023901 0.463251 0.481472 0.056555
H5    H     H_    0.179406 0.399681 0.450018 0.138657
H6    H     H_    0.820849 0.601877 0.549006 0.143874
H7    H     H_    0.989469 0.341266 0.420403 0.142930
H8    H     H_    0.010435 0.658610 0.579653 0.142001
N5    N     N_2   0.496352 0.784111 0.062036 -0.254349
H9    H     H_    0.446996 0.840429 0.048133 0.232317
C49   C     C_3   0.608526 0.823083 0.074561 -0.685537
H10   H     H_    0.659498 0.844113 0.034626 0.203989
H11   H     H_    0.650773 0.763349 0.097852 0.261597
H12   H     H_    0.603774 0.893618 0.101903 0.250623
N6    N     N_2   0.469121 0.208135 0.939661 -0.255207
H13   H     H_    0.414015 0.149630 0.956730 0.232814
C50   C     C_3   0.577977 0.173776 0.920461 -0.685259
H14   H     H_    0.626481 0.154867 0.957394 0.203521
H15   H     H_    0.626421 0.235381 0.894402 0.261845
H16   H     H_    0.566778 0.102868 0.893629 0.252386
O13   O     O_3   0.234328 0.652750 0.579015 -0.750003
H17   H     H_    0.189611 0.700748 0.602859 0.302374
O14   O     O_3   0.765424 0.345905 0.421792 -0.747935
H18   H     H_    0.810144 0.297965 0.397915 0.306495
O15   O     O_3   0.500961 0.780511 0.940507 -0.707790
H19   H     H_    0.531471 0.839158 0.963410 0.328433
O16   O     O_3   0.472031 0.211860 0.060986 -0.705776
H20   H     H_    0.497615 0.154488 0.036418 0.329284
N7    N     N_2   0.664317 0.408744 0.792467 -0.292384
H21   H     H_    0.701377 0.346554 0.773128 0.233748
C51   C     C_3   0.744629 0.483499 0.816303 -0.780865
H22   H     H_    0.808294 0.441437 0.837755 0.234591
H23   H     H_    0.702902 0.533401 0.848583 0.253767
H24   H     H_    0.787770 0.533910 0.782277 0.242551
N8    N     N_2   0.672145 0.590173 0.196308 -0.289293
H25   H     H_    0.714183 0.654930 0.212959 0.256867
C52   C     C_3   0.747156 0.518518 0.169147 -0.783816
H26   H     H_    0.809200 0.562285 0.139565 0.237955
H27   H     H_    0.700361 0.458896 0.143993 0.255185
H28   H     H_    0.792890 0.478974 0.201577 0.243268
N9    N     N_2   0.666253 0.395488 0.669778 -0.269461
H29   H     H_    0.668719 0.318175 0.680896 0.241181
C53   C     C_3   0.775844 0.449573 0.660570 -0.712895
H30   H     H_    0.826140 0.440363 0.698047 0.219071
H31   H     H_    0.768680 0.533875 0.652128 0.236813
H32   H     H_    0.820742 0.414991 0.623044 0.246339
N10   N     N_2   0.679628 0.606301 0.316506 -0.311787
H33   H     H_    0.659324 0.651806 0.351475 0.226224
C54   C     C_3   0.782001 0.553166 0.319970 -0.682105
H34   H     H_    0.849528 0.593501 0.292084 0.224490
H35   H     H_    0.771304 0.470012 0.306679 0.246883
H36   H     H_    0.808480 0.555695 0.364449 0.241401
N11   N     N_2   0.310973 0.583153 0.793526 -0.274849
H37   H     H_    0.280045 0.644977 0.773046 0.239178
C55   C     C_3   0.222672 0.506656 0.812816 -0.760016
H38   H     H_    0.156086 0.546102 0.837960 0.238641
H39   H     H_    0.255472 0.447693 0.840607 0.261508
H40   H     H_    0.185231 0.466980 0.775658 0.237599
N12   N     N_2   0.298241 0.407008 0.220707 -0.276236
H41   H     H_    0.260360 0.345119 0.244152 0.234292
C56   C     C_3   0.218433 0.480828 0.206338 -0.757897
H42   H     H_    0.146927 0.438917 0.186176 0.237336
H43   H     H_    0.257749 0.539789 0.175591 0.263365
H44   H     H_    0.185954 0.520801 0.245461 0.237658
O17   O     O_3   0.619856 0.182369 0.560940 -0.736135
H45   H     H_    0.688031 0.198821 0.535520 0.360724
O18   O     O_3   0.391669 0.825317 0.431584 -0.724499
H46   H     H_    0.426928 0.765009 0.413187 0.324265
N13   N     N_2   0.719021 0.010288 0.567883 -0.254606
H47   H     H_    0.729026 0.972415 0.605688 0.232983
C57   C     C_3   0.823836 0.025390 0.533780 -0.796970
H48   H     H_    0.856023 0.948833 0.521232 0.231879
H49   H     H_    0.886932 0.069124 0.559009 0.244193
H50   H     H_    0.812344 0.071135 0.494770 0.243704
N14   N     N_2   0.270635 0.983685 0.444401 -0.230079
H51   H     H_    0.234931 0.029902 0.415664 0.215888
C58   C     C_3   0.188043 0.936648 0.485886 -0.684078
H52   H     H_    0.152361 0.997740 0.513914 0.206368
H53   H     H_    0.226133 0.878835 0.512463 0.266325
H54   H     H_    0.119054 0.895446 0.463436 0.231242

loop_
_geom_bond_atom_site_label_1
_geom_bond_atom_site_label_2
_geom_bond_distance
_ccdc_geom_bond_type
C58   H54   1.110397 S    
C33   C35   1.381856 A    
O13   H17   0.991649 S    
C41   C43   1.412546 A    
O16   H20   0.986636 S    
C15   C17   1.413411 A    
N9    C53   1.446774 S    
C28   N12   1.423491 S    
N7    H21   1.029454 S    
N1    C30   1.429650 S    
C17   O15   1.385450 S    
O7    Zn2   2.007707 S    
C19   C29   1.412934 A    
N2    C29   1.430411 S    
N6    H13   1.031119 S    
N13   H47   1.031806 S    
C23   C25   1.399133 A    
C49   H10   1.110342 S    
O5    C3    1.293749 A    
C57   H49   1.110262 S    
N8    H25   1.030911 S    
N4    C45   1.363989 A    
O1    C1    1.286010 A    
C19   C21   1.411203 A    
C12   C14   1.417625 A    
C21   N9    1.425668 S    
C18   O16   1.385347 S    
C53   H31   1.111623 S    
C5    C13   1.406419 A    
C31   C36   1.389114 A    
Zn2   N4    2.008914 S    
C58   H53   1.111299 S    
C45   H6    1.082698 S    
C26   C28   1.388340 A    
O4    Zn1   2.008670 S    
C55   H40   1.111661 S    
N6    C50   1.448386 S    
C33   N13   1.422957 S    
N3    C44   1.366397 A    
C54   H35   1.112411 S    
N9    H29   1.030775 S    
C8    O12   1.349571 S    
C27   N11   1.423892 S    
C49   H11   1.111300 S    
C9    C15   1.418778 A    
N8    C52   1.446903 S    
C10   C16   1.418823 A    
C25   H1    1.084035 S    
O2    C2    1.285324 A    
C26   H2    1.084401 S    
C15   N5    1.426688 S    
C5    N1    1.361393 A    
C51   H23   1.106987 S    
C35   H4    1.084936 S    
C34   C36   1.383211 A    
C51   H22   1.110488 S    
C36   H3    1.084545 S    
C27   C29   1.404494 A    
C6    C14   1.405707 A    
C57   H50   1.111499 S    
C28   C30   1.404563 A    
C32   C35   1.388298 A    
O4    C2    1.285380 A    
C7    O11   1.349681 S    
C53   H32   1.109610 S    
C44   O13   1.378371 S    
C22   N10   1.426210 S    
C41   H7    1.083803 S    
C37   O18   1.384975 S    
C20   N8    1.427436 S    
C45   C47   1.409211 A    
C42   C44   1.412796 A    
C4    C24   1.456352 S    
C43   O14   1.378352 S    
N5    H9    1.031142 S    
C56   H43   1.109407 S    
C37   C39   1.395342 A    
N5    C49   1.448369 S    
C50   H14   1.110364 S    
C41   C48   1.399855 A    
O6    C4    1.291284 A    
C54   H36   1.110149 S    
C52   H27   1.108235 S    
C33   C40   1.418133 A    
C42   C47   1.399847 A    
C3    C23   1.462366 S    
O7    C3    1.292281 A    
C55   H38   1.110348 S    
N11   C55   1.446268 S    
O8    C4    1.291681 A    
C6    N2    1.361965 A    
C50   H15   1.111299 S    
C8    C10   1.407313 A    
C19   N7    1.428427 S    
C9    C11   1.418072 A    
O18   H46   0.991197 S    
C10   C12   1.418066 A    
C1    C32   1.426603 S    
O1    Zn1   1.976566 S    
O17   H45   0.991797 S    
O15   H19   0.986631 S    
C51   H24   1.110128 S    
N10   H33   1.031541 S    
C49   H12   1.110199 S    
C13   C18   1.414757 A    
N13   C57   1.447576 S    
O6    Zn2   2.002127 S    
N4    C43   1.366249 A    
C7    C9    1.406657 A    
C16   N6    1.426684 S    
C34   N14   1.425463 S    
O3    C1    1.281746 A    
O8    Zn1   2.007712 S    
N11   H37   1.031902 S    
N7    C51   1.448118 S    
C5    O9    1.349842 S    
C56   H42   1.110353 S    
O3    Zn2   2.008672 S    
C6    O10   1.349962 S    
C31   C38   1.395514 A    
C57   H48   1.111726 S    
C32   C37   1.399012 A    
N14   C58   1.447563 S    
C56   H44   1.111704 S    
C16   C18   1.413876 A    
C21   C23   1.413356 A    
C25   C27   1.386957 A    
N14   H51   1.032010 S    
C20   C22   1.405866 A    
C22   C24   1.412979 A    
N3    C46   1.364305 A    
C39   C40   1.432323 A    
N12   H41   1.031873 S    
C46   H5    1.082949 S    
C24   C26   1.398819 A    
N1    C7    1.361195 A    
C38   C40   1.397229 A    
C20   C30   1.411672 A    
C52   H28   1.109769 S    
N2    C8    1.361397 A    
C11   C13   1.417889 A    
C2    C31   1.431185 S    
C47   C48   1.406063 A    
O2    Zn2   1.976564 S    
C55   H39   1.109470 S    
C38   O17   1.376622 S    
C34   C39   1.417979 A    
C11   C12   1.407364 A    
O5    Zn1   2.002127 S    
C50   H16   1.110219 S    
Zn1   N3    2.008917 S    
C14   C17   1.414684 A    
C46   C48   1.409474 A    
C52   H26   1.110268 S    
N12   C56   1.446269 S    
C42   H8    1.083853 S    
C54   H34   1.109405 S    
O14   H18   0.991597 S    
C53   H30   1.108331 S    
C58   H52   1.111685 S    
N10   C54   1.449256 S    
