data_mof_unit_33682.cif
_audit_creation_date              2012-12-10T18:48:39-0500
_audit_creation_method            fapswitch 2.2
_symmetry_space_group_name_H-M    P1
_symmetry_Int_Tables_number       1
_space_group_crystal_system       triclinic
_cell_length_a                    15.277839
_cell_length_b                    15.05231
_cell_length_c                    9.879683
_cell_angle_alpha                 90.000028
_cell_angle_beta                  90.000053
_cell_angle_gamma                 90.0
_cell_volume                      2271.99877586

loop_
_atom_site_label
_atom_site_type_symbol
_atom_type_description
_atom_site_fract_x
_atom_site_fract_y
_atom_site_fract_z
_atom_type_partial_charge
C1    C     C_R   0.119945 0.379920 0.500000 0.882046
C2    C     C_R   1.000000 0.421740 0.927854 -0.013786
C3    C     C_R   0.000000 0.421740 0.072146 -0.013787
C4    C     C_R   1.000000 0.578260 0.927854 -0.013787
C5    C     C_R   0.500000 0.078260 0.072146 -0.013786
C6    C     C_R   0.500000 0.921740 0.927854 -0.013786
C7    C     C_R   0.500000 0.921740 0.072146 -0.013787
C8    C     C_R   0.500000 0.078260 0.927854 -0.013787
C9    C     C_R   0.781939 0.281906 0.376548 -0.175782
C10   C     C_R   0.218060 0.718094 0.623451 -0.175782
C11   C     C_R   0.218067 0.718087 0.376548 -0.175782
C12   C     C_R   0.880055 0.620080 0.500000 0.882046
C13   C     C_R   0.781933 0.281913 0.623451 -0.175782
C14   C     C_R   0.218059 0.281905 0.623451 -0.175781
C15   C     C_R   0.781941 0.718095 0.376548 -0.175781
C16   C     C_R   0.781931 0.718085 0.623451 -0.175783
C17   C     C_R   0.218068 0.281915 0.376548 -0.175783
C18   C     C_R   0.281939 0.781906 0.376548 -0.175781
C19   C     C_R   0.718061 0.218094 0.623451 -0.175782
C20   C     C_R   0.718067 0.218087 0.376548 -0.175782
C21   C     C_R   0.281933 0.781913 0.623451 -0.175782
C22   C     C_R   0.718059 0.781905 0.623451 -0.175781
C23   C     C_R   0.880055 0.379920 0.500000 0.882046
C24   C     C_R   0.281941 0.218095 0.376548 -0.175781
C25   C     C_R   0.281931 0.218085 0.623451 -0.175783
C26   C     C_R   0.718068 0.781915 0.376548 -0.175783
C27   C     C_R   0.186222 0.686326 0.500000 -0.018394
C28   C     C_R   0.813778 0.313674 0.500000 -0.018394
C29   C     C_R   0.813778 0.686325 0.500000 -0.018394
C30   C     C_R   0.186222 0.313675 0.500000 -0.018394
C31   C     C_R   0.686222 0.186325 0.500000 -0.018394
C32   C     C_R   0.313778 0.813674 0.500000 -0.018394
C33   C     C_R   0.313778 0.186325 0.500000 -0.018394
C34   C     C_R   0.119945 0.620080 0.500000 0.882046
C35   C     C_R   0.686222 0.813674 0.500000 -0.018394
C36   C     C_1   0.000001 0.661205 0.145362 0.212574
C37   C     C_1   0.999999 0.338795 0.854638 0.212574
C38   C     C_1   0.000000 0.338795 0.145361 0.212576
C39   C     C_1   0.999999 0.661205 0.854639 0.212576
C40   C     C_1   0.500001 0.161205 0.145362 0.212574
C41   C     C_1   0.499999 0.838795 0.854638 0.212574
C42   C     C_1   0.500001 0.838795 0.145361 0.212576
C43   C     C_1   0.499999 0.161205 0.854639 0.212576
C44   C     C_R   0.619945 0.879920 0.500000 0.882046
C45   C     C_R   0.380055 0.120080 0.500000 0.882046
C46   C     C_R   0.380055 0.879920 0.500000 0.882046
C47   C     C_R   0.619945 0.120080 0.500000 0.882046
C48   C     C_R   1.000000 0.578260 0.072146 -0.013786
H1    H     H_    0.806088 0.306119 0.280262 0.164594
H2    H     H_    0.693912 0.193881 0.719738 0.164594
H3    H     H_    0.693924 0.193868 0.280262 0.164593
H4    H     H_    0.306076 0.806132 0.719738 0.164593
H5    H     H_    0.693909 0.806116 0.719738 0.164595
H6    H     H_    0.306091 0.193883 0.280262 0.164595
H7    H     H_    0.306073 0.193865 0.719738 0.164593
H8    H     H_    0.693927 0.806134 0.280262 0.164593
H9    H     H_    0.193912 0.693881 0.719738 0.164594
H10   H     H_    0.193924 0.693868 0.280262 0.164593
H11   H     H_    0.806076 0.306132 0.719738 0.164593
H12   H     H_    0.193909 0.306116 0.719738 0.164595
H13   H     H_    0.806091 0.693883 0.280262 0.164595
H14   H     H_    0.806073 0.693865 0.719738 0.164593
H15   H     H_    0.193927 0.306134 0.280262 0.164593
H16   H     H_    0.306088 0.806119 0.280262 0.164594
N1    N     N_R   1.000000 0.500000 0.857200 -0.125328
N2    N     N_1   0.499999 0.771949 0.796714 -0.212118
N3    N     N_1   0.500001 0.771949 0.203286 -0.212116
N4    N     N_1   0.499999 0.228050 0.796714 -0.212116
N5    N     N_R   1.000000 0.500000 0.142800 -0.125328
N6    N     N_R   0.500000 0.000000 0.857200 -0.125328
N7    N     N_R   0.500000 0.000000 0.142800 -0.125328
N8    N     N_1   0.000001 0.728050 0.203286 -0.212118
N9    N     N_1   0.999999 0.271950 0.796714 -0.212118
N10   N     N_1   0.000001 0.271950 0.203286 -0.212116
N11   N     N_1   0.999999 0.728050 0.796714 -0.212116
N12   N     N_1   0.500001 0.228050 0.203286 -0.212118
O1    O     O_R   0.091610 0.408380 0.614620 -0.624129
O2    O     O_R   0.408390 0.091620 0.385380 -0.624129
O3    O     O_R   0.408390 0.091620 0.614620 -0.624130
O4    O     O_R   0.591610 0.908380 0.385380 -0.624130
O5    O     O_R   0.408390 0.908380 0.385380 -0.624129
O6    O     O_R   0.591610 0.091620 0.614620 -0.624129
O7    O     O_R   0.591610 0.091620 0.385380 -0.624130
O8    O     O_R   0.408390 0.908380 0.614620 -0.624129
O9    O     O_R   0.908390 0.591620 0.385380 -0.624129
O10   O     O_R   0.908390 0.591620 0.614620 -0.624130
O11   O     O_R   0.091610 0.408380 0.385380 -0.624130
O12   O     O_R   0.908390 0.408380 0.385380 -0.624129
O13   O     O_R   0.091610 0.591620 0.614620 -0.624129
O14   O     O_R   0.091610 0.591620 0.385380 -0.624130
O15   O     O_R   0.908390 0.408380 0.614620 -0.624129
O16   O     O_R   0.591610 0.908380 0.614620 -0.624129
Zn1   Zn    Zn3+2 1.000000 0.500000 0.653120 0.965949
Zn2   Zn    Zn3+2 1.000000 0.500000 0.346880 0.965949
Zn3   Zn    Zn3+2 0.500000 1.000000 0.653120 0.965949
Zn4   Zn    Zn3+2 0.500000 1.000000 0.346880 0.965949

loop_
_geom_bond_atom_site_label_1
_geom_bond_atom_site_label_2
_ccdc_geom_bond_type
C10   C27   A    
C1    O11   A    
C11   C18   A    
C12   C29   S    
C33   C45   S    
C2    C37   S    
C8    C43   S    
C48   N5    A    
C2    N1    A    
C19   C31   A    
C22   C35   A    
C12   O9    A    
C3    N5    A    
C20   H3    S    
C2    C3    A    
C7    N7    A    
C4    N1    A    
C7    C42   S    
C24   H6    S    
O11   Zn2   S    
C1    O1    A    
C47   O6    A    
C3    C38   S    
O2    Zn4   S    
C43   N4    T    
C6    C41   S    
C13   C28   A    
O14   Zn2   S    
C45   O2    A    
C47   O7    A    
O4    Zn4   S    
C11   H10   S    
C44   O16   A    
N1    Zn1   S    
C10   C21   A    
C31   C47   S    
C17   C30   A    
C16   H14   S    
C14   C30   A    
C15   C29   A    
C22   H5    S    
C27   C34   S    
C21   C32   A    
O12   Zn2   S    
C17   C24   A    
C13   C19   A    
C44   O4    A    
C10   H9    S    
C9    H1    S    
N5    Zn2   S    
O5    Zn4   S    
C15   C26   A    
N7    Zn4   S    
C16   C29   A    
O16   Zn3   S    
C40   N12   T    
O8    Zn3   S    
C34   O14   A    
O3    Zn3   S    
O10   Zn1   S    
O15   Zn1   S    
C46   O5    A    
O9    Zn2   S    
C9    C20   A    
C4    C39   S    
C11   C27   A    
C15   H13   S    
C45   O3    A    
C23   C28   S    
C35   C44   S    
C6    C7    A    
C46   O8    A    
C39   N11   T    
C23   O12   A    
C42   N3    T    
C23   O15   A    
C18   C32   A    
C4    C48   A    
C6    N6    A    
C37   N9    T    
C16   C22   A    
O6    Zn3   S    
C32   C46   S    
C25   H7    S    
C26   H8    S    
C5    C8    A    
C41   N2    T    
C13   H11   S    
C14   H12   S    
C8    N6    A    
C24   C33   A    
C12   O10   A    
N6    Zn3   S    
C34   O13   A    
C5    N7    A    
C17   H15   S    
C19   H2    S    
C18   H16   S    
O7    Zn4   S    
O1    Zn1   S    
C1    C30   S    
C38   N10   T    
C36   C48   S    
C14   C25   A    
O13   Zn1   S    
C26   C35   A    
C5    C40   S    
C21   H4    S    
C36   N8    T    
C9    C28   A    
C25   C33   A    
C20   C31   A    
