data_mof_unit_53687.cif
_audit_creation_date              2013-03-05T15:57:40-0500
_audit_creation_method            fapswitch 2.2
_symmetry_space_group_name_H-M    P1
_symmetry_Int_Tables_number       1
_space_group_crystal_system       triclinic
_cell_length_a                    19.317375
_cell_length_b                    17.732848
_cell_length_c                    12.617802
_cell_angle_alpha                 89.564944
_cell_angle_beta                  99.83575
_cell_angle_gamma                 90.045218
_cell_volume                      4258.60027788

loop_
_atom_site_label
_atom_site_type_symbol
_atom_site_description
_atom_site_fract_x
_atom_site_fract_y
_atom_site_fract_z
_atom_type_partial_charge
O1    O     O_R   0.448200 0.076800 0.373930 -0.631394
O2    O     O_R   0.448200 0.923200 0.373930 -0.625186
O3    O     O_R   0.948200 0.576800 0.373930 -0.610684
O4    O     O_R   0.948200 0.423200 0.373930 -0.618781
O5    O     O_R   0.414750 0.076790 0.542400 -0.545311
O6    O     O_R   0.414750 0.923210 0.542400 -0.568467
O7    O     O_R   0.914750 0.576790 0.542400 -0.573372
O8    O     O_R   0.914750 0.423210 0.542400 -0.562540
C1    C     C_R   0.414132 0.105823 0.445793 0.869703
C2    C     C_R   0.414390 0.894039 0.446581 0.866628
C3    C     C_R   0.908864 0.600416 0.441634 0.848086
C4    C     C_R   0.914819 0.393547 0.447162 0.843739
Zn1   Zn    Zn3+2 0.522330 0.000000 0.387520 0.980108
Zn2   Zn    Zn3+2 0.022330 0.500000 0.387520 0.994285
Zn3   Zn    Zn3+2 0.477660 0.000000 0.612480 0.966673
Zn4   Zn    Zn3+2 0.977660 0.500000 0.612480 0.962558
O9    O     O_R   0.585240 0.923200 0.457600 -0.571622
O10   O     O_R   0.585240 0.076800 0.457600 -0.541051
O11   O     O_R   0.085240 0.423200 0.457600 -0.547902
O12   O     O_R   0.085240 0.576800 0.457600 -0.561623
O13   O     O_R   0.551780 0.923190 0.626070 -0.643527
O14   O     O_R   0.551780 0.076810 0.626070 -0.647103
O15   O     O_R   0.051780 0.423190 0.626070 -0.646246
O16   O     O_R   0.051780 0.576810 0.626070 -0.621184
C5    C     C_R   0.588526 0.896411 0.556876 0.915335
C6    C     C_R   0.591134 0.101137 0.557295 0.893580
C7    C     C_R   0.087323 0.394719 0.555160 0.863029
C8    C     C_R   0.087043 0.605161 0.554502 0.878868
C9    C     C_R   0.720316 0.234902 0.722406 -0.202182
C10   C     C_R   0.642761 0.697521 0.641750 -0.213392
C11   C     C_R   0.220220 0.727081 0.724267 -0.220602
C12   C     C_R   0.223665 0.273410 0.724309 -0.211934
H1    H     H_    0.351294 0.778394 0.770738 0.143094
H2    H     H_    0.355861 0.224680 0.767767 0.136922
H3    H     H_    0.849583 0.294901 0.772282 0.140300
H4    H     H_    0.700219 0.566608 0.605846 0.167502
H5    H     H_    0.727116 0.267329 0.796031 0.156821
H6    H     H_    0.628068 0.650507 0.688868 0.157803
H7    H     H_    0.233898 0.748684 0.805383 0.157801
H8    H     H_    0.238840 0.251997 0.805762 0.158068
C13   C     C_R   0.650899 0.151111 0.594873 -0.205631
C14   C     C_R   0.631686 0.828938 0.586426 -0.184695
C15   C     C_R   0.138258 0.665510 0.586012 -0.183554
C16   C     C_R   0.138985 0.333962 0.587000 -0.182733
C17   C     C_R   0.359618 0.800714 0.312299 -0.182951
C18   C     C_R   0.356091 0.196768 0.308438 -0.186213
C19   C     C_R   0.856599 0.301445 0.314653 -0.173429
C20   C     C_R   0.871942 0.713012 0.329450 -0.166427
C21   C     C_R   0.314981 0.739985 0.283864 -0.177770
C22   C     C_R   0.310179 0.256493 0.278658 -0.176244
C23   C     C_R   0.809115 0.243176 0.286991 -0.181028
C24   C     C_R   0.828522 0.775527 0.306068 -0.173934
C25   C     C_R   0.279528 0.707520 0.359878 -0.102397
C26   C     C_R   0.275767 0.289605 0.354816 -0.100626
C27   C     C_R   0.777994 0.207763 0.365639 -0.122656
C28   C     C_R   0.773700 0.787205 0.362855 -0.097893
C29   C     C_R   0.290283 0.734428 0.466758 0.117081
C30   C     C_R   0.288837 0.264435 0.463124 0.112356
C31   C     C_R   0.798424 0.225975 0.475695 0.112811
C32   C     C_R   0.760304 0.734568 0.441882 0.120926
C33   C     C_R   0.346991 0.783268 0.499663 0.085896
C34   C     C_R   0.346693 0.216753 0.496125 0.086577
C35   C     C_R   0.852729 0.279132 0.504671 0.080214
C36   C     C_R   0.796101 0.665082 0.449560 0.046015
C37   C     C_R   0.760386 0.201588 0.556324 -0.041874
C38   C     C_R   0.712041 0.747428 0.512500 -0.055691
C39   C     C_R   0.246093 0.716516 0.541909 -0.061201
C40   C     C_R   0.246065 0.283030 0.539783 -0.063797
C41   C     C_R   0.772411 0.236398 0.658000 0.044714
C42   C     C_R   0.690486 0.686226 0.572132 0.031882
C43   C     C_R   0.267142 0.735082 0.651927 0.061868
C44   C     C_R   0.269282 0.265660 0.650115 0.053925
C45   C     C_R   0.332674 0.767221 0.686316 -0.190642
C46   C     C_R   0.335667 0.234746 0.683287 -0.175407
C47   C     C_R   0.834994 0.274935 0.690530 -0.157289
C48   C     C_R   0.717827 0.614342 0.563299 -0.165228
C49   C     C_R   0.372441 0.790824 0.610892 -0.183277
C50   C     C_R   0.374412 0.211095 0.606950 -0.154333
C51   C     C_R   0.877752 0.290946 0.615448 -0.136766
C52   C     C_R   0.770527 0.603927 0.503221 -0.151448
C53   C     C_R   0.706851 0.148686 0.536883 0.516817
C54   C     C_R   0.686836 0.819523 0.529367 0.506300
C55   C     C_R   0.178951 0.687168 0.509615 0.508716
C56   C     C_R   0.178401 0.312042 0.509282 0.519200
C57   C     C_R   0.655877 0.199703 0.685141 0.138877
C58   C     C_R   0.612452 0.768196 0.650155 0.135234
C59   C     C_R   0.153768 0.695955 0.690490 0.118192
C60   C     C_R   0.156410 0.303263 0.691974 0.137102
C61   C     C_R   0.374671 0.824231 0.419936 -0.121287
C62   C     C_R   0.373431 0.175024 0.417062 -0.122233
C63   C     C_R   0.876183 0.322513 0.422571 -0.110606
C64   C     C_R   0.856922 0.658491 0.403437 -0.124271
H9    H     H_    0.382103 0.829256 0.249999 0.164599
H10   H     H_    0.377693 0.167536 0.246427 0.159307
H11   H     H_    0.875403 0.332306 0.250808 0.160510
H12   H     H_    0.917837 0.707960 0.291222 0.177305
H13   H     H_    0.735382 0.169849 0.337108 0.201107
H14   H     H_    0.741022 0.836055 0.340744 0.189352
H15   H     H_    0.245293 0.660567 0.334208 0.180080
H16   H     H_    0.240624 0.335802 0.327959 0.191796
H17   H     H_    0.305462 0.720140 0.201722 0.141127
H18   H     H_    0.298894 0.275023 0.195540 0.144865
H19   H     H_    0.792660 0.228905 0.203182 0.148318
H20   H     H_    0.838891 0.816486 0.246676 0.153826
H21   H     H_    0.422575 0.815938 0.641164 0.171354
H22   H     H_    0.425521 0.187303 0.635960 0.151244
H23   H     H_    0.927698 0.317259 0.644459 0.159436
H24   H     H_    0.790679 0.547469 0.497865 0.207118
C65   C     C_R   0.632570 0.941248 0.141574 -0.324417
C66   C     C_R   0.133700 0.556502 0.141310 -0.290839
H25   H     H_    0.654498 0.965512 0.309489 0.212126
H26   H     H_    0.154808 0.532510 0.309761 0.141677
H27   H     H_    0.654138 0.909172 0.949413 0.164473
H28   H     H_    0.157330 0.584369 0.950303 0.152376
H29   H     H_    0.684225 0.917655 0.140719 0.147723
H30   H     H_    0.185838 0.578832 0.140148 0.133172
N1    N     N_R   0.552340 0.000000 0.237260 -0.115355
N2    N     N_R   0.052340 0.500000 0.237260 -0.104834
C67   C     C_R   0.378233 0.011767 0.760137 0.767341
C68   C     C_R   0.878620 0.486296 0.761301 0.754163
C69   C     C_R   0.350834 0.012785 0.854822 -0.327212
C70   C     C_R   0.851308 0.486324 0.856009 -0.331029
C71   C     C_R   0.395119 0.001170 0.952195 -0.303669
C72   C     C_R   0.895382 0.499874 0.952619 -0.285945
C73   C     C_R   0.467087 0.986950 0.954726 -0.006568
C74   C     C_R   0.967313 0.514134 0.954627 -0.004792
C75   C     C_R   0.493351 0.985251 0.856560 0.070429
C76   C     C_R   0.993453 0.515580 0.856252 0.080914
C77   C     C_R   0.515108 0.977791 0.051419 0.019300
C78   C     C_R   0.015454 0.522602 0.051299 0.012135
C79   C     C_R   0.582142 0.946322 0.048396 0.140026
C80   C     C_R   0.083270 0.551999 0.048184 0.140517
C81   C     C_R   0.601186 0.929452 0.950392 -0.275172
C82   C     C_R   0.103347 0.567051 0.950621 -0.287520
C83   C     C_R   0.565860 0.967375 0.860361 0.187205
C84   C     C_R   0.066432 0.532072 0.860145 0.217359
C85   C     C_R   0.501150 0.002922 0.150212 -0.059562
C86   C     C_R   0.001044 0.498078 0.150463 -0.035860
C87   C     C_R   0.616817 0.970318 0.235838 0.059241
C88   C     C_R   0.117285 0.528296 0.235916 0.096726
N3    N     N_R   0.448170 0.000000 0.762060 -0.187509
N4    N     N_R   0.948170 0.500000 0.762060 -0.176042
H31   H     H_    0.450735 0.025048 0.160434 0.124811
H32   H     H_    0.950308 0.477079 0.161360 0.119933
H33   H     H_    0.371674 0.000674 0.023994 0.170905
H34   H     H_    0.871869 0.500869 0.024312 0.165497
H35   H     H_    0.295199 0.021916 0.852660 0.184389
H36   H     H_    0.795890 0.476016 0.854467 0.171049
C89   C     C_3   0.595102 0.220839 0.739558 -0.917419
H37   H     H_    0.544502 0.197293 0.700135 0.244913
H38   H     H_    0.605860 0.203287 0.825400 0.237653
H39   H     H_    0.588802 0.283114 0.736592 0.240478
C90   C     C_3   0.561612 0.772495 0.728462 -0.897831
H40   H     H_    0.542393 0.829055 0.742951 0.268608
H41   H     H_    0.516100 0.735162 0.700828 0.227946
H42   H     H_    0.588093 0.751446 0.808287 0.239780
C91   C     C_3   0.098853 0.709637 0.759619 -0.815379
H43   H     H_    0.046528 0.686518 0.726556 0.262386
H44   H     H_    0.117005 0.687619 0.841501 0.233163
H45   H     H_    0.091780 0.771439 0.766597 0.238070
C92   C     C_3   0.102681 0.286259 0.762332 -0.882491
H46   H     H_    0.120448 0.308034 0.844733 0.231707
H47   H     H_    0.049808 0.308086 0.728810 0.243408
H48   H     H_    0.097424 0.224116 0.769286 0.251250
F1    F     F_    0.333924 0.020314 0.665396 -0.635298
F2    F     F_    0.834580 0.473701 0.667802 -0.684219
C93   C     C_3   0.614293 0.020793 0.816226 -0.746703
H49   H     H_    0.663718 0.031172 0.874004 0.197489
H50   H     H_    0.631602 0.998537 0.743617 0.264384
H51   H     H_    0.589442 0.076779 0.806866 0.251004
C94   C     C_3   0.113636 0.479234 0.814273 -0.776080
H52   H     H_    0.131417 0.502271 0.742038 0.257643
H53   H     H_    0.162822 0.465820 0.871335 0.191720
H54   H     H_    0.086647 0.424985 0.804707 0.256692
F3    F     F_    0.712100 0.091578 0.467294 -0.653366
F4    F     F_    0.716948 0.882399 0.494864 -0.664219
F5    F     F_    0.148941 0.686622 0.403980 -0.674497
F6    F     F_    0.146639 0.312099 0.404469 -0.667268

loop_
_geom_bond_atom_site_label_1
_geom_bond_atom_site_label_2
_geom_bond_distance
_ccdc_geom_bond_type
C30   C34   1.405195 A    
C94   H52   1.103034 S    
C39   C55   1.393100 A    
C91   H43   1.105289 S    
C27   C31   1.416968 A    
C15   C55   1.395495 A    
H26   C88   1.081384 S    
C4    C63   1.471513 S    
Zn4   N4    2.062530 S    
O10   C6    1.319409 A    
C28   H14   1.078767 S    
C17   H9    1.083064 S    
C92   H46   1.109901 S    
C68   F2    1.351390 S    
C93   H50   1.103300 S    
C35   C51   1.415885 A    
C25   H15   1.079597 S    
O7    C3    1.321976 A    
C94   H53   1.114346 S    
H3    C47   1.083921 S    
C22   C26   1.391946 A    
Zn1   O10   1.939593 S    
C53   F3    1.360475 S    
C58   C90   1.509759 S    
C75   C83   1.429065 A    
C89   H38   1.109657 S    
C21   H17   1.082685 S    
C37   C41   1.410991 A    
Zn1   N1    2.075142 S    
C71   C73   1.408064 A    
C39   C43   1.419385 A    
C9    H5    1.084996 S    
C74   C78   1.410768 A    
C23   H19   1.082794 S    
C60   C92   1.505488 S    
C12   C60   1.396908 A    
C19   H11   1.083225 S    
C10   H6    1.085726 S    
C75   N3    1.375505 A    
O2    Zn1   1.962479 S    
C45   C49   1.383562 A    
H4    C48   1.084167 S    
C10   C42   1.393317 A    
O6    Zn3   1.939469 S    
Zn3   N3    2.062530 S    
C3    C64   1.458935 S    
Zn3   O14   1.962462 S    
C71   H33   1.079813 S    
C2    C61   1.466565 S    
C33   C49   1.412938 A    
Zn2   N2    2.075142 S    
C12   C44   1.398487 A    
C14   C54   1.394762 A    
C65   C79   1.395192 A    
C20   C64   1.403157 A    
C69   H35   1.082679 S    
C66   C80   1.395110 A    
C14   C58   1.425903 A    
O15   C7    1.320660 A    
C10   C58   1.396099 A    
O11   C7    1.321253 A    
C67   F1    1.353703 S    
C9    C57   1.401223 A    
C40   C44   1.419326 A    
C11   C43   1.398341 A    
C85   H31   1.078578 S    
C32   C38   1.415070 A    
O8    Zn4   1.939469 S    
H27   C81   1.086609 S    
C81   C83   1.390204 A    
C36   C52   1.407432 A    
C26   H16   1.079273 S    
N1    C87   1.355544 A    
C29   C39   1.414314 A    
N2    C88   1.353572 A    
C7    C16   1.475219 S    
C92   H47   1.105647 S    
C33   C61   1.413359 A    
C32   C36   1.408008 A    
C93   H51   1.099842 S    
C9    C41   1.397455 A    
C67   C69   1.387139 A    
C94   H54   1.091456 S    
C11   C59   1.396315 A    
C55   F5    1.359756 S    
H25   C87   1.080983 S    
C40   C56   1.395505 A    
Zn2   O12   1.939593 S    
O1    C1    1.315929 A    
C44   C46   1.390858 A    
C89   H39   1.110739 S    
C93   H49   1.113942 S    
C43   C45   1.389440 A    
C25   C29   1.415425 A    
C19   C23   1.387614 A    
O12   C8    1.320566 A    
C16   C56   1.397812 A    
C72   H34   1.079626 S    
C59   C91   1.504908 S    
C1    C62   1.467254 S    
O1    Zn1   1.962241 S    
C78   C80   1.416205 A    
O5    C1    1.317799 A    
C73   C77   1.409252 A    
C38   C54   1.399030 A    
C37   C53   1.387439 A    
C18   H10   1.083107 S    
C84   C94   1.494773 S    
C17   C21   1.389474 A    
O8    C4    1.315640 A    
O5    Zn3   1.931370 S    
C13   C53   1.405774 A    
C27   H13   1.077385 S    
C52   H24   1.081235 S    
H28   C82   1.087519 S    
C51   H23   1.078800 S    
C68   N4    1.363561 A    
C90   H42   1.110874 S    
C56   F6    1.359499 S    
C90   H41   1.109335 S    
O3    Zn2   1.962241 S    
H2    C46   1.084187 S    
C80   C82   1.376613 A    
O7    Zn4   1.931370 S    
C76   C84   1.432227 A    
C54   F4    1.359843 S    
C22   H18   1.082675 S    
C91   H45   1.110543 S    
C70   H36   1.082796 S    
C42   C48   1.392695 A    
C67   N3    1.363266 A    
C91   H44   1.101437 S    
O4    C4    1.319763 A    
C36   C64   1.402710 A    
C70   C72   1.384959 A    
O2    C2    1.315717 A    
C66   H30   1.084311 S    
C92   H48   1.110751 S    
C17   C61   1.405877 A    
C68   C70   1.386298 A    
O16   C8    1.317172 A    
C72   C74   1.408137 A    
C26   C30   1.415481 A    
H1    C45   1.084212 S    
O13   C5    1.307740 A    
C24   H20   1.082615 S    
C74   C76   1.417756 A    
C20   H12   1.083317 S    
C19   C63   1.402989 A    
Zn2   O11   1.931494 S    
C34   C50   1.412217 A    
N1    C85   1.347229 A    
C48   C52   1.382456 A    
C79   C81   1.383917 A    
C5    C14   1.467750 S    
O6    C2    1.317567 A    
C82   C84   1.388683 A    
C29   C33   1.403953 A    
C18   C62   1.405258 A    
Zn4   O15   1.962224 S    
C13   C57   1.423515 A    
C18   C22   1.389610 A    
C8    C15   1.467145 S    
C31   C35   1.412552 A    
Zn1   O9    1.931494 S    
C65   C87   1.380662 A    
C15   C59   1.412340 A    
C66   C88   1.376846 A    
O9    C5    1.327660 A    
C86   H32   1.078344 S    
C89   H37   1.101643 S    
C31   C37   1.417808 A    
C30   C40   1.416097 A    
C38   C42   1.418199 A    
Zn3   O13   1.962224 S    
C76   N4    1.379659 A    
C21   C25   1.391340 A    
C34   C62   1.413293 A    
C49   H21   1.075936 S    
C11   H7    1.085138 S    
C50   H22   1.077762 S    
C41   C47   1.389399 A    
C23   C27   1.390785 A    
C12   H8    1.085225 S    
O4    Zn2   1.962479 S    
C57   C89   1.506732 S    
C69   C71   1.386040 A    
O3    C3    1.307775 A    
C65   H29   1.084090 S    
O14   C6    1.317676 A    
C28   C32   1.416383 A    
C20   C24   1.389764 A    
C77   C85   1.395937 A    
Zn4   O16   1.962462 S    
C46   C50   1.384460 A    
C35   C63   1.420525 A    
C73   C75   1.416974 A    
C83   C93   1.500450 S    
C16   C60   1.414590 A    
C90   H40   1.097172 S    
N2    C86   1.346188 A    
C47   C51   1.386825 A    
C24   C28   1.392718 A    
C6    C13   1.469948 S    
C77   C79   1.417055 A    
C78   C86   1.393830 A    
