data_mof_unit_50164.cif
_audit_creation_date              2013-03-05T15:49:32-0500
_audit_creation_method            fapswitch 2.2
_symmetry_space_group_name_H-M    P1
_symmetry_Int_Tables_number       1
_space_group_crystal_system       triclinic
_cell_length_a                    10.655584
_cell_length_b                    12.056758
_cell_length_c                    12.865031
_cell_angle_alpha                 93.966129
_cell_angle_beta                  93.65721
_cell_angle_gamma                 83.430824
_cell_volume                      1635.4046007

loop_
_atom_site_label
_atom_site_type_symbol
_atom_site_description
_atom_site_fract_x
_atom_site_fract_y
_atom_site_fract_z
_atom_type_partial_charge
O1    O     O_R   0.506170 0.421700 0.658830 -0.544912
O2    O     O_R   0.493830 0.578300 0.341170 -0.545038
O3    O     O_R   0.491330 0.609310 0.646410 -0.628700
O4    O     O_R   0.508670 0.390690 0.353590 -0.628713
C1    C     C_R   0.488761 0.522677 0.699655 0.944060
C2    C     C_R   0.511164 0.477325 0.300330 0.943433
O5    O     O_R   0.690650 0.406190 0.506220 -0.628180
O6    O     O_R   0.309350 0.593810 0.493780 -0.628220
O7    O     O_R   0.675800 0.593810 0.493800 -0.555253
O8    O     O_R   0.324200 0.406190 0.506200 -0.555120
C3    C     C_R   0.740296 0.497673 0.508206 0.907631
C4    C     C_R   0.259703 0.502327 0.491797 0.907421
Zn1   Zn    Zn3+2 0.509910 0.374730 0.508290 1.072350
Zn2   Zn    Zn3+2 0.490090 0.625270 0.491710 1.072303
C5    C     C_R   0.900037 0.533005 0.701616 0.340570
C6    C     C_R   0.099911 0.467174 0.298399 0.340253
C7    C     C_R   0.965261 0.591534 0.782084 -0.095966
C8    C     C_R   0.034712 0.408668 0.217902 -0.095967
C9    C     C_R   0.081574 0.626305 0.766174 -0.162472
C10   C     C_R   0.918442 0.373799 0.233813 -0.162067
C11   C     C_R   0.136058 0.599615 0.671299 -0.111601
C12   C     C_R   0.863967 0.400394 0.328712 -0.111765
C13   C     C_R   0.069599 0.545956 0.586832 0.069096
C14   C     C_R   0.930409 0.454045 0.413196 0.068949
C15   C     C_R   0.945918 0.522611 0.598940 -0.016191
C16   C     C_R   0.054070 0.477432 0.401087 -0.016067
C17   C     C_R   0.124971 0.513565 0.491234 -0.101334
C18   C     C_R   0.875029 0.486436 0.508794 -0.101513
H1    H     H_    0.930758 0.603135 0.859875 0.189386
H2    H     H_    0.069176 0.397189 0.140091 0.189275
C19   C     C_R   0.522882 0.462061 0.189037 -0.145611
C20   C     C_R   0.476818 0.537964 0.810921 -0.145631
C21   C     C_R   0.535774 0.641292 0.969206 -0.109262
C22   C     C_R   0.463642 0.358815 0.030779 -0.109353
C23   C     C_R   0.511593 0.636380 0.862721 -0.185403
C24   C     C_R   0.487919 0.363706 0.137257 -0.185451
C25   C     C_R   0.449910 0.448085 0.866724 0.280260
C26   C     C_R   0.549705 0.551951 0.133214 0.280608
C27   C     C_R   0.477526 0.451389 0.974181 0.033515
C28   C     C_R   0.521970 0.548683 0.025781 0.033678
H3    H     H_    0.470509 0.293095 0.179596 0.223980
H4    H     H_    0.528991 0.707008 0.820397 0.223946
H5    H     H_    0.568901 0.716899 0.005630 0.204433
H6    H     H_    0.430412 0.283245 0.994380 0.204435
N1    N     N_R   0.523130 0.207800 0.519340 -0.157662
N2    N     N_R   0.476870 0.792200 0.480660 -0.157698
C29   C     C_R   0.360128 0.960012 0.419544 -0.203146
C30   C     C_R   0.639889 0.039990 0.580444 -0.203142
C31   C     C_R   0.376258 0.843548 0.425479 0.013475
C32   C     C_R   0.623765 0.156454 0.574497 0.013318
C33   C     C_R   0.565723 0.854639 0.531102 0.445144
C34   C     C_R   0.434266 0.145361 0.468919 0.445238
C35   C     C_R   0.552332 0.973311 0.528080 -0.062211
C36   C     C_R   0.447672 0.026689 0.471926 -0.062261
H7    H     H_    0.692664 0.205898 0.613821 0.213345
H8    H     H_    0.307378 0.794108 0.386130 0.213461
H9    H     H_    0.278977 0.996883 0.374098 0.214249
H10   H     H_    0.721050 0.003121 0.625879 0.214242
H11   H     H_    0.866856 0.331859 0.170407 0.172450
H12   H     H_    0.133168 0.668268 0.829559 0.172480
N3    N     N_R   0.806760 0.465620 0.730637 0.182129
O9    O     O_R   0.751312 0.491305 0.817541 -0.417372
O10   O     O_R   0.810561 0.362683 0.692533 -0.389929
N4    N     N_R   0.193016 0.534765 0.269407 0.182191
O11   O     O_R   0.189059 0.637665 0.307646 -0.389836
O12   O     O_R   0.248414 0.509305 0.182444 -0.417413
H13   H     H_    0.229654 0.623439 0.665108 0.145225
H14   H     H_    0.770390 0.376527 0.334900 0.145284
N5    N     N_R   0.603751 0.646031 0.185790 0.200773
O13   O     O_R   0.713124 0.630906 0.236845 -0.377414
O14   O     O_R   0.536372 0.742917 0.195156 -0.366154
N6    N     N_R   0.395972 0.353965 0.814096 0.200835
O15   O     O_R   0.286969 0.369116 0.762518 -0.377515
O16   O     O_R   0.463321 0.257041 0.805029 -0.366184
N7    N     N_R   0.326679 0.200176 0.413773 0.203272
O17   O     O_R   0.214946 0.202370 0.449716 -0.376584
O18   O     O_R   0.336557 0.229558 0.319621 -0.419598
N8    N     N_R   0.673266 0.799826 0.586305 0.203258
O19   O     O_R   0.785030 0.797602 0.550417 -0.376692
O20   O     O_R   0.663313 0.770451 0.680438 -0.419349

loop_
_geom_bond_atom_site_label_1
_geom_bond_atom_site_label_2
_geom_bond_distance
_ccdc_geom_bond_type
C26   C28   1.393630 A    
C7    H1    1.082638 S    
Zn2   N2    2.015665 S    
O7    Zn2   1.970614 S    
C34   N7    1.429016 S    
C29   C31   1.401789 A    
C35   C36   1.406090 A    
C15   C18   1.414018 A    
O5    C3    1.274748 A    
N2    C31   1.359574 A    
C16   C17   1.413933 A    
O1    C1    1.290256 A    
C3    C18   1.426107 S    
C9    C11   1.386983 A    
C14   C16   1.399047 A    
N8    O20   1.299071 A    
C5    C15   1.430047 A    
N3    O10   1.299652 A    
O4    Zn1   2.011771 S    
N5    O14   1.301612 A    
C23   H4    1.081260 S    
C21   C23   1.376171 A    
C8    H2    1.082685 S    
C13   C17   1.409479 A    
C22   C24   1.376220 A    
N3    O9    1.299792 A    
C1    C20   1.442415 S    
C30   C32   1.401808 A    
C2    C19   1.442422 S    
C26   N5    1.438555 S    
C11   H13   1.078106 S    
C24   H3    1.081229 S    
O2    C2    1.290254 A    
C34   C36   1.424528 A    
C6    C16   1.430041 A    
C30   C35   1.409640 A    
C21   C28   1.400621 A    
C4    C17   1.426113 S    
C22   C27   1.400628 A    
C21   H5    1.081007 S    
C20   C23   1.396099 A    
C22   H6    1.080956 S    
N6    O16   1.301607 A    
C27   C28   1.421373 A    
N8    O19   1.301264 A    
N1    C34   1.378878 A    
N2    C33   1.378896 A    
C33   C35   1.424550 A    
N4    O12   1.299855 A    
N7    O17   1.301276 A    
C29   H9    1.081983 S    
O7    C3    1.296670 A    
O6    C4    1.274751 A    
C5    N3    1.435765 S    
C20   C25   1.406013 A    
C10   H11   1.082852 S    
N7    O18   1.299195 A    
C12   H14   1.078125 S    
O3    Zn2   2.011772 S    
O8    C4    1.296670 A    
C29   C36   1.409622 A    
O4    C2    1.291870 A    
C10   C12   1.387060 A    
C11   C13   1.417851 A    
C12   C14   1.417869 A    
O1    Zn1   1.981431 S    
C5    C7    1.404299 A    
O6    Zn2   2.007167 S    
C14   C18   1.409515 A    
N6    O15   1.301007 A    
O3    C1    1.291854 A    
O8    Zn1   1.970613 S    
C30   H10   1.081977 S    
C9    H12   1.082844 S    
C31   H8    1.077603 S    
C32   H7    1.077657 S    
C19   C26   1.405973 A    
N4    O11   1.299708 A    
C33   N8    1.429019 S    
C25   C27   1.393734 A    
Zn1   N1    2.015664 S    
N1    C32   1.359576 A    
C7    C9    1.384506 A    
C8    C10   1.384565 A    
C13   C15   1.399095 A    
N5    O13   1.301228 A    
O2    Zn2   1.981431 S    
O5    Zn1   2.007168 S    
C6    C8    1.404280 A    
C25   N6    1.438662 S    
C19   C24   1.396040 A    
C6    N4    1.435863 S    
