data_mof_unit_37590.cif
_audit_creation_date              2012-12-10T17:02:02-0500
_audit_creation_method            fapswitch 2.2
_symmetry_space_group_name_H-M    P1
_symmetry_Int_Tables_number       1
_space_group_crystal_system       triclinic
_cell_length_a                    10.854765
_cell_length_b                    11.039352
_cell_length_c                    9.841346
_cell_angle_alpha                 111.089807
_cell_angle_beta                  99.612392
_cell_angle_gamma                 90.742635
_cell_volume                      1081.41928128

loop_
_atom_site_label
_atom_site_type_symbol
_atom_type_description
_atom_site_fract_x
_atom_site_fract_y
_atom_site_fract_z
_atom_type_partial_charge
C1    C     C_R   0.490666 0.254018 0.440575 0.867528
C2    C     C_R   0.087725 0.575858 0.642685 0.099556
C3    C     C_R   0.130401 0.524452 0.506520 -0.108459
C4    C     C_R   0.044558 0.470582 0.373486 -0.151299
C5    C     C_R   0.917912 0.461822 0.374621 -0.222375
C6    C     C_R   0.874697 0.497065 0.508799 -0.108532
C7    C     C_2   0.485188 0.114704 0.406970 -0.344542
C8    C     C_2   0.500868 0.069525 0.516653 -0.151059
C9    C     C_2   0.513358 0.885262 0.593006 -0.346953
C10   C     C_2   0.496135 0.930406 0.483301 -0.134075
C11   C     C_2   0.509486 0.507980 0.077851 -0.000933
C12   C     C_R   0.263284 0.510816 0.502529 0.795623
C13   C     C_2   0.487537 0.489493 0.915048 -0.088865
C14   C     C_R   0.508924 0.745977 0.559423 0.862490
C15   C     C_R   0.738555 0.496474 0.501183 0.799552
C16   C     C_R   0.166748 0.656005 0.775510 -0.182190
C17   C     C_R   0.131229 0.682554 0.911975 -0.201278
C18   C     C_R   0.016528 0.629078 0.919595 0.016652
C19   C     C_R   0.933141 0.559982 0.787156 -0.218439
C20   C     C_R   0.962617 0.544151 0.646335 0.080018
Cu1   Cu    Cu3+1 0.521920 0.521810 0.644910 0.943498
Cu2   Cu    Cu3+1 0.478080 0.478190 0.355090 0.990127
H1    H     H_    0.075236 0.433606 0.267743 0.181627
H2    H     H_    0.468346 0.048594 0.291788 0.152124
H3    H     H_    0.413671 0.419530 0.838025 0.167711
H4    H     H_    0.585096 0.578416 0.150613 0.137953
H5    H     H_    0.625314 0.620380 0.936611 0.225575
H6    H     H_    0.256178 0.700215 0.775392 0.167368
H7    H     H_    0.195554 0.741430 0.011692 0.174296
H8    H     H_    0.850236 0.512678 0.798010 0.210230
H9    H     H_    0.853681 0.423709 0.269346 0.174985
H10   H     H_    0.478706 0.864552 0.367923 0.181503
H11   H     H_    0.517668 0.135369 0.632024 0.179523
H12   H     H_    0.530792 0.951379 0.708191 0.149723
N1    N     N_2   0.445130 0.445430 0.137370 -0.097179
N2    N     N_2   0.554930 0.554500 0.862630 -0.289187
O1    O     O_R   0.511700 0.332330 0.577400 -0.581383
O2    O     O_R   0.474680 0.295500 0.332650 -0.553546
O3    O     O_R   0.338160 0.518420 0.622400 -0.595033
O4    O     O_R   0.301140 0.481590 0.377650 -0.547307
O5    O     O_R   0.525320 0.704500 0.667350 -0.581480
O6    O     O_R   0.488300 0.667670 0.422600 -0.581530
O7    O     O_R   0.698860 0.518410 0.622350 -0.587815
O8    O     O_R   0.661840 0.481580 0.377600 -0.588382
N3    N     N_3   0.344565 0.357515 0.048067 -0.453653
H13   H     H_    0.377640 0.283389 0.964665 0.198053
H14   H     H_    0.279046 0.406864 0.001289 0.209700
C21   C     C_2   0.982893 0.646287 0.065390 0.825545
O9    O     O_2   0.057832 0.702717 0.180023 -0.598251
O10   O     O_R   0.865230 0.598093 0.072309 -0.807225
H15   H     H_    0.852787 0.617862 0.177770 0.330011

loop_
_geom_bond_atom_site_label_1
_geom_bond_atom_site_label_2
_ccdc_geom_bond_type
C16   H6    S    
C18   C21   S    
C9    C14   S    
C12   O4    A    
H5    N2    S    
C2    C16   A    
C9    C10   D    
C19   C20   A    
Cu1   O3    S    
C1    O1    A    
C14   O6    A    
Cu2   O4    S    
C12   O3    A    
C21   O10   S    
C17   C18   A    
C15   O7    A    
C7    C8    D    
Cu1   N2    S    
C1    C7    S    
N3    H13   S    
Cu2   N1    S    
C11   C13   S    
C13   H3    S    
Cu2   O6    S    
C1    O2    A    
C13   N2    D    
C14   O5    A    
Cu1   O5    S    
C11   N1    D    
C21   O9    D    
C15   O8    A    
C2    C3    A    
C8    H11   S    
N3    H14   S    
C5    C6    A    
Cu2   O8    S    
C2    C20   A    
C3    C4    A    
N1    N3    S    
C10   H10   S    
C17   H7    S    
C6    C20   A    
Cu1   O1    S    
C8    C10   S    
C18   C19   A    
C4    H1    S    
C16   C17   A    
C3    C12   S    
C11   H4    S    
O10   H15   S    
C6    C15   S    
Cu1   Cu2   S    
C19   H8    S    
Cu1   O7    S    
C7    H2    S    
C9    H12   S    
C4    C5    A    
C5    H9    S    
Cu2   O2    S    
