data_mof_unit_48600.cif
_audit_creation_date              2012-12-10T17:56:18-0500
_audit_creation_method            fapswitch 2.2
_symmetry_space_group_name_H-M    P1
_symmetry_Int_Tables_number       1
_space_group_crystal_system       triclinic
_cell_length_a                    12.996432
_cell_length_b                    10.879998
_cell_length_c                    9.509477
_cell_angle_alpha                 89.203733
_cell_angle_beta                  95.962492
_cell_angle_gamma                 90.016072
_cell_volume                      1337.24654709

loop_
_atom_site_label
_atom_site_type_symbol
_atom_type_description
_atom_site_fract_x
_atom_site_fract_y
_atom_site_fract_z
_atom_type_partial_charge
C1    C     C_R   0.500812 0.262087 0.501565 0.786309
C2    C     C_R   0.499187 0.737913 0.498435 0.786309
C3    C     C_R   0.499258 0.871758 0.495677 -0.134075
C4    C     C_R   0.500741 0.128241 0.504323 -0.134075
C5    C     C_R   0.434215 0.425569 0.066262 -0.013923
C6    C     C_R   0.565785 0.574431 0.933738 -0.013922
C7    C     C_R   0.434288 0.425559 0.917388 -0.021051
C8    C     C_R   0.565712 0.574441 0.082612 -0.021051
C9    C     C_R   0.301036 0.501934 0.473961 0.816111
C10   C     C_R   0.698963 0.498066 0.526038 0.816111
C11   C     C_R   0.810780 0.485778 0.539687 -0.165696
C12   C     C_R   0.189219 0.514221 0.460313 -0.165697
C13   C     C_R   0.037635 0.641613 0.401452 0.205506
C14   C     C_R   0.962364 0.358385 0.598544 0.205503
C15   C     C_R   0.143453 0.621365 0.398705 0.046164
C16   C     C_R   0.856546 0.378633 0.601291 0.046165
C17   C     C_R   0.129990 0.424122 0.521427 0.097352
C18   C     C_R   0.870010 0.575878 0.478574 0.097352
C19   C     C_R   0.023351 0.444679 0.530049 0.010955
C20   C     C_R   0.976648 0.555320 0.469950 0.010953
C21   C     C_R   0.476842 0.068376 0.375750 -0.175520
C22   C     C_R   0.523158 0.931624 0.624250 -0.175520
C23   C     C_R   0.475962 0.941514 0.369443 0.155697
C24   C     C_R   0.524038 0.058486 0.630557 0.155697
Cu1   Cu    Cu3+1 0.500000 0.500020 0.640660 0.931039
Cu2   Cu    Cu3+1 0.500000 0.499980 0.359340 0.931039
H1    H     H_    0.381810 0.365785 0.854729 0.111372
H2    H     H_    0.618190 0.634215 0.145271 0.111373
N1    N     N_R   0.500030 0.500030 0.852080 -0.161388
N2    N     N_R   0.499970 0.499970 0.147920 -0.161388
O1    O     O_R   0.499990 0.319660 0.618740 -0.598219
O2    O     O_R   0.500010 0.680340 0.381260 -0.598219
O3    O     O_R   0.499990 0.319630 0.381170 -0.582495
O4    O     O_R   0.500010 0.680370 0.618830 -0.582495
O5    O     O_R   0.349000 0.499990 0.599490 -0.581052
O6    O     O_R   0.651000 0.500010 0.400510 -0.581052
O7    O     O_R   0.348990 0.499960 0.361920 -0.588570
O8    O     O_R   0.651010 0.500040 0.638080 -0.588570
N3    N     N_3   0.821748 0.689543 0.428704 -0.546400
H3    H     H_    0.784638 0.728261 0.509980 0.206967
H4    H     H_    0.767195 0.672333 0.342683 0.230147
N4    N     N_3   0.178253 0.310459 0.571302 -0.546400
H5    H     H_    0.232805 0.327671 0.657323 0.230147
H6    H     H_    0.215363 0.271739 0.490029 0.206968
N5    N     N_3   0.795998 0.286412 0.664155 -0.606976
H7    H     H_    0.737259 0.257111 0.588585 0.216621
H8    H     H_    0.762780 0.325056 0.748741 0.239949
N6    N     N_3   0.204000 0.713584 0.335837 -0.606975
H9    H     H_    0.237218 0.674937 0.251252 0.239950
H10   H     H_    0.262740 0.742887 0.411405 0.216621
N7    N     N_3   0.992997 0.750856 0.333982 -0.536118
H11   H     H_    0.006294 0.750658 0.227393 0.232243
H12   H     H_    0.029677 0.827494 0.381697 0.243057
N8    N     N_3   0.007001 0.249142 0.666010 -0.536119
H13   H     H_    0.970321 0.172506 0.618293 0.243057
H14   H     H_    0.993703 0.249337 0.772598 0.232244
H15   H     H_    0.457953 0.120259 0.278316 0.174705
H16   H     H_    0.542047 0.879741 0.721684 0.174705
N9    N     N_3   0.449970 0.887986 0.233461 -0.589611
H17   H     H_    0.386853 0.829126 0.237907 0.237465
H18   H     H_    0.513853 0.839748 0.204590 0.238024
N10   N     N_3   0.550031 0.112014 0.766539 -0.589611
H19   H     H_    0.613148 0.170873 0.762092 0.237465
H20   H     H_    0.486148 0.160252 0.795411 0.238025
H21   H     H_    0.381625 0.365862 0.115894 0.121411
H22   H     H_    0.618375 0.634138 0.884106 0.121411

loop_
_geom_bond_atom_site_label_1
_geom_bond_atom_site_label_2
_ccdc_geom_bond_type
C16   N5    S    
Cu1   O1    S    
C6    C8    A    
C18   N3    S    
Cu2   O7    S    
C22   H16   S    
N10   H19   S    
C7    N1    A    
C11   C18   A    
Cu1   O8    S    
C5    C7    A    
C11   C16   A    
N8    H13   S    
Cu2   O3    S    
C3    C23   A    
C19   C20   A    
C12   C15   A    
C1    O1    A    
Cu1   O4    S    
C10   O8    A    
C1    C4    S    
C8    N2    A    
C2    O4    A    
C5    H21   S    
N6    H10   S    
C2    C3    S    
C1    O3    A    
N9    H17   S    
N3    H4    S    
N5    H7    S    
C12   C17   A    
C23   N9    S    
C4    C21   A    
N4    H6    S    
C15   N6    S    
Cu1   O5    S    
C4    C24   A    
Cu2   O6    S    
N6    H9    S    
C14   N8    S    
C10   O6    A    
Cu2   N2    S    
C22   C24   A    
C13   C15   A    
C21   C23   A    
Cu1   N1    S    
C24   N10   S    
C8    H2    S    
C9    C12   S    
C14   C16   A    
N9    H18   S    
C10   C11   S    
N7    H11   S    
C21   H15   S    
C6    H22   S    
C6    N1    A    
C7    H1    S    
C18   C20   A    
C2    O2    A    
C5    N2    A    
N4    H5    S    
N5    H8    S    
N3    H3    S    
C9    O5    A    
C17   N4    S    
C3    C22   A    
N10   H20   S    
C13   C20   A    
C17   C19   A    
Cu1   Cu2   S    
C13   N7    S    
C14   C19   A    
Cu2   O2    S    
N8    H14   S    
N7    H12   S    
C9    O7    A    
