data_mof_unit_15456.cif
_audit_creation_date              2012-10-26T20:43:31-0400
_audit_creation_method            fapswitch 2.2
_symmetry_space_group_name_H-M    P1
_symmetry_Int_Tables_number       1
_space_group_crystal_system       triclinic
_cell_length_a                    10.829993
_cell_length_b                    9.501794
_cell_length_c                    23.553525
_cell_angle_alpha                 89.977412
_cell_angle_beta                  90.453197
_cell_angle_gamma                 89.950757
_cell_volume                      2423.68356445

loop_
_atom_site_label
_atom_site_type_symbol
_atom_type_description
_atom_site_fract_x
_atom_site_fract_y
_atom_site_fract_z
_atom_type_partial_charge
C1    C     C_R   0.262011 0.500027 0.499918 0.550986
C2    C     C_R   0.558835 0.394591 0.705903 -0.027192
C3    C     C_R   0.443804 0.409693 0.234765 -0.049052
C4    C     C_R   0.554308 0.406698 0.765253 -0.048858
C5    C     C_R   0.501032 0.524906 0.209123 0.233039
C6    C     C_R   0.503184 0.525509 0.791156 0.228266
C7    C     C_R   0.063964 0.372075 0.499868 -0.138911
C8    C     C_R   0.936040 0.627866 0.500075 -0.136424
C9    C     C_R   0.936244 0.372034 0.499999 -0.138884
C10   C     C_R   0.063753 0.627906 0.499970 -0.136485
C11   C     C_R   0.871800 0.499933 0.500075 0.021590
C12   C     C_R   0.737989 0.499958 0.500070 0.551052
C13   C     C_R   0.128201 0.500017 0.499890 0.021526
C14   C     C_R   0.406097 0.074578 0.474765 0.005312
C15   C     C_R   0.593722 0.925476 0.525403 0.008047
C16   C     C_R   0.593921 0.074342 0.525222 0.005488
C17   C     C_R   0.406309 0.925710 0.474566 0.008176
C18   C     C_R   0.496745 0.500053 0.390870 0.547739
C19   C     C_R   0.503398 0.499987 0.609159 0.548352
C20   C     C_R   0.612659 0.534416 0.880976 0.391692
C21   C     C_R   0.395546 0.556500 0.119445 0.393010
C22   C     C_R   0.392743 0.547832 0.879826 0.389678
C23   C     C_R   0.555333 0.629153 0.242692 -0.067850
C24   C     C_R   0.613840 0.522568 0.120915 0.390427
C25   C     C_R   0.389471 0.560470 0.939866 0.037712
C26   C     C_R   0.619304 0.530235 0.060715 0.035546
C27   C     C_R   0.503222 0.547961 0.970202 -0.047009
C28   C     C_R   0.505881 0.546891 0.030348 -0.047145
C29   C     C_R   0.614717 0.535626 0.940396 0.013437
C30   C     C_R   0.394368 0.561154 0.060073 0.013656
C31   C     C_R   0.278344 0.582559 0.970990 0.004747
C32   C     C_R   0.731668 0.520299 0.029435 0.003857
C33   C     C_R   0.283306 0.580744 0.030402 -0.115826
C34   C     C_R   0.453167 0.632770 0.757551 -0.068767
C35   C     C_R   0.726698 0.524140 0.970028 -0.114790
C36   C     C_3   0.153136 0.614595 0.944185 -0.236726
C37   C     C_3   0.149101 0.762849 0.919008 -0.394975
C38   C     C_3   0.859596 0.507720 0.056018 -0.236626
C39   C     C_3   0.904876 0.649472 0.078697 -0.397531
C40   C     C_3   0.366383 0.274640 0.317790 -0.248655
C41   C     C_3   0.445129 0.140104 0.319098 -0.292598
C42   C     C_3   0.364971 0.008878 0.325082 -0.449169
C43   C     C_3   0.628410 0.269663 0.682191 -0.247664
C44   C     C_3   0.546450 0.137911 0.680179 -0.293199
C45   C     C_R   0.552971 0.618164 0.301540 -0.162201
C46   C     C_3   0.623767 0.004230 0.674629 -0.449881
C47   C     C_R   0.453174 0.620922 0.698718 -0.162583
C48   C     C_R   0.495761 0.502969 0.328191 0.012195
C49   C     C_R   0.505382 0.502842 0.671901 0.011584
C50   C     C_R   0.438811 0.397379 0.294104 -0.026991
Cu1   Cu    Cu3+1 0.500000 0.640660 0.500000 0.929366
Cu2   Cu    Cu3+1 0.500000 0.359340 0.500000 0.919738
H1    H     H_    0.198797 0.595924 0.053911 0.152095
H2    H     H_    0.887908 0.727856 0.500148 0.122149
H3    H     H_    0.888267 0.272039 0.500021 0.121530
H4    H     H_    0.111722 0.727906 0.499969 0.122133
H5    H     H_    0.330930 0.130781 0.454521 0.103158
H6    H     H_    0.668573 0.869419 0.545997 0.106627
H7    H     H_    0.669067 0.130329 0.545505 0.102717
H8    H     H_    0.331477 0.869843 0.453955 0.106677
H9    H     H_    0.221393 0.778080 0.886517 0.189107
H10   H     H_    0.057448 0.781408 0.898899 0.151909
H11   H     H_    0.163041 0.841957 0.953175 0.140828
H12   H     H_    0.812145 0.517154 0.946520 0.157303
H13   H     H_    0.125810 0.533592 0.912728 0.208113
H14   H     H_    0.079084 0.609944 0.976423 0.108613
H15   H     H_    0.838463 0.696099 0.108965 0.196653
H16   H     H_    0.994901 0.635204 0.100808 0.161904
H17   H     H_    0.917517 0.724260 0.042952 0.133297
H18   H     H_    0.863350 0.424372 0.088856 0.206774
H19   H     H_    0.927662 0.471405 0.024140 0.106687
H20   H     H_    0.301746 0.019208 0.361659 0.135495
H21   H     H_    0.309022 0.992819 0.285893 0.165464
H22   H     H_    0.424679 0.915132 0.331706 0.154348
H23   H     H_    0.599534 0.718863 0.223089 0.128421
H24   H     H_    0.498930 0.130137 0.279271 0.166050
H25   H     H_    0.511547 0.145220 0.355226 0.191458
H26   H     H_    0.329349 0.297562 0.360564 0.158746
H27   H     H_    0.283488 0.257549 0.290425 0.144670
H28   H     H_    0.689541 0.013479 0.638973 0.136790
H29   H     H_    0.676810 0.985157 0.714452 0.163458
H30   H     H_    0.562296 0.912797 0.666739 0.152520
H31   H     H_    0.491049 0.129451 0.719590 0.163873
H32   H     H_    0.481461 0.145462 0.643573 0.192331
H33   H     H_    0.667134 0.292037 0.639697 0.158800
H34   H     H_    0.413883 0.725552 0.777100 0.130924
H35   H     H_    0.710291 0.249172 0.709851 0.146236
H36   H     H_    0.596978 0.700207 0.326388 0.128922
H37   H     H_    0.411685 0.705007 0.674019 0.128549
H38   H     H_    0.401553 0.329951 0.208070 0.126703
H39   H     H_    0.593126 0.324214 0.791745 0.132766
H40   H     H_    0.112105 0.272089 0.499773 0.121455
N1    N     N_R   0.502924 0.537273 0.852074 -0.393411
N2    N     N_R   0.503614 0.535811 0.148337 -0.393604
N3    N     N_R   0.500000 0.852070 0.500000 -0.222182
N4    N     N_R   0.500000 0.147930 0.500000 -0.224785
O1    O     O_R   0.319640 0.618740 0.500000 -0.510531
O2    O     O_2   0.289228 0.572340 0.148339 -0.517020
O3    O     O_2   0.287646 0.541351 0.849039 -0.523077
O4    O     O_2   0.716161 0.499569 0.152384 -0.523923
O5    O     O_R   0.680360 0.381260 0.500000 -0.513839
O6    O     O_R   0.680360 0.618740 0.500000 -0.510834
O7    O     O_R   0.319640 0.381260 0.500000 -0.514226
O8    O     O_R   0.499960 0.618810 0.417880 -0.500731
O9    O     O_R   0.500040 0.381190 0.582120 -0.501574
O10   O     O_R   0.500040 0.618810 0.582120 -0.500899
O11   O     O_R   0.499960 0.381190 0.417880 -0.501121
O12   O     O_2   0.719808 0.529717 0.852099 -0.514721

loop_
_geom_bond_atom_site_label_1
_geom_bond_atom_site_label_2
_ccdc_geom_bond_type
Cu1   O1    S    
C46   H28   S    
C20   N1    A    
C38   H18   S    
Cu2   O7    S    
C25   C31   A    
C23   C45   A    
C27   C29   A    
C39   H16   S    
C44   H31   S    
C5    N2    S    
C47   C49   A    
Cu1   O6    S    
C26   C32   A    
C3    H38   S    
C36   C37   S    
C24   C26   A    
C8    C11   A    
C15   N3    A    
C38   C39   S    
C36   H14   S    
C21   N2    A    
C15   C16   A    
C41   C42   S    
C18   O11   A    
C46   H30   S    
Cu2   O11   S    
C22   C25   A    
C31   C33   A    
C35   H12   S    
C9    H3    S    
C32   C38   S    
C10   H4    S    
C1    O7    A    
C4    H39   S    
C48   C50   A    
C47   H37   S    
C14   C17   A    
C14   N4    A    
C37   H11   S    
C3    C50   A    
C44   C46   S    
C37   H10   S    
C20   C29   A    
C33   H1    S    
Cu2   O5    S    
C16   N4    A    
C42   H22   S    
Cu1   Cu2   S    
C43   H33   S    
C32   C35   A    
C45   H36   S    
C4    C6    A    
C8    H2    S    
C36   H13   S    
C44   H32   S    
Cu1   O8    S    
C6    C34   A    
C16   H7    S    
C2    C4    A    
C43   C44   S    
C12   O6    A    
C2    C49   A    
C24   N2    A    
C46   H29   S    
C19   C49   S    
C5    C23   A    
C2    C43   S    
C6    N1    S    
C42   H20   S    
C39   H17   S    
C40   H27   S    
C18   O8    A    
C9    C11   A    
C17   N3    A    
C19   O9    A    
C40   C41   S    
Cu2   O9    S    
C22   N1    A    
C40   H26   S    
C1    C13   S    
C1    O1    A    
C45   C48   A    
C7    C9    A    
C14   H5    S    
C38   H19   S    
C42   H21   S    
C22   O3    S    
C30   C33   A    
C24   O4    S    
C39   H15   S    
C23   H23   S    
C3    C5    A    
C10   C13   A    
C18   C48   S    
C37   H9    S    
C11   C12   S    
C25   C27   A    
C21   C30   A    
C29   C35   A    
C26   C28   A    
C34   H34   S    
C43   H35   S    
C28   C30   A    
C12   O5    A    
C41   H24   S    
C41   H25   S    
C21   O2    S    
Cu1   O10   S    
C40   C50   S    
C7    H40   S    
C15   H6    S    
Cu2   N4    S    
C17   H8    S    
C19   O10   A    
C7    C13   A    
C8    C10   A    
C27   C28   A    
C31   C36   S    
C34   C47   A    
Cu1   N3    S    
C20   O12   S    
