data_mof_unit_17621.cif
_audit_creation_date              2012-12-10T18:50:01-0500
_audit_creation_method            fapswitch 2.2
_symmetry_space_group_name_H-M    P1
_symmetry_Int_Tables_number       1
_space_group_crystal_system       triclinic
_cell_length_a                    10.807987
_cell_length_b                    9.856874
_cell_length_c                    10.731792
_cell_angle_alpha                 89.526946
_cell_angle_beta                  92.900559
_cell_angle_gamma                 90.322782
_cell_volume                      1141.77043355

loop_
_atom_site_label
_atom_site_type_symbol
_atom_type_description
_atom_site_fract_x
_atom_site_fract_y
_atom_site_fract_z
_atom_type_partial_charge
C1    C     C_R   0.260519 0.499815 0.503074 0.937616
C2    C     C_R   0.582287 0.927948 0.575056 -0.154577
C3    C     C_R   0.415018 0.928097 0.425980 0.231053
C4    C     C_R   0.417493 0.073290 0.423264 0.221962
C5    C     C_R   0.504603 0.499910 0.258093 0.934616
C6    C     C_R   0.740544 0.500327 0.499585 0.834117
C7    C     C_R   0.508198 0.499719 0.742635 0.952468
C8    C     C_3   0.538402 0.642844 0.072335 -0.520022
C9    C     C_3   0.384345 0.455085 0.065200 -0.550060
C10   C     C_3   0.533390 0.647794 0.930237 0.382380
C11   C     C_3   0.391096 0.439058 0.923172 0.371382
C12   C     C_3   0.631969 0.409871 0.935668 0.762578
C13   C     C_3   0.615424 0.391382 0.082699 0.321449
C14   C     C_3   0.513523 0.497077 0.122444 -0.108768
C15   C     C_3   0.517022 0.499100 0.880358 -0.213249
C16   C     C_3   0.312655 0.852367 0.230121 -0.769057
C17   C     C_3   0.209920 0.152087 0.355940 -0.784806
C18   C     C_3   0.467497 0.869782 0.887139 -0.259707
C19   C     C_3   0.184693 0.421305 0.850690 -0.311628
C20   C     C_3   0.800912 0.535990 0.175813 -0.790178
C21   C     C_3   0.632578 0.147940 0.177775 -0.820315
C22   C     C_3   0.781083 0.492814 0.794660 -0.360922
C23   C     C_R   0.067221 0.381467 0.537177 -0.296454
C24   C     C_3   0.737584 0.201987 0.899741 -0.269529
C25   C     C_3   0.880645 0.164247 0.434558 -0.790298
C26   C     C_3   0.901371 0.834372 0.595545 -0.808718
C27   C     C_R   0.066351 0.621203 0.488554 -0.241435
C28   C     C_R   0.939891 0.378097 0.528706 0.182266
C29   C     C_R   0.939726 0.624599 0.492588 0.178567
C30   C     C_R   0.874333 0.500879 0.505925 -0.133093
C31   C     C_R   0.129382 0.500415 0.509367 -0.086156
C32   C     C_R   0.581330 0.071463 0.576313 -0.158126
H1    H     H_    0.624086 0.690840 0.110632 0.162240
H2    H     H_    0.646951 0.873056 0.636274 0.151438
H3    H     H_    0.230910 0.878742 0.398909 0.203372
H4    H     H_    0.235249 0.913723 0.188752 0.214714
H5    H     H_    0.294781 0.746416 0.200555 0.249330
H6    H     H_    0.400287 0.891767 0.193612 0.215136
H7    H     H_    0.361131 0.133261 0.243525 0.221441
H8    H     H_    0.190591 0.118473 0.452043 0.223816
H9    H     H_    0.176284 0.256926 0.339296 0.259472
H10   H     H_    0.156808 0.086849 0.288740 0.208130
H11   H     H_    0.546754 0.889739 0.827804 0.142065
H12   H     H_    0.349398 0.359624 0.107132 0.157544
H13   H     H_    0.490740 0.905387 0.983388 0.127327
H14   H     H_    0.388068 0.930554 0.848913 0.190040
H15   H     H_    0.156755 0.385373 0.943742 0.156269
H16   H     H_    0.201687 0.333670 0.789350 0.147451
H17   H     H_    0.106544 0.479840 0.806940 0.198142
H18   H     H_    0.734160 0.361657 0.243610 0.248679
H19   H     H_    0.758624 0.596707 0.248934 0.219163
H20   H     H_    0.807516 0.597877 0.090435 0.286560
H21   H     H_    0.897384 0.513446 0.209972 0.234181
H22   H     H_    0.497374 0.214763 0.045298 0.220604
H23   H     H_    0.465592 0.709377 0.103396 0.229779
H24   H     H_    0.588732 0.047415 0.159629 0.211230
H25   H     H_    0.627490 0.168155 0.278695 0.270257
H26   H     H_    0.730786 0.141717 0.153583 0.232866
H27   H     H_    0.746404 0.590497 0.755508 0.151047
H28   H     H_    0.749886 0.408033 0.734016 0.209316
H29   H     H_    0.883487 0.496674 0.794107 0.186056
H30   H     H_    0.802332 0.242476 0.974308 0.205452
H31   H     H_    0.788680 0.193507 0.813306 0.145070
H32   H     H_    0.709818 0.097603 0.926308 0.161852
H33   H     H_    0.906422 0.199977 0.624259 0.198256
H34   H     H_    0.314779 0.533606 0.085923 0.226518
H35   H     H_    0.796132 0.099991 0.430090 0.245116
H36   H     H_    0.962899 0.097234 0.441225 0.225494
H37   H     H_    0.882497 0.224525 0.346778 0.244544
H38   H     H_    0.900326 0.806583 0.404736 0.216492
H39   H     H_    0.848404 0.929853 0.585734 0.231855
H40   H     H_    0.001044 0.861214 0.609944 0.232796
H41   H     H_    0.870266 0.778543 0.678718 0.241710
H42   H     H_    0.623341 0.688812 0.899588 0.087394
H43   H     H_    0.390111 0.328967 0.899631 0.081110
H44   H     H_    0.117070 0.289781 0.562288 0.168928
H45   H     H_    0.115047 0.714840 0.472359 0.163220
H46   H     H_    0.646641 0.125487 0.637423 0.181512
N1    N     N_R   0.499970 0.857200 0.499970 -0.095343
N2    N     N_R   0.499970 0.142800 0.499970 -0.108385
N3    N     N_2   0.315579 0.856493 0.364728 -0.260814
N4    N     N_2   0.341083 0.147478 0.335322 -0.251741
N5    N     N_2   0.734152 0.408537 0.157736 -0.281996
N6    N     N_2   0.566442 0.252388 0.105094 -0.294894
N7    N     N_2   0.879525 0.250710 0.543007 -0.281896
N8    N     N_2   0.880503 0.753190 0.484451 -0.268838
O1    O     O_R   0.316750 0.614620 0.499990 -0.600020
O2    O     O_3   0.289584 0.507085 0.861129 -0.528468
O3    O     O_3   0.747408 0.477792 0.919142 -0.651168
O4    O     O_3   0.629020 0.280314 0.875557 -0.648725
O5    O     O_R   0.316750 0.385380 0.499990 -0.610291
O6    O     O_R   0.499970 0.614670 0.314790 -0.616275
O7    O     O_R   0.499970 0.385330 0.314790 -0.604348
O8    O     O_R   0.683220 0.614710 0.500010 -0.605703
O9    O     O_R   0.683220 0.385290 0.500010 -0.607147
O10   O     O_R   0.500010 0.614660 0.685200 -0.583045
O11   O     O_R   0.500010 0.385340 0.685200 -0.602166
O12   O     O_3   0.432990 0.731192 0.885789 -0.512579
Zn1   Zn    Zn3+2 0.499980 0.653120 0.500000 0.980399
Zn2   Zn    Zn3+2 0.499980 0.346880 0.500000 0.965104

loop_
_geom_bond_atom_site_label_1
_geom_bond_atom_site_label_2
_ccdc_geom_bond_type
C1    O1    A    
C27   C29   A    
C26   H40   S    
C25   H35   S    
C23   H44   S    
C3    N1    A    
H22   N6    S    
H3    N3    S    
C7    O10   A    
C13   N6    S    
N1    Zn1   S    
C4    N2    A    
C20   H19   S    
C10   C15   S    
C22   H28   S    
C19   H15   S    
O10   Zn1   S    
C1    C31   S    
C26   H41   S    
C2    C32   A    
C17   N4    S    
C10   O12   S    
C9    H34   S    
C2    N1    A    
C17   H10   S    
C11   C15   S    
C6    O8    A    
C3    N3    S    
C24   H30   S    
C12   C15   S    
O5    Zn2   S    
C16   H5    S    
C2    H2    S    
C7    C15   S    
C1    O5    A    
C13   C14   S    
N2    Zn2   S    
C26   H39   S    
C25   H36   S    
C18   H14   S    
C8    H23   S    
H18   N5    S    
O1    Zn1   S    
C27   C31   A    
C12   O3    S    
C19   O2    S    
C22   H27   S    
O9    Zn2   S    
C17   H8    S    
C23   C31   A    
C9    C14   S    
C21   H25   S    
C29   C30   A    
C32   N2    A    
C19   H17   S    
C21   N6    S    
C11   O2    S    
C26   N8    S    
C25   N7    S    
C29   N8    S    
C23   C28   A    
C9    C11   S    
O7    Zn2   S    
C5    C14   S    
C8    C10   S    
C6    C30   S    
C24   H31   S    
C25   H37   S    
C3    C4    A    
H38   N8    S    
C18   H13   S    
O11   Zn2   S    
C12   O4    S    
C9    H12   S    
C8    C14   S    
C7    O11   A    
C19   H16   S    
H7    N4    S    
C20   H21   S    
C27   H45   S    
C24   O4    S    
C21   H24   S    
C5    O7    A    
H33   N7    S    
C13   N5    S    
C28   C30   A    
C21   H26   S    
C20   H20   S    
C11   H43   S    
C18   H11   S    
C16   H4    S    
C22   H29   S    
C10   H42   S    
O8    Zn1   S    
C16   N3    S    
C22   O3    S    
C8    H1    S    
C17   H9    S    
C5    O6    A    
C32   H46   S    
C4    N4    S    
C12   C13   S    
C24   H32   S    
C6    O9    A    
C20   N5    S    
C28   N7    S    
C18   O12   S    
O6    Zn1   S    
C16   H6    S    
