data_mof_unit_6289.cif
_audit_creation_date              2012-12-11T17:23:17-0500
_audit_creation_method            fapswitch 2.2
_symmetry_space_group_name_H-M    P1
_symmetry_Int_Tables_number       1
_space_group_crystal_system       triclinic
_cell_length_a                    22.432371
_cell_length_b                    7.093983
_cell_length_c                    19.359914
_cell_angle_alpha                 90.005347
_cell_angle_beta                  99.604794
_cell_angle_gamma                 90.001448
_cell_volume                      3037.65023021

loop_
_atom_site_label
_atom_site_type_symbol
_atom_type_description
_atom_site_fract_x
_atom_site_fract_y
_atom_site_fract_z
_atom_type_partial_charge
O1    O     O_R   0.443980 0.494320 0.557430 -0.525383
O2    O     O_R   0.556020 0.994320 0.442570 -0.525390
O3    O     O_R   0.441210 0.822520 0.414610 -0.537812
O4    O     O_R   0.558790 0.322520 0.585390 -0.537817
C1    C     C_R   0.426778 0.655474 0.388606 0.692886
C2    C     C_R   0.573223 0.155494 0.611394 0.692895
O5    O     O_R   0.436920 0.823940 0.555180 -0.535275
O6    O     O_R   0.563080 0.323940 0.444820 -0.535272
O7    O     O_R   0.551700 0.995760 0.584140 -0.536407
O8    O     O_R   0.448300 0.495760 0.415860 -0.536414
C3    C     C_R   0.421689 0.655329 0.574959 0.708575
C4    C     C_R   0.578310 0.155324 0.425040 0.708579
O9    O     O_3   0.537660 0.661290 0.509340 -0.369322
O10   O     O_3   0.462340 0.161290 0.490660 -0.369321
V1    V     V_3+5 0.493010 0.935560 0.498270 1.474409
V2    V     V_3+5 0.506990 0.435560 0.501730 1.474413
C5    C     C_R   0.754475 0.937853 0.209636 -0.215302
C6    C     C_R   0.245526 0.437860 0.790355 -0.215331
H1    H     H_    0.759364 0.811827 0.179421 0.158237
H2    H     H_    0.240642 0.311844 0.820570 0.158244
C7    C     C_R   0.792637 0.091402 0.203614 0.100341
C8    C     C_R   0.207358 0.591388 0.796378 0.100325
C9    C     C_R   0.786975 0.254575 0.242696 -0.109801
C10   C     C_R   0.213013 0.754548 0.757298 -0.109743
H3    H     H_    0.815962 0.374862 0.238690 0.130647
H4    H     H_    0.184022 0.874819 0.761304 0.130633
C11   C     C_R   0.743961 0.264162 0.287477 -0.146856
C12   C     C_R   0.256027 0.764144 0.712518 -0.146849
H5    H     H_    0.740623 0.392245 0.317098 0.147686
H6    H     H_    0.259361 0.892217 0.682898 0.147671
C13   C     C_R   0.705431 0.111339 0.294034 0.045251
C14   C     C_R   0.294565 0.611343 0.705960 0.045244
C15   C     C_R   0.710630 0.944678 0.254365 -0.002528
C16   C     C_R   0.289373 0.444694 0.745628 -0.002516
C17   C     C_1   0.837843 0.080602 0.157694 -0.031729
C18   C     C_1   0.162153 0.580583 0.842300 -0.031690
C19   C     C_1   0.660886 0.131209 0.340767 0.027275
C20   C     C_1   0.339111 0.631222 0.659229 0.027273
C21   C     C_1   0.623550 0.144869 0.379466 -0.121631
C22   C     C_1   0.376447 0.644884 0.620531 -0.121627
C23   C     C_1   0.875835 0.071584 0.119719 -0.173481
C24   C     C_1   0.124163 0.571566 0.880278 -0.173429
C25   C     C_R   0.633208 0.186173 0.804467 -0.129378
C26   C     C_R   0.366817 0.685580 0.195520 -0.129383
H7    H     H_    0.546167 0.210686 0.739882 0.124368
H8    H     H_    0.453862 0.710063 0.260105 0.124356
H9    H     H_    0.614403 0.213148 0.851535 0.160374
H10   H     H_    0.385634 0.712286 0.148444 0.160372
C27   C     C_R   0.615544 0.148969 0.678561 -0.039707
C28   C     C_R   0.384459 0.648878 0.321440 -0.039686
C29   C     C_R   0.909483 0.034882 0.760447 -0.203473
C30   C     C_R   0.090495 0.535418 0.239563 -0.203500
C31   C     C_R   0.872744 0.029275 0.694549 0.017302
C32   C     C_R   0.127225 0.530000 0.305467 0.017331
C33   C     C_R   0.810241 0.057379 0.689358 -0.190797
C34   C     C_R   0.189738 0.557871 0.310654 -0.190840
C35   C     C_R   0.783207 0.092035 0.749217 0.055903
C36   C     C_R   0.216788 0.592130 0.250786 0.055894
C37   C     C_R   0.821743 0.098961 0.815925 0.017479
C38   C     C_R   0.178261 0.598851 0.184071 0.017484
C39   C     C_R   0.719241 0.120316 0.744869 0.029447
C40   C     C_R   0.280761 0.620246 0.255132 0.029451
C41   C     C_R   0.695621 0.155073 0.807582 0.041980
C42   C     C_R   0.304396 0.654659 0.192409 0.041974
C43   C     C_R   0.734286 0.158240 0.872841 0.385421
C44   C     C_R   0.265737 0.657668 0.127146 0.385406
C45   C     C_R   0.796489 0.133745 0.876269 -0.275848
C46   C     C_R   0.203529 0.633296 0.123717 -0.275799
C47   C     C_R   0.677638 0.116754 0.680476 -0.181179
C48   C     C_R   0.322357 0.616860 0.319530 -0.181170
C49   C     C_R   0.593860 0.184231 0.740728 -0.184414
C50   C     C_R   0.406160 0.683779 0.259263 -0.184439
C51   C     C_R   0.885038 0.069614 0.821007 -0.077294
C52   C     C_R   0.114958 0.569712 0.178992 -0.077298
H11   H     H_    0.691756 0.092085 0.630753 0.097854
H12   H     H_    0.308229 0.592440 0.369260 0.097835
H13   H     H_    0.957740 0.011213 0.765005 0.145154
H14   H     H_    0.042229 0.511942 0.235008 0.145159
H15   H     H_    0.783748 0.051089 0.637740 0.151952
H16   H     H_    0.216223 0.551760 0.362279 0.151953
H17   H     H_    0.824981 0.143372 0.927122 0.121481
H18   H     H_    0.175045 0.642783 0.072856 0.121425
O11   O     O_R   0.051730 0.724670 0.084120 -0.532412
O12   O     O_R   0.948270 0.224670 0.915880 -0.532409
O13   O     O_R   0.063080 0.393540 0.944820 -0.537104
O14   O     O_R   0.936920 0.893540 0.055180 -0.537089
C53   C     C_R   0.078321 0.562148 0.925072 0.714441
C54   C     C_R   0.921678 0.062154 0.074928 0.714440
O15   O     O_R   0.058800 0.395030 0.085390 -0.536824
O16   O     O_R   0.941200 0.895030 0.914610 -0.536826
O17   O     O_R   0.943980 0.223310 0.057440 -0.532477
O18   O     O_R   0.056020 0.723310 0.942560 -0.532467
C55   C     C_R   0.072977 0.563450 0.111305 0.688531
C56   C     C_R   0.927021 0.063431 0.888695 0.688512
O19   O     O_3   0.962360 0.556290 0.990650 -0.369311
O20   O     O_3   0.037640 0.056290 0.009350 -0.369315
V3    V     V_3+5 0.006980 0.281990 0.001730 1.444068
V4    V     V_3+5 0.993020 0.781990 0.998270 1.444111
C57   C     C_2   0.671632 0.775631 0.257710 0.726389
O21   O     O_2   0.642180 0.756832 0.305006 -0.562535
O22   O     O_R   0.669102 0.635281 0.206505 -0.674691
H19   H     H_    0.641393 0.527208 0.214312 0.296209
C58   C     C_2   0.328378 0.275668 0.742284 0.726395
O23   O     O_2   0.357850 0.256900 0.695003 -0.562535
O24   O     O_R   0.330893 0.135305 0.793472 -0.674701
H20   H     H_    0.358610 0.027251 0.785668 0.296220
C59   C     C_2   0.899606 0.992654 0.630642 0.781430
O25   O     O_2   0.954081 0.967467 0.635192 -0.550014
O26   O     O_R   0.862696 0.986837 0.564861 -0.665420
H21   H     H_    0.886300 0.960814 0.525547 0.312752
C60   C     C_2   0.100344 0.493858 0.369385 0.781443
O27   O     O_2   0.045852 0.469141 0.364841 -0.550024
O28   O     O_R   0.137255 0.487964 0.435171 -0.665440
H22   H     H_    0.113635 0.462338 0.474494 0.312766
O29   O     O_3   0.711609 0.199903 0.933352 -0.554473
C61   C     C_3   0.710888 0.033751 0.973392 0.080710
H23   H     H_    0.757715 0.985691 0.994123 0.123156
H24   H     H_    0.685821 0.918589 0.941716 0.125298
C62   C     C_3   0.679085 0.073795 0.035331 -0.666818
H25   H     H_    0.632017 0.121364 0.016405 0.219195
H26   H     H_    0.677793 0.943728 0.066943 0.190294
H27   H     H_    0.703641 0.185421 0.068932 0.233200
O30   O     O_3   0.288426 0.699119 0.066624 -0.554455
C63   C     C_3   0.289147 0.532841 0.026642 0.080575
H28   H     H_    0.242329 0.484767 0.005923 0.123238
H29   H     H_    0.314198 0.417777 0.058354 0.125347
C64   C     C_3   0.320961 0.572650 0.964701 -0.667047
H30   H     H_    0.368026 0.620192 0.983616 0.219229
H31   H     H_    0.322242 0.442498 0.933121 0.190384
H32   H     H_    0.296427 0.684209 0.931076 0.233245

loop_
_geom_bond_atom_site_label_1
_geom_bond_atom_site_label_2
_ccdc_geom_bond_type
C36   C40   A    
C44   C46   A    
C41   C43   A    
O22   H19   S    
C11   H5    S    
C43   O29   S    
C31   C33   A    
C18   C24   T    
C60   O27   D    
O1    C3    A    
O2    C4    A    
C2    O7    A    
C64   H31   S    
O19   V4    S    
O18   V4    S    
O30   C63   S    
C60   O28   S    
C26   C42   A    
O5    C3    A    
O12   V3    S    
C10   H4    S    
C30   C52   A    
O14   C54   A    
C35   C37   A    
H7    C49   S    
C36   C38   A    
O29   C61   S    
O11   C55   A    
C61   H23   S    
C40   C48   A    
C38   C52   A    
C39   C41   A    
C28   C50   A    
C40   C42   A    
C37   C45   A    
C61   H24   S    
C43   C45   A    
O11   V4    S    
O20   V4    S    
C59   O25   D    
C13   C15   A    
C26   C50   A    
C9    C11   A    
C37   C51   A    
H8    C50   S    
O5    V1    S    
O6    V2    S    
C27   C47   A    
C53   O18   A    
C59   O26   S    
C52   C55   S    
C5    C15   A    
C51   C56   S    
C30   H14   S    
C30   C32   A    
O16   C56   A    
O14   V4    S    
C62   H26   S    
C32   C34   A    
O13   C53   A    
C25   C41   A    
C29   C51   A    
C12   C14   A    
O4    C2    A    
C11   C13   A    
C5    C7    A    
C13   C19   S    
O15   V3    S    
C15   C57   S    
C42   C44   A    
O4    V2    S    
C29   H13   S    
C33   H15   S    
C31   C59   S    
C57   O21   D    
C54   O17   A    
O6    C4    A    
O20   V3    S    
C58   O24   S    
O1    V2    S    
O12   C56   A    
O17   V3    S    
O2    V1    S    
C6    C16   A    
C63   C64   S    
C57   O22   S    
C45   H17   S    
C14   C20   S    
C7    C9    A    
C48   H12   S    
C8    C10   A    
C1    C28   S    
C64   H30   S    
O3    V1    S    
C63   H29   S    
O28   H22   S    
C62   H27   S    
C39   C47   A    
C23   C54   S    
C25   C49   A    
C6    C8    A    
C10   C12   A    
O3    C1    A    
C62   H25   S    
O19   V3    S    
C35   C39   A    
C7    C17   S    
C8    C18   S    
O24   H20   S    
C16   C58   S    
C34   H16   S    
C61   C62   S    
C46   H18   S    
C4    C21   S    
C33   C35   A    
C28   C48   A    
C64   H32   S    
C1    O8    A    
C19   C21   T    
O8    V2    S    
O26   H21   S    
C20   C22   T    
C12   H6    S    
C5    H1    S    
C34   C36   A    
C32   C60   S    
C47   H11   S    
C6    H2    S    
C9    H3    S    
C2    C27   S    
O15   C55   A    
C3    C22   S    
C17   C23   T    
O13   V3    S    
C44   O30   S    
C38   C46   A    
C27   C49   A    
O9    V2    S    
C58   O23   D    
O10   V1    S    
C24   C53   S    
C29   C31   A    
C25   H9    S    
O16   V4    S    
C26   H10   S    
O7    V1    S    
C14   C16   A    
C63   H28   S    
