data_mof_unit_54117.cif
_audit_creation_date              2012-10-26T18:29:02-0400
_audit_creation_method            fapswitch 2.2
_symmetry_space_group_name_H-M    P1
_symmetry_Int_Tables_number       1
_space_group_crystal_system       triclinic
_cell_length_a                    11.658749
_cell_length_b                    13.009166
_cell_length_c                    15.842591
_cell_angle_alpha                 92.383047
_cell_angle_beta                  74.142896
_cell_angle_gamma                 98.968473
_cell_volume                      2283.15732611

loop_
_atom_site_label
_atom_site_type_symbol
_atom_type_description
_atom_site_fract_x
_atom_site_fract_y
_atom_site_fract_z
_atom_type_partial_charge
C1    C     C_R   0.519522 0.700055 0.501897 0.554685
C2    C     C_R   0.415959 0.027335 0.422288 -0.142887
C3    C     C_R   0.576644 0.863695 0.570879 -0.200307
C4    C     C_R   0.414409 0.133071 0.436043 -0.204976
C5    C     C_R   0.476993 0.866000 0.454204 0.260061
C6    C     C_R   0.536037 0.134124 0.539593 0.257448
C7    C     C_R   0.474350 0.972843 0.468296 0.019883
C8    C     C_R   0.529532 0.025824 0.530591 0.017818
C9    C     C_R   0.934310 0.586239 0.590047 -0.175754
C10   C     C_R   0.066462 0.415549 0.408787 -0.185866
C11   C     C_R   0.817070 0.578945 0.580589 0.044877
C12   C     C_R   0.480188 0.299464 0.499512 0.580006
C13   C     C_R   0.183059 0.421403 0.419185 0.044232
C14   C     C_R   0.863810 0.465653 0.458974 0.021479
C15   C     C_R   0.136885 0.535866 0.540022 0.056791
C16   C     C_R   0.427189 0.496541 0.668199 0.553967
C17   C     C_R   0.573059 0.506325 0.331870 0.529981
C18   C     C_R   0.982733 0.470561 0.466000 0.003594
C19   C     C_R   0.018157 0.531472 0.532668 0.008527
C20   C     C_R   0.385089 0.501543 0.764393 0.000664
C21   C     C_R   0.616526 0.518069 0.236063 -0.012920
C22   C     C_R   0.226957 0.508835 0.899101 -0.132836
C23   C     C_R   0.357291 0.529781 0.087910 -0.143371
C24   C     C_R   0.777498 0.552965 0.102529 -0.137117
C25   C     C_R   0.263128 0.501080 0.807947 -0.136206
C26   C     C_R   0.739748 0.538430 0.193141 -0.142830
C27   C     C_R   0.470273 0.510811 0.812817 -0.131984
C28   C     C_R   0.531815 0.513255 0.187621 -0.149951
C29   C     C_R   0.436842 0.522777 0.904391 0.031427
C30   C     C_R   0.567304 0.531978 0.096858 0.023590
C31   C     C_R   0.312509 0.518788 0.947582 0.052631
C32   C     C_R   0.692461 0.549141 0.054096 0.050891
C33   C     C_R   0.523064 0.535641 0.954205 0.033887
C34   C     C_R   0.648855 0.554384 0.914125 -0.138397
C35   C     C_R   0.481947 0.531678 0.047365 0.028449
C36   C     C_3   0.716343 0.221328 0.558192 0.031787
C37   C     C_3   0.798190 0.163450 0.593824 -0.294700
C38   C     C_3   0.928187 0.218847 0.569573 -0.472826
C39   C     C_3   0.507462 0.782863 0.319991 0.024816
C40   C     C_3   0.536155 0.862956 0.246264 -0.287409
C41   C     C_3   0.616292 0.824403 0.161558 -0.473088
C42   C     C_R   0.274667 0.524525 0.038675 -0.133763
C43   C     C_R   0.731578 0.562132 0.963481 -0.135003
C44   C     C_R   0.475023 0.187048 0.493310 0.011203
C45   C     C_R   0.527176 0.811952 0.507130 0.007890
C46   C     C_R   0.575818 0.969314 0.583637 -0.144000
Cu1   Cu    Cu3+1 0.386820 0.492450 0.493500 0.947326
Cu2   Cu    Cu3+1 0.613180 0.507550 0.506500 0.924629
H1    H     H_    0.180054 0.523421 0.072360 0.102544
H2    H     H_    0.195834 0.494465 0.771727 0.123283
H3    H     H_    0.131946 0.506997 0.931794 0.099724
H4    H     H_    0.873309 0.567302 0.070236 0.099680
H5    H     H_    0.320715 0.535656 0.157870 0.103493
H6    H     H_    0.686735 0.566930 0.844620 0.096090
H7    H     H_    0.369052 0.173648 0.399435 0.127160
H8    H     H_    0.611875 0.821366 0.613283 0.126196
H9    H     H_    0.608625 0.005621 0.636871 0.159074
H10   H     H_    0.370603 0.988523 0.375920 0.163109
H11   H     H_    0.165834 0.583146 0.590446 0.115653
H12   H     H_    0.827080 0.576929 0.930186 0.101267
H13   H     H_    0.834903 0.418365 0.408540 0.107797
H14   H     H_    0.734417 0.304719 0.575409 0.190625
H15   H     H_    0.741749 0.216404 0.484967 0.110261
H16   H     H_    0.764436 0.157504 0.666463 0.179017
H17   H     H_    0.798293 0.084031 0.565492 0.152490
H18   H     H_    0.964676 0.223246 0.497139 0.150272
H19   H     H_    0.984708 0.174705 0.596243 0.156582
H20   H     H_    0.933158 0.298546 0.597691 0.160013
H21   H     H_    0.467182 0.707493 0.297059 0.172610
H22   H     H_    0.592899 0.769139 0.333491 0.112855
H23   H     H_    0.247064 0.378479 0.375052 0.120535
H24   H     H_    0.450879 0.878174 0.234001 0.171225
H25   H     H_    0.583148 0.937051 0.266286 0.156354
H26   H     H_    0.701399 0.806748 0.172407 0.154535
H27   H     H_    0.638842 0.885386 0.110191 0.149707
H28   H     H_    0.568401 0.753247 0.137956 0.163782
H29   H     H_    0.752755 0.621203 0.625162 0.120917
H30   H     H_    0.958921 0.633973 0.641896 0.085257
H31   H     H_    0.041815 0.367807 0.356957 0.081221
H32   H     H_    0.438151 0.492473 0.222031 0.120109
H33   H     H_    0.562336 0.505985 0.777679 0.122911
H34   H     H_    0.806766 0.542994 0.229436 0.127643
N1    N     N_R   0.216750 0.481110 0.483710 -0.226785
N2    N     N_R   0.783250 0.518890 0.516290 -0.236158
O1    O     O_R   0.419950 0.645670 0.495380 -0.463126
O2    O     O_3   0.420877 0.813695 0.394551 -0.568324
O3    O     O_R   0.580050 0.354330 0.504620 -0.495816
O4    O     O_R   0.611110 0.658410 0.506370 -0.515644
O5    O     O_R   0.388890 0.341590 0.493630 -0.508230
O6    O     O_R   0.350820 0.490050 0.621260 -0.509359
O7    O     O_R   0.649180 0.509950 0.378740 -0.507871
O8    O     O_R   0.541970 0.502800 0.632250 -0.510868
O9    O     O_R   0.458030 0.497200 0.367750 -0.518577
O10   O     O_3   0.592504 0.186172 0.599273 -0.569581

loop_
_geom_bond_atom_site_label_1
_geom_bond_atom_site_label_2
_ccdc_geom_bond_type
C24   H4    S    
C21   C26   A    
C16   O6    A    
C31   C42   A    
C27   C29   A    
C14   C18   A    
C2    C7    A    
C17   O7    A    
C14   N2    A    
C7    C8    A    
C15   C19   A    
C23   C42   A    
C30   C35   A    
Cu1   O1    S    
C36   C37   S    
C24   C26   A    
C20   C25   A    
C29   C33   A    
C40   H25   S    
C22   C25   A    
C18   C19   A    
C32   C43   A    
C25   H2    S    
C11   H29   S    
C41   H26   S    
C9    C19   A    
C38   H18   S    
C6    O10   S    
Cu2   O7    S    
C37   H17   S    
Cu2   O4    S    
Cu1   N1    S    
C36   H15   S    
C1    O4    A    
C39   H21   S    
C26   H34   S    
C6    C44   A    
Cu1   O5    S    
C36   H14   S    
C23   H5    S    
C1    O1    A    
C22   C31   A    
C12   O5    A    
C27   H33   S    
C39   C40   S    
C5    C7    A    
C15   N1    A    
C13   H23   S    
C14   H13   S    
C5    C45   A    
C3    C45   A    
C17   C21   S    
Cu2   N2    S    
C2    C4    A    
C24   C32   A    
C37   C38   S    
C41   H27   S    
C3    H8    S    
Cu1   Cu2   S    
C16   C20   S    
C33   C34   A    
Cu1   O9    S    
Cu2   O3    S    
C9    C11   A    
C43   H12   S    
C5    O2    S    
C40   C41   S    
C21   C28   A    
C38   H20   S    
C34   H6    S    
C23   C35   A    
C46   H9    S    
Cu1   O6    S    
C17   O9    A    
C37   H16   S    
C40   H24   S    
C12   O3    A    
C15   H11   S    
C34   C43   A    
C10   C13   A    
C6    C8    A    
C10   H31   S    
C2    H10   S    
C16   O8    A    
C20   C27   A    
C11   N2    A    
C4    C44   A    
C13   N1    A    
C3    C46   A    
C28   C30   A    
C4    H7    S    
C41   H28   S    
C30   C32   A    
C1    C45   S    
C10   C18   A    
C33   C35   A    
C39   H22   S    
C9    H30   S    
C28   H32   S    
C8    C46   A    
C42   H1    S    
C36   O10   S    
C38   H19   S    
C29   C31   A    
Cu2   O8    S    
C12   C44   S    
C39   O2    S    
C22   H3    S    
