data_mof_unit_48891.cif
_audit_creation_date              2012-12-11T16:26:25-0500
_audit_creation_method            fapswitch 2.2
_symmetry_space_group_name_H-M    P1
_symmetry_Int_Tables_number       1
_space_group_crystal_system       triclinic
_cell_length_a                    13.985413
_cell_length_b                    13.985113
_cell_length_c                    31.910306
_cell_angle_alpha                 90.001725
_cell_angle_beta                  90.250326
_cell_angle_gamma                 119.986518
_cell_volume                      5405.75423533

loop_
_atom_site_label
_atom_site_type_symbol
_atom_type_description
_atom_site_fract_x
_atom_site_fract_y
_atom_site_fract_z
_atom_type_partial_charge
C1    C     C_R   0.567720 0.444086 0.810453 0.567951
C2    C     C_R   0.443815 0.567413 0.189550 0.562363
C3    C     C_3   0.319857 0.062733 0.370650 0.008463
C4    C     C_3   0.215290 0.032475 0.395609 -0.266973
C5    C     C_3   0.216084 0.135016 0.412316 -0.496563
C6    C     C_3   0.741157 0.720433 0.139573 0.016238
C7    C     C_3   0.842980 0.709472 0.131010 -0.258906
C8    C     C_3   0.940888 0.819051 0.117131 -0.486557
C9    C     C_3   0.943336 0.256314 0.370668 0.011005
C10   C     C_3   0.977565 0.185787 0.396361 -0.268273
C11   C     C_3   0.877323 0.082867 0.413404 -0.496995
C12   C     C_3   0.344892 0.086523 0.144778 0.003142
C13   C     C_R   0.431777 0.874873 0.311116 0.552499
C14   C     C_3   0.419063 0.150548 0.182024 -0.264992
C15   C     C_3   0.438366 0.268043 0.183859 -0.468042
C16   C     C_3   0.747476 0.689688 0.370339 0.010216
C17   C     C_3   0.819715 0.798962 0.393288 -0.267636
C18   C     C_3   0.923583 0.804720 0.411275 -0.496271
C19   C     C_3   0.248785 0.973716 0.621816 0.013188
C20   C     C_3   0.249030 0.053651 0.588591 -0.277049
C21   C     C_3   0.165444 0.992013 0.553725 -0.495128
C22   C     C_3   0.090520 0.349498 0.855184 0.002221
C23   C     C_3   0.154444 0.425239 0.818537 -0.265739
C24   C     C_R   0.123337 0.556024 0.189505 0.560508
C25   C     C_3   0.272542 0.446218 0.817038 -0.463612
C26   C     C_3   0.698003 0.746019 0.643296 0.019490
C27   C     C_3   0.797286 0.727519 0.643252 -0.256923
C28   C     C_3   0.899889 0.828347 0.626264 -0.507508
C29   C     C_3   0.264360 0.989728 0.862770 0.016789
C30   C     C_3   0.156873 0.880991 0.870105 -0.257850
C31   C     C_3   0.066675 0.901225 0.887061 -0.498131
C32   C     C_3   0.991330 0.257734 0.626784 0.009685
C33   C     C_3   0.940627 0.156534 0.598061 -0.270061
C34   C     C_3   0.024099 0.121268 0.586802 -0.495283
C35   C     C_1   0.988109 0.518617 0.020256 -0.028396
C36   C     C_3   0.722706 0.742328 0.861710 0.016517
C37   C     C_3   0.710917 0.843696 0.870421 -0.257836
C38   C     C_3   0.819708 0.941583 0.885346 -0.486017
C39   C     C_1   0.524597 0.968368 0.484443 -0.028496
C40   C     C_1   0.482739 0.488353 0.018582 -0.027500
C41   C     C_1   0.023875 0.553153 0.483362 -0.028319
C42   C     C_1   0.514877 0.982276 0.017397 -0.027029
C43   C     C_1   0.454706 0.496019 0.485234 -0.027055
C44   C     C_1   0.529843 0.976253 0.521952 -0.028840
C45   C     C_R   0.875452 0.431536 0.689162 0.553643
C46   C     C_1   0.980473 0.514108 0.982804 -0.026986
C47   C     C_1   0.458275 0.488965 0.522575 -0.027348
C48   C     C_1   0.519929 0.990717 0.979963 -0.028354
C49   C     C_1   0.013426 0.548064 0.520736 -0.027969
C50   C     C_1   0.487704 0.483819 0.981222 -0.027447
C51   C     C_R   0.929538 0.469585 0.852230 0.024891
C52   C     C_R   0.538002 0.062869 0.649049 0.032143
C53   C     C_R   0.530844 0.458588 0.851914 0.031903
C54   C     C_R   0.931072 0.469348 0.648166 0.032016
C55   C     C_R   0.542402 0.069824 0.851572 0.031793
C56   C     C_R   0.556321 0.123632 0.810511 0.562748
C57   C     C_R   0.526133 0.458789 0.648942 0.033542
C58   C     C_R   0.468623 0.922777 0.353611 0.026674
C59   C     C_R   0.068342 0.541292 0.148552 0.030631
C60   C     C_R   0.456738 0.535915 0.353881 0.026370
C61   C     C_R   0.468747 0.928979 0.147805 0.024799
C62   C     C_R   0.076512 0.545234 0.353216 0.027986
C63   C     C_R   0.457623 0.530137 0.148039 0.032516
C64   C     C_R   0.922797 0.555376 0.872666 -0.183464
C65   C     C_R   0.628577 0.059688 0.631204 -0.165495
C66   C     C_R   0.466303 0.363590 0.876072 -0.192085
C67   C     C_R   0.567181 0.443928 0.689596 0.570562
C68   C     C_R   0.958503 0.574782 0.633217 -0.183874
C69   C     C_R   0.637836 0.096877 0.875296 -0.183999
C70   C     C_R   0.465765 0.364674 0.623631 -0.186649
C71   C     C_R   0.556156 0.915472 0.372609 -0.177006
C72   C     C_R   0.092887 0.636441 0.125313 -0.184037
C73   C     C_R   0.362894 0.451297 0.373978 -0.178958
C74   C     C_R   0.555360 0.923565 0.127587 -0.183111
C75   C     C_R   0.081545 0.639272 0.371852 -0.175663
C76   C     C_R   0.362462 0.466862 0.123502 -0.191295
C77   C     C_R   0.944386 0.573527 0.915422 -0.140241
C78   C     C_R   0.876474 0.432262 0.810660 0.546444
C79   C     C_R   0.624555 0.025099 0.590023 -0.133414
C80   C     C_R   0.449145 0.372551 0.918313 -0.142961
C81   C     C_R   0.990941 0.604148 0.591662 -0.138747
C82   C     C_R   0.629821 0.066359 0.917093 -0.142044
C83   C     C_R   0.438984 0.374794 0.582627 -0.144243
C84   C     C_R   0.576838 0.933470 0.415403 -0.138819
C85   C     C_R   0.061593 0.628204 0.083556 -0.142064
C86   C     C_R   0.362735 0.436463 0.417085 -0.137715
C87   C     C_R   0.573910 0.945792 0.084933 -0.140041
C88   C     C_R   0.061585 0.641332 0.414422 -0.138378
C89   C     C_R   0.555689 0.123251 0.689311 0.561181
C90   C     C_R   0.371281 0.450123 0.081180 -0.142912
C91   C     C_R   0.972741 0.506239 0.938198 -0.003016
C92   C     C_R   0.529265 0.990678 0.566354 -0.003548
C93   C     C_R   0.494367 0.476346 0.936852 -0.005467
C94   C     C_R   0.996246 0.528285 0.564763 -0.002260
C95   C     C_R   0.526508 0.006384 0.935608 -0.007258
C96   C     C_R   0.469493 0.478535 0.566571 -0.004950
C97   C     C_R   0.511543 0.960400 0.439844 -0.004289
C98   C     C_R   0.003293 0.524912 0.064623 -0.007189
C99   C     C_R   0.456263 0.505436 0.440655 -0.004009
C100  C     C_R   0.443633 0.568884 0.311089 0.557583
C101  C     C_R   0.506154 0.973398 0.061989 -0.002999
C102  C     C_R   0.034735 0.549192 0.438938 -0.004170
C103  C     C_R   0.475075 0.494466 0.062966 -0.005499
C104  C     C_R   0.988358 0.426797 0.917892 -0.103112
C105  C     C_R   0.435371 0.983269 0.584470 -0.114290
C106  C     C_R   0.551063 0.571922 0.912712 -0.109770
C107  C     C_R   0.975161 0.426012 0.579712 -0.100968
C108  C     C_R   0.430436 0.971343 0.911784 -0.105154
C109  C     C_R   0.522221 0.572415 0.592082 -0.101970
C110  C     C_R   0.429005 0.974869 0.421278 -0.105264
C111  C     C_R   0.431945 0.876165 0.189322 0.545781
C112  C     C_R   0.970347 0.428914 0.087984 -0.105210
C113  C     C_R   0.552241 0.585010 0.421074 -0.106186
C114  C     C_R   0.425515 0.987276 0.082091 -0.102667
C115  C     C_R   0.023106 0.453095 0.420709 -0.106067
C116  C     C_R   0.570656 0.549724 0.087482 -0.108854
C117  C     C_R   0.971091 0.410282 0.874512 0.263477
C118  C     C_R   0.437402 0.019953 0.626127 0.269224
C119  C     C_R   0.571974 0.564322 0.869981 0.263474
C120  C     C_R   0.945023 0.395963 0.621606 0.266311
C121  C     C_R   0.437219 0.004646 0.869662 0.265989
C122  C     C_R   0.125244 0.556856 0.311037 0.559922
C123  C     C_R   0.554665 0.564396 0.633348 0.270009
C124  C     C_R   0.408255 0.959350 0.377778 0.263122
C125  C     C_R   0.004516 0.435972 0.130068 0.265346
C126  C     C_R   0.555252 0.599308 0.377285 0.264198
C127  C     C_R   0.408534 0.969371 0.125379 0.263921
C128  C     C_R   0.040907 0.448520 0.377447 0.263138
C129  C     C_R   0.563209 0.570254 0.130272 0.263170
C130  C     C_3   0.993030 0.264436 0.135886 0.016111
C131  C     C_3   0.885002 0.156201 0.128187 -0.258761
C132  C     C_3   0.906382 0.067995 0.109774 -0.498408
Cr1   Cr    Cr6+3 0.504240 0.249200 0.750000 1.035196
Cr2   Cr    Cr6+3 0.744960 0.495760 0.750000 1.013204
Cr3   Cr    Cr6+3 0.750800 0.255040 0.750000 1.039572
Cr4   Cr    Cr6+3 0.249200 0.504240 0.250000 1.028883
Cr5   Cr    Cr6+3 0.495760 0.744960 0.250000 1.030212
Cr6   Cr    Cr6+3 0.255040 0.750800 0.250000 1.039172
H1    H     H_    0.893656 0.603896 0.856312 0.135224
H2    H     H_    0.604503 0.895254 0.144035 0.134592
H3    H     H_    0.247822 0.039732 0.839908 0.154754
H4    H     H_    0.291749 0.039300 0.892305 0.099004
H5    H     H_    0.128177 0.834807 0.840040 0.178988
H6    H     H_    0.171504 0.829237 0.892732 0.163107
H7    H     H_    0.091613 0.943509 0.917951 0.144125
H8    H     H_    0.989102 0.821201 0.890997 0.134893
H9    H     H_    0.050909 0.952905 0.864829 0.140887
H10   H     H_    0.013417 0.234519 0.657107 0.151851
H11   H     H_    0.070261 0.324406 0.613355 0.116950
H12   H     H_    0.869793 0.086960 0.614204 0.154694
H13   H     H_    0.107568 0.714280 0.354123 0.163631
H14   H     H_    0.909748 0.175022 0.568795 0.158953
H15   H     H_    0.096403 0.189320 0.570717 0.150414
H16   H     H_    0.984565 0.049034 0.565386 0.142567
H17   H     H_    0.052080 0.097538 0.615566 0.147062
H18   H     H_    0.788368 0.765021 0.837922 0.156476
H19   H     H_    0.751884 0.718486 0.890352 0.100787
H20   H     H_    0.684054 0.867389 0.841296 0.188861
H21   H     H_    0.646989 0.823844 0.894664 0.162298
H22   H     H_    0.849202 0.919806 0.914219 0.141429
H23   H     H_    0.807729 0.012604 0.892367 0.159863
H24   H     H_    0.280627 0.435938 0.136337 0.137458
H25   H     H_    0.883102 0.966812 0.860508 0.146479
H26   H     H_    0.087152 0.702765 0.065537 0.124310
H27   H     H_    0.640478 0.921518 0.429705 0.121302
H28   H     H_    0.297007 0.406153 0.062327 0.116973
H29   H     H_    0.071895 0.716353 0.428541 0.121875
H30   H     H_    0.637367 0.936033 0.069483 0.115564
H31   H     H_    0.288271 0.374175 0.432219 0.123267
H32   H     H_    0.697270 0.030165 0.575991 0.111848
H33   H     H_    0.705536 0.090386 0.648252 0.169879
H34   H     H_    0.933374 0.636112 0.931063 0.115513
H35   H     H_    0.398171 0.302077 0.562878 0.115277
H36   H     H_    0.704467 0.093561 0.935438 0.123990
H37   H     H_    0.007260 0.683758 0.580127 0.113748
H38   H     H_    0.404102 0.298303 0.936869 0.117073
H39   H     H_    0.921507 0.349199 0.073057 0.105447
H40   H     H_    0.378333 0.994430 0.441027 0.104023
H41   H     H_    0.650307 0.578836 0.073010 0.105238
H42   H     H_    0.004032 0.383152 0.440611 0.103350
H43   H     H_    0.372738 0.007894 0.063864 0.104483
H44   H     H_    0.434495 0.281628 0.863019 0.137433
H45   H     H_    0.623497 0.638012 0.440210 0.104212
H46   H     H_    0.363834 0.954630 0.564404 0.103960
H47   H     H_    0.009706 0.374490 0.936008 0.104441
H48   H     H_    0.538303 0.650683 0.579321 0.105341
H49   H     H_    0.350760 0.921279 0.926340 0.105651
H50   H     H_    0.977005 0.367218 0.558102 0.105278
H51   H     H_    0.580852 0.651595 0.927457 0.104838
H52   H     H_    0.044149 0.248416 0.158442 0.153383
H53   H     H_    0.042024 0.292952 0.106392 0.099842
H54   H     H_    0.840307 0.125750 0.158324 0.176735
H55   H     H_    0.950210 0.632717 0.653203 0.125164
H56   H     H_    0.831442 0.170512 0.106309 0.163832
H57   H     H_    0.946323 0.094353 0.078644 0.144192
H58   H     H_    0.826986 0.989528 0.105929 0.135184
H59   H     H_    0.960679 0.053232 0.131045 0.141330
H60   H     H_    0.317433 0.104059 0.341251 0.149482
H61   H     H_    0.394988 0.124856 0.387961 0.113693
H62   H     H_    0.142069 0.986043 0.374944 0.166024
H63   H     H_    0.207782 0.978472 0.422396 0.159094
H64   H     H_    0.287340 0.181402 0.433856 0.150668
H65   H     H_    0.138867 0.110104 0.429931 0.137808
H66   H     H_    0.719539 0.147594 0.862340 0.170039
H67   H     H_    0.221433 0.189388 0.385989 0.148174
H68   H     H_    0.763155 0.785393 0.163777 0.157291
H69   H     H_    0.717592 0.750133 0.111011 0.101721
H70   H     H_    0.866232 0.681632 0.159983 0.186632
H71   H     H_    0.823857 0.646579 0.106238 0.162489
H72   H     H_    0.919729 0.849164 0.088293 0.141680
H73   H     H_    0.012504 0.807913 0.110414 0.160111
H74   H     H_    0.964900 0.881587 0.142412 0.146338
H75   H     H_    0.903410 0.211053 0.341271 0.154092
H76   H     H_    0.879023 0.266575 0.387348 0.114191
H77   H     H_    0.444349 0.283185 0.634758 0.163206
H78   H     H_    0.025673 0.160545 0.376140 0.165627
H79   H     H_    0.031168 0.234527 0.423016 0.158823
H80   H     H_    0.830243 0.106415 0.434921 0.150713
H81   H     H_    0.904888 0.032549 0.431108 0.139741
H82   H     H_    0.822726 0.032498 0.387239 0.146503
H83   H     H_    0.264556 0.083784 0.148306 0.146198
H84   H     H_    0.381158 0.131487 0.115002 0.114270
H85   H     H_    0.379660 0.107057 0.211631 0.181833
H86   H     H_    0.500093 0.154430 0.179148 0.159664
H87   H     H_    0.479764 0.313639 0.154848 0.165940
H88   H     H_    0.604807 0.888973 0.354953 0.165027
H89   H     H_    0.492026 0.312318 0.211115 0.160197
H90   H     H_    0.358713 0.266703 0.187400 0.143628
H91   H     H_    0.791616 0.688619 0.341633 0.155066
H92   H     H_    0.736639 0.618254 0.389530 0.114150
H93   H     H_    0.843864 0.868271 0.370989 0.166726
H94   H     H_    0.772628 0.808975 0.419192 0.157638
H95   H     H_    0.901223 0.737755 0.434510 0.150375
H96   H     H_    0.974571 0.885308 0.427264 0.139513
H97   H     H_    0.972851 0.796593 0.385770 0.147339
H98   H     H_    0.180779 0.955322 0.644013 0.146508
H99   H     H_    0.142401 0.718265 0.138582 0.170869
H100  H     H_    0.228389 0.891624 0.608955 0.122513
H101  H     H_    0.229810 0.113356 0.603861 0.152512
H102  H     H_    0.331840 0.102724 0.574271 0.163762
H103  H     H_    0.188293 0.937534 0.536390 0.143643
H104  H     H_    0.164278 0.052197 0.531326 0.145401
H105  H     H_    0.081697 0.940967 0.566943 0.145930
H106  H     H_    0.089191 0.269924 0.851164 0.146533
H107  H     H_    0.134723 0.385298 0.885285 0.114580
H108  H     H_    0.111655 0.386418 0.788600 0.180711
H109  H     H_    0.157097 0.505615 0.821948 0.161010
H110  H     H_    0.286849 0.400651 0.356854 0.164432
H111  H     H_    0.317400 0.486990 0.846412 0.165383
H112  H     H_    0.316764 0.501053 0.790233 0.169600
H113  H     H_    0.272440 0.367275 0.812945 0.144043
H114  H     H_    0.718914 0.818350 0.663682 0.155413
H115  H     H_    0.684150 0.769932 0.611701 0.107381
H116  H     H_    0.814564 0.711776 0.675756 0.191788
H117  H     H_    0.778895 0.654780 0.623504 0.164138
H118  H     H_    0.885635 0.844154 0.593358 0.143734
H119  H     H_    0.970812 0.813624 0.627092 0.131796
H120  H     H_    0.920794 0.902208 0.645699 0.147015
O1    O     O_R   0.480350 0.140770 0.796330 -0.477723
O2    O     O_R   0.140770 0.480350 0.203670 -0.477616
O3    O     O_R   0.519650 0.660420 0.296330 -0.449535
O4    O     O_R   0.339580 0.859230 0.203670 -0.461751
O5    O     O_R   0.514930 0.348530 0.793250 -0.522718
O6    O     O_R   0.833600 0.485070 0.706750 -0.522705
O7    O     O_R   0.651470 0.166400 0.793250 -0.513417
O8    O     O_R   0.514930 0.348530 0.706750 -0.512589
O9    O     O_R   0.833600 0.485070 0.793250 -0.520264
O10   O     O_R   0.651470 0.166400 0.706750 -0.508667
O11   O     O_R   0.348530 0.514930 0.293250 -0.516332
O12   O     O_R   0.660420 0.519650 0.703670 -0.482692
O13   O     O_R   0.485070 0.833600 0.206750 -0.520440
O14   O     O_R   0.166400 0.651470 0.293250 -0.515509
O15   O     O_R   0.348530 0.514930 0.206750 -0.523393
O16   O     O_R   0.485070 0.833600 0.293250 -0.516630
O17   O     O_R   0.166400 0.651470 0.206750 -0.513506
O18   O     O_3   0.666667 0.333333 0.750000 -0.251718
O19   O     O_3   0.333333 0.666667 0.250000 -0.252410
O20   O     O_3   0.969621 0.342337 0.154596 -0.554491
O21   O     O_3   0.320853 0.965138 0.359449 -0.558010
O22   O     O_3   0.655762 0.619994 0.156187 -0.557586
O23   O     O_R   0.859230 0.339580 0.796330 -0.462597
O24   O     O_3   0.038631 0.356707 0.359510 -0.557233
O25   O     O_3   0.323080 0.976062 0.144421 -0.562230
O26   O     O_3   0.647488 0.683836 0.357620 -0.556446
O27   O     O_3   0.348675 0.023193 0.645025 -0.551586
O28   O     O_3   0.979499 0.325977 0.855162 -0.562055
O29   O     O_3   0.602842 0.654587 0.660463 -0.552515
O30   O     O_3   0.343568 0.967377 0.844708 -0.552495
O31   O     O_3   0.911385 0.289215 0.634934 -0.558982
O32   O     O_3   0.622950 0.656835 0.844339 -0.552899
O33   O     O_R   0.480350 0.140770 0.703670 -0.450356
O34   O     O_R   0.660420 0.519650 0.796330 -0.469932
O35   O     O_R   0.859230 0.339580 0.703670 -0.459635
O36   O     O_R   0.140770 0.480350 0.296330 -0.451170
O37   O     O_R   0.519650 0.660420 0.203670 -0.474852
O38   O     O_R   0.339580 0.859230 0.296330 -0.457534

loop_
_geom_bond_atom_site_label_1
_geom_bond_atom_site_label_2
_ccdc_geom_bond_type
C55   C56   S    
C55   C121  A    
C16   O26   S    
C65   C79   A    
C48   C95   S    
C54   C120  A    
C106  C119  A    
C86   H31   S    
Cr2   O18   S    
C64   C77   A    
C60   C73   A    
C108  H49   S    
C76   H24   S    
C19   C20   S    
Cr3   O23   S    
C128  O24   S    
C91   C104  A    
C109  H48   S    
C6    O22   S    
C19   H98   S    
C22   H106  S    
C72   C85   A    
Cr5   O13   S    
C18   H95   S    
Cr1   O8    S    
C111  O4    A    
C73   H110  S    
Cr6   O14   S    
C34   H17   S    
C123  O29   S    
C36   O32   S    
C104  H47   S    
C29   H4    S    
Cr5   O19   S    
C26   C27   S    
C37   C38   S    
C15   H87   S    
C68   C81   A    
C81   H37   S    
C79   H32   S    
C14   H86   S    
C36   C37   S    
Cr2   O34   S    
C104  C117  A    
C33   H12   S    
C24   C59   S    
Cr5   O3    S    
C30   C31   S    
C88   C102  A    
C58   C71   A    
C39   C97   S    
C54   C68   A    
C63   C76   A    
C110  H40   S    
C19   O27   S    
Cr5   O16   S    
C3    H60   S    
C30   H6    S    
C41   C102  S    
C129  O22   S    
C6    H69   S    
Cr3   O18   S    
C127  O25   S    
C52   C65   A    
C1    C53   S    
C118  O27   S    
C69   C82   A    
C22   O28   S    
C110  C124  A    
C1    O5    A    
C31   H8    S    
C25   H111  S    
C89   O33   A    
C38   H23   S    
C116  C129  A    
C82   H36   S    
C75   H13   S    
C16   C17   S    
C126  O26   S    
Cr4   O2    S    
C132  H57   S    
C3    H61   S    
C47   C96   S    
Cr4   O11   S    
C102  C115  A    
C111  O13   A    
C57   C70   A    
C35   C98   S    
C40   C103  S    
C9    C10   S    
C108  C121  A    
C11   H81   S    
C115  H42   S    
C44   C92   S    
C122  O14   A    
C59   C72   A    
C21   H105  S    
C31   H9    S    
C32   O31   S    
C23   C25   S    
C66   H44   S    
Cr1   O18   S    
C87   C101  A    
C90   H28   S    
C101  C114  A    
C67   O12   A    
C52   C89   S    
Cr6   O17   S    
C120  O31   S    
C57   C67   S    
C97   C110  A    
C8    H72   S    
C41   C49   T    
C7    H71   S    
C124  O21   S    
C33   C34   S    
Cr4   O15   S    
C100  O11   A    
C34   H16   S    
C17   H93   S    
C90   C103  A    
C94   C107  A    
C98   C112  A    
C32   H11   S    
Cr6   O4    S    
C14   H85   S    
C7    C8    S    
C132  H58   S    
C80   H38   S    
Cr6   O38   S    
C95   C108  A    
C19   H100  S    
C5    H64   S    
C67   O8    A    
C56   O7    A    
C18   H97   S    
C109  C123  A    
C45   O6    A    
C13   C58   S    
C9    H75   S    
C131  H54   S    
C74   H2    S    
C107  H50   S    
C33   H14   S    
C114  H43   S    
C84   C97   A    
C115  C128  A    
C64   H1    S    
C1    O34   A    
C15   H89   S    
C121  O30   S    
C31   H7    S    
C37   H20   S    
C130  O20   S    
C74   C87   A    
C78   O23   A    
C99   C113  A    
C29   C30   S    
C53   C66   A    
C93   C106  A    
C57   C123  A    
C52   C118  A    
C25   H112  S    
C75   C88   A    
Cr4   O36   S    
C3    O21   S    
C87   H30   S    
Cr5   O37   S    
C88   H29   S    
C29   H3    S    
C17   H94   S    
C17   C18   S    
C85   C98   A    
C61   C127  A    
C42   C48   T    
C18   H96   S    
C100  O3    A    
C86   C99   A    
C11   H80   S    
C12   H84   S    
C79   C92   A    
C6    C7    S    
C26   H114  S    
C13   O16   A    
C122  O36   A    
C36   H19   S    
C38   H25   S    
C65   H33   S    
C45   C54   S    
C29   O30   S    
C28   H120  S    
C83   H35   S    
Cr6   O19   S    
Cr3   O10   S    
C49   C94   S    
C71   H88   S    
C62   C75   A    
C131  H56   S    
C59   C125  A    
C84   H27   S    
C70   H77   S    
C3    C4    S    
C8    H73   S    
C42   C101  S    
Cr1   O33   S    
C107  C120  A    
C62   C122  S    
C114  C127  A    
C2    C63   S    
C36   H18   S    
C21   H103  S    
C71   C84   A    
C34   H15   S    
Cr2   O9    S    
Cr1   O5    S    
Cr4   O19   S    
C77   C91   A    
C13   O38   A    
Cr2   O6    S    
C82   C95   A    
C72   H99   S    
C45   O35   A    
C2    O37   A    
C22   C23   S    
C51   C64   A    
C28   H118  S    
C12   C14   S    
C4    C5    S    
C60   C100  S    
C26   H115  S    
C5    H65   S    
C22   H107  S    
C7    H70   S    
C53   C119  A    
C50   C93   S    
C39   C44   T    
C32   H10   S    
C9    H76   S    
Cr2   O12   S    
C20   H101  S    
C66   C80   A    
C96   C109  A    
C24   O2    A    
C58   C124  A    
C130  H53   S    
C15   H90   S    
C89   O10   A    
C32   C33   S    
C37   H21   S    
C23   H108  S    
C60   C126  A    
C103  C116  A    
Cr3   O35   S    
C51   C78   S    
C38   H22   S    
C26   O29   S    
C117  O28   S    
C20   H102  S    
C16   H91   S    
C43   C99   S    
C78   O9    A    
C62   C128  A    
C81   C94   A    
C25   H113  S    
C10   H78   S    
C4    H63   S    
C70   C83   A    
C27   H117  S    
C55   C69   A    
C77   H34   S    
C40   C50   T    
C83   C96   A    
C68   H55   S    
C16   H92   S    
C132  H59   S    
C51   C117  A    
C9    O24   S    
C130  C131  S    
C119  O32   S    
C63   C129  A    
C105  H46   S    
C23   H109  S    
C113  C126  A    
C105  C118  A    
C27   H116  S    
C12   H83   S    
C6    H68   S    
C10   C11   S    
C30   H5    S    
C12   O25   S    
C5    H67   S    
C56   O1    A    
C130  H52   S    
C92   C105  A    
C4    H62   S    
C20   C21   S    
C10   H79   S    
C69   H66   S    
C28   H119  S    
C113  H45   S    
C116  H41   S    
C27   C28   S    
Cr3   O7    S    
C85   H26   S    
C14   C15   S    
C21   H104  S    
C73   C86   A    
C106  H51   S    
C112  C125  A    
C80   C93   A    
C8    H74   S    
C35   C46   T    
C43   C47   T    
C11   H82   S    
C46   C91   S    
Cr1   O1    S    
C125  O20   S    
C131  C132  S    
C61   C74   A    
C76   C90   A    
C112  H39   S    
C2    O15   A    
C24   O17   A    
C61   C111  S    
