data_mof_unit_41729.cif
_audit_creation_date              2012-12-10T20:30:09-0500
_audit_creation_method            fapswitch 2.2
_symmetry_space_group_name_H-M    P1
_symmetry_Int_Tables_number       1
_space_group_crystal_system       triclinic
_cell_length_a                    9.892904
_cell_length_b                    10.710152
_cell_length_c                    12.96227
_cell_angle_alpha                 90.479747
_cell_angle_beta                  70.476088
_cell_angle_gamma                 89.27237
_cell_volume                      1294.22227847

loop_
_atom_site_label
_atom_site_type_symbol
_atom_type_description
_atom_site_fract_x
_atom_site_fract_y
_atom_site_fract_z
_atom_type_partial_charge
C1    C     C_R   0.499935 0.739794 0.498900 0.943833
C2    C     C_R   0.365381 0.483473 0.823426 -0.084848
C3    C     C_R   0.374820 0.939605 0.516600 0.093330
C4    C     C_R   0.420157 0.494576 0.704519 0.932164
C5    C     C_R   0.502653 0.871607 0.490571 -0.045435
C6    C     C_R   0.634320 0.933087 0.450279 -0.215047
C7    C     C_R   0.635566 0.062540 0.449667 -0.223329
C8    C     C_R   0.505058 0.128938 0.488448 -0.035780
C9    C     C_R   0.376179 0.066297 0.513971 0.082613
C10   C     C_3   0.235564 0.081079 0.605468 -0.282911
C11   C     C_3   0.234156 0.937708 0.609502 -0.273698
C12   C     C_R   0.415892 0.451594 0.990429 0.051625
C13   C     C_R   0.907430 0.596625 0.547344 0.208704
C14   C     C_R   0.953324 0.410345 0.445194 -0.134128
C15   C     C_R   0.097027 0.410206 0.445351 -0.137243
C16   C     C_R   0.501662 0.260447 0.497765 0.881183
C17   C     C_R   0.050094 0.596771 0.546752 0.191079
C18   C     C_3   0.007887 0.638209 0.663150 -0.588444
C19   C     C_3   0.853577 0.638966 0.665016 -0.128423
C20   C     C_R   0.579386 0.496932 0.295292 0.866201
C21   C     C_R   0.750154 0.327158 0.029431 -0.210912
C22   C     C_R   0.625132 0.467479 0.178955 -0.044178
C23   C     C_R   0.446674 0.423466 0.879175 0.019948
C24   C     C_R   0.234577 0.542018 0.882420 -0.301561
C25   C     C_R   0.184485 0.543971 0.996753 0.018905
C26   C     C_R   0.276536 0.499025 0.052363 0.084233
C27   C     C_2   0.243569 0.150261 0.705663 0.441232
C28   C     C_2   0.236456 0.882267 0.716191 0.518213
C29   C     C_2   0.037420 0.595873 0.052416 0.369096
C30   C     C_R   0.527048 0.431504 0.034230 0.060017
C31   C     C_R   0.644757 0.350405 0.980418 0.129745
C32   C     C_R   0.654460 0.296490 0.878746 0.062892
C33   C     C_R   0.558288 0.337314 0.826955 -0.171208
C34   C     C_R   0.528924 0.498419 0.126027 -0.219239
C35   C     C_R   0.738089 0.383110 0.129977 -0.188831
H1    H     H_    0.812611 0.356540 0.171347 0.163128
H2    H     H_    0.839371 0.263441 0.992268 0.160785
H3    H     H_    0.451721 0.572805 0.160600 0.163705
H4    H     H_    0.170655 0.585933 0.838942 0.151451
H5    H     H_    0.571839 0.302213 0.745490 0.183591
H6    H     H_    0.735509 0.881883 0.423521 0.171201
H7    H     H_    0.156082 0.212709 0.750481 0.039054
H8    H     H_    0.139120 0.886157 0.786850 0.028117
H9    H     H_    0.755298 0.574244 0.819184 0.193305
H10   H     H_    0.822640 0.460158 0.724848 0.192078
H11   H     H_    0.751481 0.170285 0.755261 0.199123
H12   H     H_    0.737311 0.109967 0.423074 0.155661
H13   H     H_    0.863436 0.256553 0.797768 0.150251
H14   H     H_    0.134893 0.430756 0.192097 0.215836
H15   H     H_    0.197972 0.575607 0.205552 0.230089
H16   H     H_    0.972701 0.625293 0.003582 0.068573
H17   H     H_    0.150836 0.120324 0.575736 0.116071
H18   H     H_    0.148442 0.899228 0.581611 0.109642
H19   H     H_    0.918973 0.336707 0.402435 0.138218
H20   H     H_    0.170647 0.336371 0.402742 0.156388
H21   H     H_    0.033658 0.566738 0.715757 0.207617
H22   H     H_    0.044801 0.732563 0.673235 0.174815
H23   H     H_    0.801402 0.733082 0.676943 0.180221
N1    N     N_R   0.856940 0.500860 0.500710 -0.097677
N2    N     N_R   0.142580 0.500820 0.500710 -0.101936
N3    N     N_3   0.767577 0.546042 0.739082 -0.386679
N4    N     N_3   0.767160 0.208011 0.824998 -0.459626
N5    N     N_3   0.225336 0.487164 0.169312 -0.452732
O1    O     O_R   0.385310 0.683210 0.499990 -0.617653
O2    O     O_2   0.344481 0.834218 0.725127 -0.563076
O3    O     O_2   0.985892 0.606972 0.151695 -0.595770
O4    O     O_R   0.614650 0.683240 0.500000 -0.613926
O5    O     O_R   0.328390 0.499940 0.653610 -0.619217
O6    O     O_R   0.557730 0.499980 0.653620 -0.586397
O7    O     O_R   0.385350 0.316760 0.500000 -0.634463
O8    O     O_R   0.614690 0.316790 0.500010 -0.639133
O9    O     O_R   0.442270 0.500020 0.346380 -0.611631
O10   O     O_R   0.671610 0.500060 0.346390 -0.591043
O11   O     O_2   0.345434 0.135974 0.737928 -0.564969
Zn1   Zn    Zn3+2 0.346870 0.499980 0.499990 0.943843
Zn2   Zn    Zn3+2 0.653130 0.500020 0.500010 0.973369

loop_
_geom_bond_atom_site_label_1
_geom_bond_atom_site_label_2
_ccdc_geom_bond_type
C10   C27   S    
H14   N5    S    
C15   N2    A    
C35   H1    S    
C10   H17   S    
C7    C8    A    
O5    Zn1   S    
C14   N1    A    
C21   C31   A    
C12   C23   A    
H11   N4    S    
C1    C5    S    
O8    Zn2   S    
C24   H4    S    
O6    Zn2   S    
C18   C19   S    
C8    C9    A    
C23   C33   A    
C6    H6    S    
C27   O11   D    
C9    C10   S    
C11   H18   S    
C18   H21   S    
C8    C16   S    
H15   N5    S    
C16   O8    A    
O9    Zn1   S    
C4    O6    A    
C19   H23   S    
C25   C29   S    
C22   C34   A    
C33   H5    S    
C30   C34   A    
C16   O7    A    
C24   C25   A    
C4    O5    A    
C13   C19   S    
C25   C26   A    
C12   C26   A    
C7    H12   S    
C2    C4    S    
C26   N5    S    
C3    C9    A    
C18   H22   S    
H13   N4    S    
C31   C32   A    
C30   C31   A    
C17   C18   S    
C21   C35   A    
C14   H19   S    
C20   C22   S    
C2    C24   A    
O10   Zn2   S    
C1    O1    A    
C2    C23   A    
C29   H16   S    
C28   H8    S    
C12   C30   A    
C34   H3    S    
C3    C5    A    
C6    C7    A    
C13   N1    A    
H9    N3    S    
N2    Zn1   S    
C13   C17   A    
C32   C33   A    
C22   C35   A    
C28   O2    D    
C32   N4    S    
C27   H7    S    
C5    C6    A    
C11   C28   S    
C19   N3    S    
H10   N3    S    
C1    O4    A    
O1    Zn1   S    
C20   O10   A    
C3    C11   S    
C10   C11   S    
C17   N2    A    
C29   O3    D    
C21   H2    S    
O7    Zn1   S    
C14   C15   A    
C20   O9    A    
O4    Zn2   S    
N1    Zn2   S    
C15   H20   S    
