data_mof_unit_6598.cif
_audit_creation_date              2012-12-11T17:01:20-0500
_audit_creation_method            fapswitch 2.2
_symmetry_space_group_name_H-M    P1
_symmetry_Int_Tables_number       1
_space_group_crystal_system       triclinic
_cell_length_a                    19.405288
_cell_length_b                    7.07643
_cell_length_c                    17.682126
_cell_angle_alpha                 89.999474
_cell_angle_beta                  108.858658
_cell_angle_gamma                 90.000416
_cell_volume                      2297.76851015

loop_
_atom_site_label
_atom_site_type_symbol
_atom_type_description
_atom_site_fract_x
_atom_site_fract_y
_atom_site_fract_z
_atom_type_partial_charge
O1    O     O_R   0.413720 0.494330 0.415730 -0.540327
O2    O     O_R   0.586280 0.994330 0.584270 -0.540325
O3    O     O_R   0.560210 0.819300 0.430070 -0.542435
O4    O     O_R   0.439790 0.319300 0.569930 -0.542424
C1    C     C_R   0.581275 0.655217 0.414589 0.722392
C2    C     C_R   0.418724 0.155215 0.585410 0.722372
O5    O     O_R   0.412670 0.823730 0.406310 -0.543214
O6    O     O_R   0.587330 0.323730 0.593690 -0.543217
O7    O     O_R   0.437690 0.998790 0.560340 -0.541085
O8    O     O_R   0.562310 0.498790 0.439660 -0.541099
C3    C     C_R   0.385321 0.655235 0.383539 0.701952
C4    C     C_R   0.614678 0.155235 0.616461 0.701934
O9    O     O_3   0.508380 0.662350 0.550560 -0.374021
O10   O     O_3   0.491620 0.162350 0.449440 -0.374029
V1    V     V_3+5 0.498450 0.935370 0.490620 1.433376
V2    V     V_3+5 0.501550 0.435370 0.509380 1.433374
C5    C     C_R   0.695361 0.010346 0.744341 0.073571
C6    C     C_R   0.304635 0.510332 0.255665 0.073567
C7    C     C_R   0.683139 0.148107 0.684798 -0.148256
C8    C     C_R   0.316860 0.648106 0.315203 -0.148259
C9    C     C_R   0.738252 0.283182 0.692415 -0.149331
C10   C     C_R   0.261748 0.783183 0.307585 -0.149321
H1    H     H_    0.729582 0.391575 0.646989 0.156040
H2    H     H_    0.270419 0.891578 0.353009 0.156027
C11   C     C_R   0.806879 0.269053 0.753389 -0.029872
C12   C     C_R   0.193121 0.769050 0.246612 -0.029880
C13   C     C_R   0.818696 0.123878 0.812335 -0.178215
C14   C     C_R   0.181303 0.623875 0.187667 -0.178239
C15   C     C_R   0.760715 0.000875 0.807255 0.144653
C16   C     C_R   0.239280 0.500860 0.192751 0.144711
C17   C     C_3   0.759423 0.789564 0.807400 -0.417452
C18   C     C_3   0.240564 0.289548 0.192623 -0.417428
C19   C     C_3   0.688597 0.800405 0.737597 -0.238176
C20   C     C_3   0.311391 0.300392 0.262424 -0.238208
H3    H     H_    0.753821 0.731722 0.863588 0.204834
H4    H     H_    0.246163 0.231670 0.136439 0.204873
H5    H     H_    0.805165 0.728337 0.790851 0.203041
H6    H     H_    0.194820 0.228351 0.209176 0.203035
H7    H     H_    0.692673 0.743983 0.680499 0.147502
H8    H     H_    0.307313 0.243998 0.319526 0.147497
C21   C     C_R   0.316367 0.004922 0.620192 -0.187050
C22   C     C_R   0.683567 0.504777 0.379736 -0.187068
C23   C     C_R   0.369274 0.147290 0.633665 -0.079294
C24   C     C_R   0.630726 0.647292 0.366335 -0.079307
C25   C     C_R   0.372514 0.287212 0.690901 -0.196648
C26   C     C_R   0.627550 0.787338 0.309167 -0.196671
C27   C     C_R   0.324220 0.283704 0.735209 0.102433
C28   C     C_R   0.675844 0.783813 0.264859 0.102446
C29   C     C_R   0.270407 0.141529 0.721089 0.076656
C30   C     C_R   0.729593 0.641492 0.278911 0.076758
C31   C     C_R   0.266130 0.004003 0.662289 0.061637
C32   C     C_R   0.733803 0.503832 0.337638 0.061657
C33   C     C_R   0.328397 0.422149 0.792573 -0.184943
C34   C     C_R   0.671725 0.922376 0.207559 -0.184935
C35   C     C_R   0.281448 0.417296 0.837565 -0.107941
C36   C     C_R   0.718662 0.917491 0.162555 -0.107791
C37   C     C_R   0.228376 0.273546 0.826425 0.092786
C38   C     C_R   0.771670 0.773604 0.173628 0.092862
C39   C     C_R   0.220927 0.137822 0.765345 0.021750
C40   C     C_R   0.779074 0.637768 0.234656 0.021851
C41   C     C_R   0.164397 0.000373 0.747746 -0.001540
C42   C     C_R   0.835555 0.500185 0.252200 -0.001616
C43   C     C_R   0.155596 0.878662 0.680183 -0.020787
C44   C     C_R   0.844271 0.378245 0.319678 -0.020833
C45   C     C_R   0.209221 0.874180 0.642705 -0.171740
C46   C     C_R   0.790639 0.373812 0.357145 -0.171847
C47   C     C_R   0.182748 0.265605 0.874636 0.008337
C48   C     C_R   0.817273 0.765628 0.125391 0.008328
C49   C     C_R   0.127619 0.125139 0.860628 -0.179866
C50   C     C_R   0.872382 0.625121 0.139374 -0.179846
C51   C     C_R   0.119621 0.990261 0.798118 -0.082954
C52   C     C_R   0.880362 0.490177 0.201858 -0.082848
H9    H     H_    0.312465 0.899173 0.574584 0.123267
H10   H     H_    0.687419 0.398917 0.425288 0.123291
H11   H     H_    0.413134 0.398083 0.701453 0.143258
H12   H     H_    0.586979 0.898318 0.298667 0.143262
H13   H     H_    0.368449 0.534315 0.803119 0.144478
H14   H     H_    0.631723 0.034652 0.197067 0.144440
H15   H     H_    0.287107 0.529046 0.880892 0.161000
H16   H     H_    0.713050 0.029327 0.119275 0.160949
H17   H     H_    0.203631 0.777455 0.593455 0.165177
H18   H     H_    0.796170 0.276932 0.406330 0.165101
O11   O     O_R   0.937800 0.775460 0.060470 -0.543582
O12   O     O_R   0.062200 0.275460 0.939530 -0.543584
O13   O     O_R   0.087350 0.441340 0.093710 -0.537574
O14   O     O_R   0.912650 0.941340 0.906290 -0.537593
C53   C     C_R   0.113464 0.610721 0.118110 0.668600
C54   C     C_R   0.886536 0.110722 0.881891 0.668574
O15   O     O_R   0.939820 0.446010 0.069950 -0.537897
O16   O     O_R   0.060180 0.946010 0.930050 -0.537975
O17   O     O_R   0.913690 0.271230 0.915700 -0.545591
O18   O     O_R   0.086310 0.771230 0.084300 -0.545594
C55   C     C_R   0.919388 0.614783 0.086235 0.671720
C56   C     C_R   0.080611 0.114786 0.913765 0.671689
O19   O     O_3   0.991670 0.603050 0.949510 -0.371928
O20   O     O_3   0.008330 0.103050 0.050490 -0.371859
V3    V     V_3+5 0.001550 0.329940 0.009370 1.445612
V4    V     V_3+5 0.998450 0.829940 0.990630 1.445502
C57   C     C_2   0.197303 0.395101 0.944282 0.348500
H19   H     H_    0.157785 0.501555 0.946408 0.110741
O21   O     O_2   0.254533 0.384280 0.999437 -0.542151
C58   C     C_2   0.802701 0.895119 0.055739 0.348477
H20   H     H_    0.842228 0.001507 0.053573 0.110864
O22   O     O_2   0.745441 0.884375 0.000624 -0.542123
C59   C     C_2   0.067790 0.831672 0.790370 0.368635
H21   H     H_    0.010831 0.860461 0.781952 0.057390
O23   O     O_2   0.089087 0.668232 0.796397 -0.536370
C60   C     C_2   0.932232 0.331686 0.209620 0.368721
H22   H     H_    0.989205 0.360582 0.218165 0.057311
O24   O     O_2   0.910957 0.168228 0.203438 -0.536392
C61   C     C_2   0.087628 0.772663 0.639452 0.498584
H23   H     H_    0.035270 0.827991 0.638595 0.041490
O25   O     O_2   0.089227 0.624416 0.604630 -0.514821
C62   C     C_2   0.912143 0.271829 0.360328 0.498492
H24   H     H_    0.964560 0.327080 0.361368 0.041644
O26   O     O_2   0.910393 0.123290 0.394866 -0.514841
C63   C     C_2   0.867373 0.392973 0.748768 0.358860
H25   H     H_    0.922757 0.369673 0.787328 0.076623
O27   O     O_2   0.856517 0.520307 0.699664 -0.538426
C64   C     C_2   0.132625 0.892962 0.251235 0.358882
H26   H     H_    0.077243 0.869674 0.212669 0.076671
O28   O     O_2   0.143478 0.020273 0.300349 -0.538434
C65   C     C_1   0.624958 0.730638 0.757046 0.397166
N1    N     N_1   0.574805 0.675537 0.772185 -0.348676
C66   C     C_1   0.375026 0.230588 0.242978 0.397187
N2    N     N_1   0.425177 0.175459 0.227842 -0.348660

loop_
_geom_bond_atom_site_label_1
_geom_bond_atom_site_label_2
_ccdc_geom_bond_type
C43   C45   A    
C13   C15   A    
C5    C15   A    
C33   H13   S    
C61   H23   S    
O1    C3    A    
O2    C4    A    
C2    O7    A    
C26   H12   S    
C62   H24   S    
O19   V4    S    
O18   V4    S    
C65   N1    T    
C27   C29   A    
O5    C3    A    
C59   O23   D    
C19   H7    S    
C5    C19   S    
C20   H8    S    
O12   V3    S    
C18   H4    S    
C7    C9    A    
C12   C64   S    
C28   C30   A    
C63   O27   D    
O14   C54   A    
C37   C39   A    
C38   C40   A    
O11   C55   A    
C60   H22   S    
C40   C42   A    
C31   C45   A    
C25   C27   A    
C49   C51   A    
C42   C44   A    
C52   C60   S    
C64   O28   D    
C29   C31   A    
O11   V4    S    
O20   V4    S    
C30   C32   A    
C17   C19   S    
C51   C59   S    
C6    C16   A    
C18   H6    S    
C6    C8    A    
C47   C57   S    
C29   C39   A    
C27   C33   A    
C41   C51   A    
O5    V1    S    
O6    V2    S    
C53   O18   A    
C43   C61   S    
C21   C23   A    
C58   H20   S    
C22   C24   A    
C37   C47   A    
C24   C26   A    
O16   C56   A    
C26   C28   A    
C33   C35   A    
C34   C36   A    
C3    C8    S    
C39   C41   A    
C44   C62   S    
O13   C53   A    
C50   C55   S    
O4    C2    A    
C49   C56   S    
C17   H5    S    
O15   V3    S    
C47   C49   A    
C18   C20   S    
O4    V2    S    
C28   C34   A    
C46   H18   S    
C35   H15   S    
C45   H17   S    
C57   H19   S    
C54   O17   A    
O6    C4    A    
O20   V3    S    
C14   C53   S    
C41   C43   A    
C42   C52   A    
C61   O25   D    
O1    V2    S    
O12   C56   A    
O17   V3    S    
C58   O22   D    
O2    V1    S    
C6    C20   S    
C22   H10   S    
C38   C48   A    
C57   O21   D    
C1    C24   S    
C8    C10   A    
C2    C23   S    
C9    H1    S    
C66   N2    T    
C10   H2    S    
O3    V1    S    
C64   H26   S    
C9    C11   A    
C48   C58   S    
O3    C1    A    
C11   C63   S    
C62   O26   D    
O19   V3    S    
C21   C31   A    
C11   C13   A    
C59   H21   S    
C12   C14   A    
C36   H16   S    
C25   H11   S    
C30   C40   A    
C35   C37   A    
O7    V1    S    
C1    O8    A    
C23   C25   A    
O8    V2    S    
C63   H25   S    
C16   C18   S    
C60   O24   D    
C20   C66   S    
C4    C7    S    
C14   C16   A    
C5    C7    A    
C36   C38   A    
C17   H3    S    
O15   C55   A    
C13   C54   S    
O14   V4    S    
O13   V3    S    
C21   H9    S    
C32   C46   A    
C15   C17   S    
C10   C12   A    
O9    V2    S    
C22   C32   A    
C19   C65   S    
C48   C50   A    
O10   V1    S    
C50   C52   A    
O16   V4    S    
C44   C46   A    
C34   H14   S    
