data_mof_unit_64170.cif
_audit_creation_date              2012-12-10T21:42:36-0500
_audit_creation_method            fapswitch 2.2
_symmetry_space_group_name_H-M    P1
_symmetry_Int_Tables_number       1
_space_group_crystal_system       triclinic
_cell_length_a                    10.733714
_cell_length_b                    16.161106
_cell_length_c                    16.870939
_cell_angle_alpha                 87.542845
_cell_angle_beta                  90.680113
_cell_angle_gamma                 93.207233
_cell_volume                      2919.17761328

loop_
_atom_site_label
_atom_site_type_symbol
_atom_type_description
_atom_site_fract_x
_atom_site_fract_y
_atom_site_fract_z
_atom_type_partial_charge
Br1   Br    Br    0.733264 0.905582 0.348288 -0.392391
Br2   Br    Br    0.266694 0.094406 0.651697 -0.392390
Br3   Br    Br    0.695238 0.102993 0.598083 -0.477547
Br4   Br    Br    0.304752 0.897007 0.401924 -0.477540
Br5   Br    Br    0.702294 0.697821 0.631294 -0.437516
Br6   Br    Br    0.297712 0.302180 0.368702 -0.437534
Br7   Br    Br    0.674125 0.729175 0.247092 -0.429718
Br8   Br    Br    0.325817 0.270800 0.752914 -0.429743
C1    C     C_R   0.497710 0.488716 0.652431 0.888198
C2    C     C_R   0.583516 0.469006 0.220174 0.084164
C3    C     C_R   0.419517 0.524950 0.862297 -0.161930
C4    C     C_R   0.580469 0.475114 0.137691 -0.161910
C5    C     C_R   0.498259 0.469562 0.902030 0.298437
C6    C     C_R   0.501640 0.530448 0.097974 0.298464
C7    C     C_R   0.567369 0.416596 0.859322 -0.127798
C8    C     C_R   0.432461 0.583356 0.140695 -0.127818
C9    C     C_R   0.565249 0.422297 0.777210 -0.184966
C10   C     C_R   0.434614 0.577653 0.222807 -0.184989
C11   C     C_R   0.436612 0.759917 0.461801 -0.107071
C12   C     C_R   0.502284 0.511284 0.347570 0.888215
C13   C     C_R   0.563385 0.240083 0.538201 -0.107085
C14   C     C_R   0.430965 0.846405 0.465514 0.213845
C15   C     C_R   0.569030 0.153595 0.534490 0.213838
C16   C     C_R   0.739984 0.500807 0.497581 0.875807
C17   C     C_R   0.260016 0.499193 0.502418 0.875769
C18   C     C_R   0.510670 0.890414 0.518880 0.203557
C19   C     C_R   0.489328 0.109585 0.481122 0.203560
C20   C     C_R   0.591457 0.844182 0.567608 -0.097684
C21   C     C_R   0.408544 0.155818 0.432392 -0.097678
C22   C     C_R   0.592408 0.757575 0.562172 0.403952
C23   C     C_R   0.127456 0.498167 0.503922 -0.079989
C24   C     C_R   0.407594 0.242425 0.437827 0.403947
C25   C     C_R   0.772308 0.728981 0.342509 0.292938
C26   C     C_R   0.227663 0.271007 0.657484 0.292934
C27   C     C_R   0.820226 0.654347 0.370995 -0.214396
C28   C     C_R   0.179759 0.345645 0.628997 -0.214399
C29   C     C_R   0.893888 0.652070 0.440341 0.085793
C30   C     C_R   0.106108 0.347928 0.559647 0.085800
C31   C     C_R   0.921647 0.725770 0.479665 -0.139515
C32   C     C_R   0.078351 0.274232 0.520316 -0.139516
C33   C     C_R   0.873248 0.800038 0.451686 -0.202616
C34   C     C_R   0.872543 0.501834 0.496072 -0.079990
C35   C     C_R   0.126739 0.199961 0.548294 -0.202616
C36   C     C_R   0.798093 0.802046 0.383481 0.279670
C37   C     C_R   0.201881 0.197946 0.616505 0.279680
C38   C     C_R   0.072939 0.570455 0.476063 -0.238744
C39   C     C_R   0.927060 0.429545 0.523930 -0.238732
C40   C     C_R   0.054599 0.426565 0.528695 0.040790
C41   C     C_R   0.945400 0.573435 0.471297 0.040793
C42   C     C_R   0.492598 0.480612 0.737659 -0.033564
C43   C     C_R   0.507358 0.519390 0.262343 -0.033425
C44   C     C_R   0.416491 0.531049 0.779814 0.084209
H1    H     H_    0.622594 0.382718 0.744503 0.174741
H2    H     H_    0.106081 0.143894 0.516627 0.197372
H3    H     H_    0.129952 0.624608 0.455626 0.173697
H4    H     H_    0.870048 0.375392 0.544368 0.173701
H5    H     H_    0.638281 0.436277 0.104567 0.154394
H6    H     H_    0.361755 0.563837 0.895409 0.154409
H7    H     H_    0.626380 0.373026 0.889853 0.164902
H8    H     H_    0.373376 0.626879 0.110175 0.164879
H9    H     H_    0.621164 0.917886 0.660859 0.258345
H10   H     H_    0.734786 0.925854 0.591095 0.248300
H11   H     H_    0.378842 0.082113 0.339141 0.258346
H12   H     H_    0.377219 0.617185 0.255525 0.174674
H13   H     H_    0.265215 0.074147 0.408901 0.248300
H14   H     H_    0.732372 0.447981 0.290816 0.168263
H15   H     H_    0.709466 0.377705 0.221082 0.200988
H16   H     H_    0.267709 0.552140 0.709117 0.168271
H17   H     H_    0.290576 0.622387 0.778885 0.200963
H18   H     H_    0.625215 0.273763 0.578127 0.185264
H19   H     H_    0.374779 0.726236 0.421876 0.185270
H20   H     H_    0.800029 0.598194 0.339305 0.139970
H21   H     H_    0.199955 0.401795 0.660693 0.139992
H22   H     H_    0.979226 0.725391 0.532833 0.182923
H23   H     H_    0.020778 0.274617 0.467145 0.182927
H24   H     H_    0.893907 0.856108 0.483347 0.197374
N1    N     N_2   0.512415 0.467000 0.984960 -0.179402
N2    N     N_3   0.336691 0.587608 0.738657 -0.406176
N3    N     N_2   0.487472 0.533010 0.015045 -0.179412
N4    N     N_R   0.515300 0.716920 0.509720 -0.155604
N5    N     N_R   0.484700 0.283080 0.490280 -0.155601
N6    N     N_2   0.506072 0.977790 0.530887 -0.078585
N7    N     N_2   0.493927 0.022210 0.469114 -0.078586
N8    N     N_3   0.673996 0.884488 0.623013 -0.373832
N9    N     N_3   0.326008 0.115512 0.376985 -0.373834
N10   N     N_3   0.663381 0.412487 0.261317 -0.406258
O1    O     O_R   0.494530 0.422540 0.612660 -0.624493
O2    O     O_R   0.505470 0.577460 0.387340 -0.624480
O3    O     O_R   0.504350 0.561840 0.618900 -0.556017
O4    O     O_R   0.495650 0.438160 0.381100 -0.556020
O5    O     O_R   0.678330 0.430350 0.496870 -0.636119
O6    O     O_R   0.321670 0.569650 0.503130 -0.636136
O7    O     O_R   0.688150 0.569660 0.503110 -0.581511
O8    O     O_R   0.311850 0.430340 0.496890 -0.581511
Zn1   Zn    Zn3+2 0.493440 0.406980 0.495830 1.000882
Zn2   Zn    Zn3+2 0.506560 0.593020 0.504170 1.000879

loop_
_geom_bond_atom_site_label_1
_geom_bond_atom_site_label_2
_ccdc_geom_bond_type
C17   C23   S    
Br6   C24   S    
O2    Zn2   S    
C20   N8    S    
C16   C34   S    
Br3   C15   S    
O4    Zn1   S    
C31   C33   A    
C24   N5    A    
C38   C41   A    
C27   C29   A    
C21   C24   A    
N5    Zn1   S    
C19   C21   A    
O6    Zn2   S    
Br4   C14   S    
C8    H8    S    
C31   H22   S    
C3    C44   A    
Br1   C36   S    
C11   H19   S    
C32   C35   A    
C17   O6    A    
C23   C38   A    
O1    Zn1   S    
C38   H3    S    
C42   C44   A    
C15   C19   A    
N4    Zn2   S    
C3    H6    S    
C30   C40   S    
C22   N4    A    
C17   O8    A    
Br2   C37   S    
H11   N9    S    
Br7   C25   S    
H17   N2    S    
O8    Zn1   S    
C44   N2    S    
C2    C43   A    
C10   C43   A    
N1    N3    D    
C13   C15   A    
H16   N2    S    
C5    N1    S    
C11   C14   A    
C1    O3    A    
C12   O4    A    
C29   C41   S    
C35   H2    S    
C39   C40   A    
C26   C37   A    
Br8   C26   S    
C6    N3    S    
C35   C37   A    
C2    C4    A    
C4    H5    S    
C8    C10   A    
C13   N5    A    
C27   H20   S    
O7    Zn2   S    
C23   C40   A    
C5    C7    A    
C33   C36   A    
C6    C8    A    
C16   O5    A    
C9    H1    S    
Br5   C22   S    
C7    C9    A    
H10   N8    S    
C2    N10   S    
H15   N10   S    
C25   C36   A    
C7    H7    S    
C1    C42   S    
C4    C6    A    
H9    N8    S    
C9    C42   A    
H14   N10   S    
H13   N9    S    
C12   C43   S    
C18   C20   A    
C32   H23   S    
C13   H18   S    
O3    Zn2   S    
C28   C30   A    
C21   N9    S    
C20   C22   A    
C29   C31   A    
C16   O7    A    
C1    O1    A    
C33   H24   S    
C30   C32   A    
C3    C5    A    
C10   H12   S    
C12   O2    A    
C19   N7    S    
C25   C27   A    
C26   C28   A    
C34   C39   A    
C11   N4    A    
C28   H21   S    
C34   C41   A    
O5    Zn1   S    
C18   N6    S    
N6    N7    D    
C14   C18   A    
C39   H4    S    
