data_mof_unit_48910.cif
_audit_creation_date              2012-12-11T16:19:47-0500
_audit_creation_method            fapswitch 2.2
_symmetry_space_group_name_H-M    P1
_symmetry_Int_Tables_number       1
_space_group_crystal_system       triclinic
_cell_length_a                    13.518101
_cell_length_b                    14.040843
_cell_length_c                    30.010807
_cell_angle_alpha                 97.711208
_cell_angle_beta                  89.94371
_cell_angle_gamma                 118.746182
_cell_volume                      4935.78966885

loop_
_atom_site_label
_atom_site_type_symbol
_atom_type_description
_atom_site_fract_x
_atom_site_fract_y
_atom_site_fract_z
_atom_type_partial_charge
C1    C     C_R   0.721051 0.098848 0.568778 0.571856
C2    C     C_R   0.337428 0.671600 0.675883 -0.062361
C3    C     C_R   0.246227 0.668229 0.652981 -0.039540
C4    C     C_R   0.252226 0.685559 0.608198 0.249948
C5    C     C_R   0.259428 0.671308 0.835350 -0.139016
C6    C     C_R   0.243205 0.645812 0.878988 -0.110445
C7    C     C_R   0.382396 0.583530 0.871684 -0.126609
C8    C     C_R   0.397903 0.607250 0.827639 0.223202
C9    C     C_R   0.333649 0.648974 0.809192 0.021649
C10   C     C_1   0.335036 0.659548 0.762432 0.075745
C11   C     C_1   0.335470 0.664847 0.722914 0.043760
C12   C     C_R   0.381624 0.784197 0.550015 0.570244
C13   C     C_R   0.301860 0.598359 0.896962 -0.019273
C14   C     C_3   0.274063 0.033225 0.714324 0.116359
C15   C     C_3   0.247386 0.201220 0.714069 -0.197224
C16   C     C_3   0.246561 0.219399 0.766170 -0.208892
C17   C     C_1   0.295578 0.198278 0.876892 0.039612
C18   C     C_3   0.324529 0.150569 0.699845 0.052443
C19   C     C_3   0.247951 0.038840 0.765874 0.107650
C20   C     C_3   0.305085 0.162884 0.787801 -0.009624
C21   C     C_3   0.431369 0.221015 0.777274 -0.242417
C22   C     C_3   0.442689 0.223792 0.726012 0.075609
C23   C     C_R   0.396822 0.119278 0.568923 0.564302
C24   C     C_1   0.300766 0.177995 0.837040 -0.005046
C25   C     C_1   0.341107 0.146842 0.651358 0.077292
C26   C     C_1   0.362488 0.138030 0.612663 0.090236
C27   C     C_3   0.704127 0.140811 0.726258 0.168133
C28   C     C_3   0.909992 0.275106 0.721536 -0.267321
C29   C     C_3   0.932170 0.285813 0.773463 0.074188
C30   C     C_1   0.894969 0.203744 0.879454 0.056057
C31   C     C_3   0.814177 0.157839 0.702831 -0.030383
C32   C     C_3   0.723897 0.154640 0.778388 -0.179387
C33   C     C_3   0.845249 0.178124 0.791314 -0.005813
C34   C     C_R   0.723637 0.096934 0.443495 0.586856
C35   C     C_3   0.864586 0.082811 0.767220 0.100785
C36   C     C_3   0.851807 0.075356 0.715192 -0.168574
C37   C     C_1   0.866519 0.191346 0.840289 0.029174
C38   C     C_1   0.795577 0.146437 0.653758 0.009565
C39   C     C_1   0.769040 0.130101 0.614137 0.074182
C40   C     C_3   0.396251 0.814474 0.268054 0.112844
C41   C     C_3   0.230529 0.628460 0.271214 -0.301083
C42   C     C_3   0.217325 0.608751 0.218761 0.061172
C43   C     C_1   0.309542 0.611714 0.110021 0.077026
C44   C     C_3   0.356753 0.704360 0.288423 -0.051072
C45   C     C_R   0.382560 0.785038 0.424823 0.544452
C46   C     C_3   0.393031 0.791934 0.215727 -0.184386
C47   C     C_3   0.337183 0.666619 0.199261 0.021481
C48   C     C_3   0.415473 0.623706 0.217639 0.423164
C49   C     C_3   0.420240 0.640467 0.270739 0.156402
C50   C     C_1   0.326412 0.642794 0.149871 0.087308
C51   C     C_1   0.362910 0.722092 0.337799 0.054675
C52   C     C_1   0.369256 0.743204 0.378112 0.083645
C53   C     C_R   0.362929 0.128389 0.398647 -0.023033
C54   C     C_R   0.411014 0.233270 0.385933 -0.068237
C55   C     C_R   0.402657 0.245179 0.340774 0.279181
C56   C     C_R   0.397062 0.113910 0.442549 0.535373
C57   C     C_R   0.348271 0.150323 0.307993 0.042957
C58   C     C_R   0.293191 0.046330 0.321139 -0.128122
C59   C     C_R   0.299465 0.035284 0.366232 -0.128862
C60   C     C_R   0.263244 0.086371 0.145984 -0.126131
C61   C     C_R   0.247107 0.100189 0.101770 0.239925
C62   C     C_R   0.425099 0.271642 0.112905 -0.126058
C63   C     C_R   0.445057 0.252620 0.155577 0.206317
C64   C     C_R   0.358246 0.164987 0.173607 -0.035798
C65   C     C_1   0.358163 0.159839 0.220960 0.081286
C66   C     C_1   0.354027 0.156280 0.260692 0.112625
C67   C     C_R   0.355943 0.716903 0.587256 -0.005054
C68   C     C_R   0.322815 0.200674 0.086859 -0.031511
C69   C     C_R   0.794712 0.140793 0.405323 -0.036418
C70   C     C_R   0.815167 0.071063 0.372268 0.242317
C71   C     C_R   0.836040 0.098065 0.329072 -0.081630
C72   C     C_R   0.837404 0.191742 0.317982 -0.039921
C73   C     C_R   0.837017 0.271458 0.351927 0.248385
C74   C     C_R   0.825636 0.248970 0.397056 0.186637
C75   C     C_R   0.862099 0.296162 0.165117 -0.047837
C76   C     C_R   0.887552 0.304021 0.119775 0.248864
C77   C     C_R   0.867230 0.120411 0.111287 -0.149030
C78   C     C_R   0.440210 0.701082 0.608439 0.201234
C79   C     C_R   0.842507 0.114042 0.156151 -0.122507
C80   C     C_R   0.844844 0.203656 0.183493 -0.004574
C81   C     C_1   0.840378 0.204038 0.231136 0.082867
C82   C     C_1   0.839699 0.201682 0.270989 0.132737
C83   C     C_R   0.896696 0.217436 0.093287 0.043944
C84   C     C_R   0.283726 0.232638 0.922563 0.551610
C85   C     C_R   0.266363 0.547119 0.937978 0.544094
C86   C     C_R   0.944981 0.222008 0.923697 0.541552
C87   C     C_R   0.293705 0.241058 0.048374 0.575155
C88   C     C_R   0.275329 0.559405 0.064553 0.549392
C89   C     C_R   0.430665 0.681144 0.653084 -0.034015
C90   C     C_R   0.953628 0.233011 0.050503 0.559042
Cr1   Cr    Cr6+3 0.583400 0.162540 0.509180 1.161411
Cr2   Cr    Cr6+3 0.584070 0.916690 0.495550 1.216875
Cr3   Cr    Cr6+3 0.332550 0.920810 0.495240 1.100775
Cr4   Cr    Cr6+3 0.086700 0.177000 0.983690 1.134299
Cr5   Cr    Cr6+3 0.336880 0.419130 0.994740 1.061273
Cr6   Cr    Cr6+3 0.084850 0.422220 0.995960 1.118950
H1    H     H_    0.180675 0.657991 0.897748 0.163391
H2    H     H_    0.277532 0.281030 0.701513 0.189675
H3    H     H_    0.159842 0.146355 0.698917 0.176522
H4    H     H_    0.158255 0.188034 0.775886 0.142404
H5    H     H_    0.291610 0.308973 0.779084 0.190130
H6    H     H_    0.500124 0.190610 0.714756 0.154406
H7    H     H_    0.473688 0.176648 0.788960 0.106872
H8    H     H_    0.343733 0.013160 0.712713 0.148795
H9    H     H_    0.289738 0.999961 0.782598 0.088920
H10   H     H_    0.209839 0.703393 0.821203 0.136356
H11   H     H_    0.476101 0.306100 0.796140 0.219214
H12   H     H_    0.710366 0.223075 0.794504 0.081694
H13   H     H_    0.687830 0.208172 0.719343 0.092202
H14   H     H_    0.989151 0.291977 0.704810 0.120819
H15   H     H_    0.886920 0.337284 0.713386 0.154352
H16   H     H_    0.018506 0.296703 0.779636 0.153784
H17   H     H_    0.794603 0.990395 0.698764 0.243136
H18   H     H_    0.935088 0.096037 0.701374 0.110459
H19   H     H_    0.170206 0.652513 0.669938 0.189979
H20   H     H_    0.661282 0.082981 0.792835 0.217481
H21   H     H_    0.953695 0.105295 0.776241 0.137775
H22   H     H_    0.346845 0.828233 0.200388 0.182490
H23   H     H_    0.331936 0.840784 0.276276 0.132180
H24   H     H_    0.196767 0.547848 0.283525 0.139345
H25   H     H_    0.178657 0.665255 0.285836 0.184807
H26   H     H_    0.177331 0.518841 0.207108 0.124583
H27   H     H_    0.373908 0.558343 0.281612 0.188139
H28   H     H_    0.479028 0.833519 0.203459 0.212526
H29   H     H_    0.200125 0.015158 0.159368 0.187065
H30   H     H_    0.249954 0.973168 0.296194 0.136217
H31   H     H_    0.262330 0.953246 0.375024 0.152774
H32   H     H_    0.459406 0.305342 0.410871 0.203722
H33   H     H_    0.488225 0.345110 0.100944 0.196952
H34   H     H_    0.860531 0.363812 0.186557 0.203958
H35   H     H_    0.827388 0.041280 0.170110 0.164152
H36   H     H_    0.870119 0.051543 0.091546 0.196520
H37   H     H_    0.845508 0.042315 0.302944 0.203392
H38   H     H_    0.427604 0.546407 0.885117 0.165342
H39   H     H_    0.497562 0.676050 0.670665 0.203449
O1    O     O_R   0.494060 0.188820 0.559230 -0.485577
O2    O     O_R   0.480140 0.824500 0.445020 -0.457133
O3    O     O_R   0.308480 0.808690 0.440220 -0.521888
O4    O     O_R   0.340970 0.020670 0.455610 -0.505953
O5    O     O_3   0.500010 0.000010 0.499990 -0.310839
O6    O     O_R   0.969690 0.151000 0.934080 -0.472918
O7    O     O_R   0.187530 0.180840 0.938210 -0.469074
O8    O     O_R   0.358160 0.327300 0.941250 -0.510767
O9    O     O_R   0.323950 0.507710 0.953980 -0.506679
O10   O     O_R   0.170530 0.527770 0.952070 -0.498181
O11   O     O_R   0.987720 0.318450 0.945940 -0.498980
O12   O     O_R   0.678470 0.153390 0.554100 -0.483106
O13   O     O_R   0.976400 0.159230 0.032040 -0.494162
O14   O     O_R   0.193740 0.188470 0.029020 -0.423632
O15   O     O_R   0.364860 0.335530 0.039220 -0.515872
O16   O     O_R   0.330170 0.515340 0.044800 -0.494020
O17   O     O_R   0.177230 0.536000 0.050040 -0.453701
O18   O     O_R   0.993930 0.326080 0.036750 -0.435036
O19   O     O_3   0.169480 0.339450 0.991460 -0.290025
O20   O     O_R   0.697870 0.003940 0.549410 -0.447914
O21   O     O_R   0.480980 0.827230 0.535590 -0.431989
O22   O     O_R   0.309390 0.811640 0.537920 -0.474598
O23   O     O_R   0.341810 0.023400 0.546180 -0.461993
O24   O     O_R   0.493150 0.185870 0.461540 -0.477745
O25   O     O_R   0.677630 0.150660 0.463530 -0.457799
O26   O     O_R   0.696960 0.000990 0.451710 -0.427136
S1    S     S_3+6 0.169215 0.922005 0.673509 0.065127
O27   O     O_2   0.229079 0.903541 0.633818 -0.250852
O28   O     O_2   0.111231 0.817029 0.693071 -0.198520
O29   O     O_3   0.072571 0.953378 0.655050 -0.498024
H40   H     H_    0.021699 0.889327 0.632543 0.392847
O30   O     O_3   0.489826 0.332371 0.717024 -0.622058
H41   H     H_    0.571447 0.369532 0.727137 0.354289
O31   O     O_3   0.933267 0.380306 0.796927 -0.680339
H42   H     H_    0.863933 0.381314 0.786978 0.337969
S2    S     S_3+6 0.780780 0.950006 0.785385 0.088023
O32   O     O_2   0.803210 0.866256 0.757447 -0.118851
O33   O     O_2   0.815514 0.957310 0.833848 -0.257699
O34   O     O_3   0.640925 0.905177 0.779718 -0.457195
H43   H     H_    0.614105 0.895216 0.810350 0.356772
S3    S     S_3+6 0.576469 0.014920 0.704037 -0.021701
O35   O     O_2   0.522984 0.035771 0.665270 -0.322863
O36   O     O_2   0.600488 0.922970 0.687469 -0.238751
O37   O     O_3   0.484807 0.975661 0.744440 -0.579424
H44   H     H_    0.424295 0.901017 0.731842 0.371937
S4    S     S_3+6 0.116524 0.647382 0.199318 0.001269
O38   O     O_2   0.107330 0.634180 0.148749 -0.207265
O39   O     O_2   0.002481 0.572724 0.214610 -0.282027
O40   O     O_3   0.152826 0.778212 0.220265 -0.530016
H45   H     H_    0.114949 0.774417 0.248747 0.352578
O41   O     O_3   0.530142 0.686230 0.291369 -0.617807
H46   H     H_    0.576043 0.759849 0.283048 0.419914
O42   O     O_3   0.156225 0.673701 0.586541 -0.603925
H47   H     H_    0.155075 0.645966 0.554275 0.340982
O43   O     O_3   0.524706 0.684009 0.202911 -0.638607
H48   H     H_    0.567882 0.645669 0.208540 0.409343
S5    S     S_3+6 0.527808 0.934590 0.290788 -0.022045
O44   O     O_2   0.626136 0.936595 0.266726 -0.279245
O45   O     O_2   0.520768 0.034997 0.283309 -0.278256
O46   O     O_3   0.552038 0.941359 0.346324 -0.501840
H49   H     H_    0.512016 0.978841 0.361307 0.329434
O47   O     O_3   0.374283 0.511636 0.199751 -0.693227
H50   H     H_    0.304271 0.465626 0.213993 0.297471
S6    S     S_3+6 0.134373 0.988756 0.066875 0.044487
O48   O     O_2   0.104885 0.882884 0.083844 -0.226757
O49   O     O_2   0.032628 0.005386 0.067838 -0.284849
O50   O     O_3   0.172182 0.981009 0.013640 -0.510018
H51   H     H_    0.102062 0.924521 0.995683 0.367213
S7    S     S_3+6 0.556115 0.700450 0.581036 0.075073
O51   O     O_2   0.524160 0.656869 0.531671 -0.218109
O52   O     O_2   0.653999 0.815384 0.586560 -0.239681
O53   O     O_3   0.595750 0.619769 0.603908 -0.474595
H52   H     H_    0.654132 0.669064 0.628404 0.372079
S8    S     S_3+6 0.578029 0.341408 0.185324 0.070806
O54   O     O_2   0.604157 0.283696 0.218372 -0.200152
O55   O     O_2   0.668198 0.376916 0.152371 -0.258704
O56   O     O_3   0.578121 0.453810 0.212813 -0.424186
H53   H     H_    0.500083 0.427576 0.221967 0.387719
S9    S     S_3+6 0.464457 0.378707 0.326273 0.054849
O57   O     O_2   0.574654 0.404174 0.306152 -0.157843
O58   O     O_2   0.385809 0.383458 0.292400 -0.345650
O59   O     O_3   0.488466 0.471948 0.372235 -0.487737
H54   H     H_    0.517831 0.542967 0.360768 0.406302
O60   O     O_3   0.908310 0.396740 0.101647 -0.621459
H55   H     H_    0.896610 0.447696 0.124467 0.387555
S10   S     S_3+6 0.850558 0.396328 0.337310 0.109506
O61   O     O_2   0.795153 0.443492 0.369862 -0.151048
O62   O     O_2   0.974255 0.477769 0.337872 -0.267589
O63   O     O_3   0.790122 0.375476 0.285465 -0.460381
H56   H     H_    0.813662 0.449940 0.278277 0.407925
S11   S     S_3+6 0.864570 0.356438 0.443760 0.090961
O64   O     O_2   0.765825 0.375514 0.453451 -0.208954
O65   O     O_2   0.898326 0.325016 0.484818 -0.290375
O66   O     O_3   0.975073 0.473472 0.432649 -0.447164
H57   H     H_    0.988071 0.528752 0.459436 0.372950
S12   S     S_3+6 0.817844 0.950583 0.382411 0.084287
O67   O     O_2   0.874919 0.969993 0.428243 -0.245620
O68   O     O_2   0.698928 0.856893 0.379914 -0.183006
O69   O     O_3   0.889732 0.917200 0.343284 -0.521552
H58   H     H_    0.884890 0.848388 0.350561 0.388713
S13   S     S_3+6 0.491169 0.576226 0.795239 0.021698
O70   O     O_2   0.427078 0.497819 0.753364 -0.252163
O71   O     O_2   0.583563 0.679565 0.781463 -0.186014
O72   O     O_3   0.548918 0.518896 0.824583 -0.539828
H59   H     H_    0.608512 0.580853 0.845534 0.361059
S14   S     S_3+6 0.099542 0.963583 0.777312 0.079425
O73   O     O_2   0.077311 0.008710 0.822177 -0.272933
O74   O     O_2   0.026822 0.970571 0.741633 -0.188641
O75   O     O_3   0.061486 0.830953 0.778313 -0.410015
H60   H     H_    0.111133 0.832342 0.802935 0.322844

loop_
_geom_bond_atom_site_label_1
_geom_bond_atom_site_label_2
_ccdc_geom_bond_type
Cr2   O26   S    
C44   C49   S    
C15   C18   S    
S2    O32   D    
Cr5   O8    S    
O29   H40   S    
C89   H39   S    
C88   O16   A    
C35   S2    S    
C41   C42   S    
C14   C18   S    
C29   H16   S    
C35   C36   S    
C57   C66   S    
C34   O26   A    
C36   H18   S    
O63   H56   S    
C61   S6    S    
C55   S9    S    
Cr1   O12   S    
C81   C82   T    
C53   C59   A    
C7    C8    A    
S4    O38   D    
O40   H45   S    
Cr4   O14   S    
C40   C46   S    
Cr6   O10   S    
S2    O33   D    
C17   C84   S    
C28   C29   S    
O43   H48   S    
C23   O1    A    
C43   C88   S    
C60   H29   S    
C78   S7    S    
C78   C89   A    
C56   O24   A    
C69   C70   A    
C5    C6    A    
C67   C78   A    
S9    O58   D    
S4    O40   S    
C36   H17   S    
C76   O60   S    
C59   H31   S    
C15   C16   S    
Cr6   O17   S    
C23   O23   A    
C29   C33   S    
S8    O56   S    
O75   H60   S    
C46   H22   S    
S14   O73   D    
O31   H42   S    
C23   C26   S    
C41   H25   S    
C1    O20   A    
S10   O61   D    
O34   H43   S    
C90   O13   A    
Cr3   O3    S    
S8    O55   D    
C70   S12   S    
S3    O37   S    
Cr6   O19   S    
Cr1   O1    S    
O72   H59   S    
C8    C9    A    
C87   O15   A    
S6    O50   S    
C70   C71   A    
C12   O22   A    
C30   C86   S    
C75   C80   A    
C48   O43   S    
C75   H34   S    
C16   C20   S    
C72   C73   A    
C7    C13   A    
S3    O36   D    
Cr5   O9    S    
C42   S4    S    
C21   C22   S    
C88   O17   A    
C62   H33   S    
C46   H28   S    
O47   H50   S    
C18   C25   S    
C63   S8    S    
Cr2   O2    S    
C86   O11   A    
C76   C83   A    
C12   C67   S    
O66   H57   S    
C47   C50   S    
S1    O28   D    
C5    H10   S    
S4    O39   D    
C28   H15   S    
Cr4   O13   S    
C38   C39   T    
S2    O34   S    
C17   C24   T    
O50   H51   S    
C49   O41   S    
C27   C31   S    
O53   H52   S    
Cr4   O7    S    
S5    O46   S    
C20   C24   S    
C7    H38   S    
S12   O68   D    
S13   O70   D    
C10   C11   T    
O30   H41   S    
C56   O4    A    
C19   S14   S    
S9    O57   D    
C16   H4    S    
O46   H49   S    
C45   C52   S    
C28   H14   S    
C25   C26   T    
C53   C54   A    
C54   H32   S    
C33   C37   S    
C79   C80   A    
C30   C37   T    
O42   H47   S    
S14   O74   D    
C77   H36   S    
S5    O45   D    
C14   S1    S    
C2    C89   A    
C75   C76   A    
C6    H1    S    
C5    C9    A    
C62   C63   A    
Cr3   O4    S    
S1    O29   S    
C14   H8    S    
C47   C48   S    
C40   S5    S    
S7    O53   S    
C84   O7    A    
Cr4   O19   S    
C79   H35   S    
C34   O25   A    
C45   O2    A    
S8    O54   D    
C77   C79   A    
C69   C74   A    
Cr2   O21   S    
Cr5   O15   S    
C46   C47   S    
C20   C21   S    
C90   O18   A    
Cr3   O22   S    
Cr1   O5    S    
C34   C69   S    
Cr1   O25   S    
C21   H11   S    
C22   O30   S    
C8    S13   S    
C44   C51   S    
S3    O35   D    
O59   H54   S    
S7    O52   D    
C58   H30   S    
S11   O65   D    
C55   C57   A    
C32   H12   S    
C41   C44   S    
C1    O12   A    
Cr5   O16   S    
O69   H58   S    
C12   O21   A    
C15   H2    S    
C3    C4    A    
Cr2   O5    S    
C73   C74   A    
C19   H9    S    
O60   H55   S    
C42   H26   S    
S1    O27   D    
C9    C10   S    
C53   C56   S    
C83   C90   S    
C54   C55   A    
C48   C49   S    
C32   C33   S    
C27   C32   S    
C18   C22   S    
C32   H20   S    
Cr1   O24   S    
C14   C19   S    
C28   C31   S    
C15   H3    S    
C80   C81   S    
S9    O59   S    
C22   H6    S    
C27   S3    S    
C71   H37   S    
C4    C67   A    
C31   C38   S    
C43   C50   T    
Cr6   O18   S    
C62   C68   A    
O37   H44   S    
S10   O63   S    
S11   O66   S    
Cr6   O11   S    
C84   O8    A    
S13   O72   S    
C73   S10   S    
C48   O47   S    
C60   C64   A    
Cr5   O19   S    
S5    O44   D    
S14   O75   S    
C19   C20   S    
C2    C3    A    
C58   C59   A    
C51   C52   T    
S10   O62   D    
Cr3   O5    S    
C3    H19   S    
C64   C65   S    
C6    C13   A    
C61   C68   A    
C4    O42   S    
C57   C58   A    
Cr4   O6    S    
C85   O10   A    
C45   O3    A    
C33   C35   S    
S13   O71   D    
Cr2   O20   S    
S6    O48   D    
C42   C47   S    
C65   C66   T    
C41   H24   S    
Cr3   O23   S    
C85   O9    A    
C35   H21   S    
S12   O69   S    
C1    C39   S    
C63   C64   A    
C21   H7    S    
C16   H5    S    
C40   C44   S    
C40   H23   S    
C71   C72   A    
S7    O51   D    
C27   H13   S    
C74   S11   S    
S11   O64   D    
C87   O14   A    
C13   C85   S    
S12   O67   D    
S6    O49   D    
C68   C87   S    
C77   C83   A    
C31   C36   S    
C60   C61   A    
C2    C11   S    
C29   O31   S    
O41   H46   S    
C72   C82   S    
C86   O6    A    
O56   H53   S    
C49   H27   S    
