data_mof_unit_9180.cif
_audit_creation_date              2012-12-11T14:33:45-0500
_audit_creation_method            fapswitch 2.2
_symmetry_space_group_name_H-M    P1
_symmetry_Int_Tables_number       1
_space_group_crystal_system       triclinic
_cell_length_a                    13.834813
_cell_length_b                    13.992246
_cell_length_c                    27.32831
_cell_angle_alpha                 90.077851
_cell_angle_beta                  90.022177
_cell_angle_gamma                 119.662216
_cell_volume                      4596.96917984

loop_
_atom_site_label
_atom_site_type_symbol
_atom_type_description
_atom_site_fract_x
_atom_site_fract_y
_atom_site_fract_z
_atom_type_partial_charge
C1    C     C_R   0.233770 0.787106 0.568752 0.543510
C2    C     C_1   0.709914 0.863417 0.859709 -0.048974
C3    C     C_3   0.598475 0.567108 0.827286 -0.005945
C4    C     C_3   0.596255 0.497108 0.783543 -0.275656
C5    C     C_3   0.595316 0.392952 0.800118 -0.468153
C6    C     C_3   0.405830 0.011607 0.836466 -0.003794
C7    C     C_3   0.497021 0.088887 0.800953 -0.275239
C8    C     C_3   0.605492 0.163691 0.827870 -0.476785
C9    C     C_3   0.990984 0.367857 0.853858 0.019917
C10   C     C_3   0.916017 0.419052 0.850405 -0.263451
C11   C     C_3   0.844580 0.395234 0.896188 -0.485016
C12   C     C_1   0.111883 0.876678 0.852942 -0.056022
C13   C     C_1   0.117348 0.235425 0.852887 -0.078252
C14   C     C_1   0.630828 0.817637 0.658471 -0.034218
C15   C     C_1   0.174818 0.816734 0.656271 -0.040265
C16   C     C_1   0.180914 0.362998 0.657096 -0.042008
C17   C     C_1   0.602271 0.797628 0.616374 0.018951
C18   C     C_1   0.198318 0.805416 0.615147 0.017466
C19   C     C_1   0.194192 0.396052 0.615738 0.020592
C20   C     C_R   0.064742 0.150348 0.095966 0.580474
C21   C     C_R   0.212773 0.447066 0.568927 0.547780
C22   C     C_R   0.777570 0.884131 0.088408 0.548488
C23   C     C_R   0.116536 0.893760 0.088159 0.560844
C24   C     C_R   0.069914 0.161202 0.943126 0.537068
C25   C     C_R   0.779885 0.887129 0.950693 0.539992
C26   C     C_R   0.090724 0.929103 0.943307 0.534369
C27   C     C_R   0.618651 0.895478 0.361622 -0.131131
C28   C     C_R   0.097244 0.731974 0.362670 -0.132574
C29   C     C_R   0.264278 0.357422 0.363802 -0.132987
C30   C     C_R   0.644897 0.911079 0.311998 0.013960
C31   C     C_R   0.080656 0.743579 0.313038 0.014133
C32   C     C_R   0.552987 0.765499 0.568923 0.542755
C33   C     C_R   0.241278 0.306567 0.317696 0.014285
C34   C     C_R   0.681179 0.929098 0.210519 0.017393
C35   C     C_R   0.060619 0.760000 0.211458 0.017102
C36   C     C_R   0.200663 0.225809 0.220960 0.017046
C37   C     C_R   0.232464 0.788179 0.431776 0.550270
C38   C     C_R   0.211652 0.444440 0.431378 0.552112
C39   C     C_R   0.555551 0.767106 0.431897 0.550893
C40   C     C_R   0.653784 0.000789 0.234779 -0.137838
C41   C     C_R   0.977467 0.670694 0.237408 -0.127971
C42   C     C_R   0.303080 0.256509 0.243562 -0.124069
C43   C     C_3   0.671435 0.739260 0.788445 0.186541
C44   C     C_R   0.635475 0.991704 0.285262 -0.130580
C45   C     C_R   0.988059 0.661830 0.287855 -0.128572
C46   C     C_R   0.323382 0.296914 0.291548 -0.128087
C47   C     C_R   0.704210 0.939617 0.160270 -0.150282
C48   C     C_R   0.050718 0.771291 0.161119 -0.135662
C49   C     C_R   0.182863 0.195059 0.171490 -0.128933
C50   C     C_R   0.728790 0.864853 0.137115 -0.003168
C51   C     C_R   0.135379 0.861685 0.136289 -0.005068
C52   C     C_R   0.082711 0.172649 0.148605 -0.008820
C53   C     C_R   0.658489 0.744522 0.363947 -0.128670
C54   C     C_3   0.247726 0.940102 0.785261 0.184215
C55   C     C_R   0.266039 0.910457 0.361949 -0.126025
C56   C     C_R   0.075980 0.328042 0.368018 -0.127060
C57   C     C_R   0.682596 0.757385 0.314409 0.013146
C58   C     C_R   0.254306 0.920243 0.312274 0.013449
C59   C     C_R   0.052486 0.279138 0.321937 0.011987
C60   C     C_R   0.673318 0.839280 0.288007 0.063737
C61   C     C_R   0.162371 0.835710 0.287396 0.063155
C62   C     C_R   0.136028 0.270387 0.296122 0.062642
C63   C     C_R   0.707531 0.684075 0.290262 -0.126319
C64   C     C_R   0.337564 0.009635 0.286642 -0.126860
C65   C     C_3   0.047476 0.304966 0.784940 0.179950
C66   C     C_R   0.948978 0.245520 0.300014 -0.128256
C67   C     C_R   0.719446 0.689267 0.239796 -0.127203
C68   C     C_R   0.331695 0.013666 0.236076 -0.129484
C69   C     C_R   0.930063 0.208416 0.251808 -0.122516
C70   C     C_R   0.709722 0.769794 0.213397 0.010989
C71   C     C_R   0.240600 0.930366 0.211048 0.014426
C72   C     C_R   0.013238 0.201952 0.225344 0.016675
C73   C     C_3   0.561390 0.845954 0.737953 -0.209835
C74   C     C_3   0.127644 0.724831 0.737791 -0.202527
C75   C     C_3   0.268786 0.408532 0.739541 -0.205979
C76   C     C_3   0.650908 0.729079 0.732214 -0.206995
C77   C     C_R   0.688539 0.846490 0.237327 0.065411
C78   C     C_R   0.154301 0.841998 0.236633 0.064026
C79   C     C_R   0.116038 0.230884 0.247728 0.062254
C80   C     C_R   0.724261 0.776473 0.163418 -0.123018
C81   C     C_R   0.232661 0.936633 0.160908 -0.132769
C82   C     C_R   0.997079 0.172155 0.176145 -0.129544
C83   C     C_R   0.618612 0.807675 0.386700 -0.000605
C84   C     C_R   0.193457 0.812685 0.386327 -0.000939
C85   C     C_R   0.183147 0.372428 0.388141 -0.002390
C86   C     C_3   0.770584 0.933745 0.722932 -0.031769
C87   C     C_3   0.262022 0.926328 0.729812 -0.199033
C88   C     C_3   0.059438 0.858572 0.714123 -0.031368
C89   C     C_3   0.141053 0.208616 0.714249 -0.032022
C90   C     C_3   0.789436 0.945316 0.779423 -0.273364
C91   C     C_3   0.042701 0.872975 0.769411 -0.272413
C92   C     C_3   0.121058 0.174853 0.769056 -0.267703
C93   C     C_1   0.736011 0.873466 0.902207 -0.027637
C94   C     C_1   0.102303 0.899144 0.894511 -0.025288
C95   C     C_1   0.098129 0.202542 0.894352 -0.044154
C96   C     C_3   0.653841 0.833305 0.711345 0.005817
C97   C     C_3   0.154363 0.829916 0.707944 0.003106
C98   C     C_3   0.064572 0.336020 0.729703 -0.187497
C99   C     C_3   0.165323 0.329345 0.708673 -0.000520
C100  C     C_3   0.584020 0.860854 0.793811 -0.187177
C101  C     C_3   0.103829 0.738372 0.792184 -0.181797
C102  C     C_3   0.253722 0.369783 0.793573 -0.181642
C103  C     C_3   0.688249 0.851964 0.806722 0.069150
C104  C     C_3   0.126450 0.857121 0.801309 0.068802
C105  C     C_3   0.134805 0.271468 0.801586 0.062664
C106  C     C_2   0.788471 0.039437 0.699614 0.547874
C107  C     C_2   0.951473 0.776887 0.689572 0.546895
C108  C     C_2   0.230105 0.189177 0.691809 0.544051
Cr1   Cr    Cr6+3 0.164410 0.584450 0.499910 1.032518
Cr2   Cr    Cr6+3 0.415550 0.579960 0.499910 1.032715
Cr3   Cr    Cr6+3 0.420040 0.835590 0.499910 1.030703
Cr4   Cr    Cr6+3 0.155170 0.075460 0.019960 1.011345
Cr5   Cr    Cr6+3 0.924540 0.079710 0.019960 0.996746
Cr6   Cr    Cr6+3 0.920290 0.844830 0.019960 1.004455
H1    H     H_    0.597348 0.942535 0.805369 0.122398
H2    H     H_    0.750598 0.738542 0.795754 0.094605
H3    H     H_    0.261910 0.025193 0.791131 0.097442
H4    H     H_    0.961873 0.232686 0.788150 0.102692
H5    H     H_    0.706615 0.007013 0.139752 0.103739
H6    H     H_    0.975665 0.713429 0.141903 0.113276
H7    H     H_    0.248147 0.192806 0.150466 0.121504
H8    H     H_    0.589177 0.945566 0.379405 0.128944
H9    H     H_    0.039850 0.657234 0.381728 0.125091
H10   H     H_    0.346838 0.390538 0.379350 0.125893
H11   H     H_    0.646531 0.063729 0.214746 0.097701
H12   H     H_    0.015557 0.678448 0.800840 0.116786
H13   H     H_    0.905279 0.607019 0.218593 0.098062
H14   H     H_    0.368765 0.252807 0.223585 0.100182
H15   H     H_    0.612738 0.046782 0.303279 0.100383
H16   H     H_    0.924493 0.590759 0.307063 0.101756
H17   H     H_    0.404366 0.323607 0.307675 0.102859
H18   H     H_    0.741301 0.716959 0.145668 0.129085
H19   H     H_    0.298662 0.006057 0.141662 0.122631
H20   H     H_    0.918879 0.152166 0.158675 0.117481
H21   H     H_    0.736442 0.630535 0.221396 0.098203
H22   H     H_    0.397770 0.082321 0.216590 0.094088
H23   H     H_    0.316570 0.344941 0.802758 0.126275
H24   H     H_    0.852027 0.188844 0.234605 0.110007
H25   H     H_    0.714311 0.620691 0.310172 0.102419
H26   H     H_    0.408870 0.074500 0.305512 0.098168
H27   H     H_    0.884321 0.252285 0.319428 0.104444
H28   H     H_    0.555320 0.916520 0.722969 0.159689
H29   H     H_    0.055775 0.650658 0.721823 0.170527
H30   H     H_    0.345522 0.414118 0.724055 0.157950
H31   H     H_    0.660540 0.678190 0.383559 0.130693
H32   H     H_    0.338953 0.974628 0.380273 0.133348
H33   H     H_    0.012240 0.337524 0.386844 0.132583
H34   H     H_    0.479024 0.771486 0.731438 0.115181
H35   H     H_    0.834329 0.916357 0.706960 0.148001
H36   H     H_    0.086837 0.939132 0.696019 0.157400
H37   H     H_    0.062643 0.154453 0.694090 0.161788
H38   H     H_    0.804244 0.026650 0.792844 0.139216
H39   H     H_    0.956308 0.814229 0.781361 0.132567
H40   H     H_    0.178619 0.146105 0.782009 0.133818
H41   H     H_    0.865472 0.940913 0.788490 0.070165
H42   H     H_    0.054578 0.955987 0.775667 0.072402
H43   H     H_    0.034886 0.105468 0.773280 0.075326
H44   H     H_    0.569030 0.655653 0.723675 0.145852
H45   H     H_    0.199707 0.710217 0.736043 0.119808
H46   H     H_    0.333232 0.911557 0.723836 0.146476
H47   H     H_    0.077414 0.420474 0.724412 0.155926
H48   H     H_    0.715249 0.715974 0.713990 0.121130
H49   H     H_    0.283326 0.004154 0.710428 0.120330
H50   H     H_    0.987895 0.279757 0.709017 0.117866
H51   H     H_    0.861538 0.150052 0.645418 0.338592
H52   H     H_    0.840833 0.749132 0.635695 0.339348
H53   H     H_    0.271997 0.120062 0.636961 0.339615
H54   H     H_    0.530792 0.513716 0.852899 0.159760
H55   H     H_    0.677658 0.599132 0.848232 0.126223
H56   H     H_    0.280539 0.493169 0.738169 0.120701
H57   H     H_    0.520884 0.473772 0.761163 0.177644
H58   H     H_    0.670815 0.544988 0.760334 0.178944
H59   H     H_    0.670630 0.414189 0.822228 0.141520
H60   H     H_    0.595085 0.345481 0.767495 0.178531
H61   H     H_    0.519674 0.340976 0.822131 0.146009
H62   H     H_    0.443101 0.981571 0.864262 0.164553
H63   H     H_    0.370611 0.056112 0.857068 0.126526
H64   H     H_    0.512885 0.040165 0.773297 0.189808
H65   H     H_    0.468695 0.139989 0.781224 0.163345
H66   H     H_    0.591831 0.213064 0.856018 0.141448
H67   H     H_    0.510056 0.797799 0.813993 0.171423
H68   H     H_    0.668802 0.220008 0.801363 0.171984
H69   H     H_    0.638033 0.114365 0.846007 0.143331
H70   H     H_    0.045531 0.402036 0.886496 0.171202
H71   H     H_    0.938425 0.277645 0.860064 0.116433
H72   H     H_    0.968277 0.509493 0.846039 0.168959
H73   H     H_    0.861174 0.385584 0.817816 0.167821
H74   H     H_    0.790038 0.305179 0.900935 0.147981
H75   H     H_    0.791611 0.433931 0.892770 0.140030
H76   H     H_    0.898194 0.429646 0.929062 0.160129
H77   H     H_    0.156396 0.719143 0.816528 0.168232
H78   H     H_    0.269096 0.439245 0.818241 0.165957
O1    O     O_R   0.137150 0.468200 0.553200 -0.508704
O2    O     O_R   0.140110 0.470540 0.446010 -0.520230
O3    O     O_R   0.529460 0.669570 0.446010 -0.520006
O4    O     O_R   0.330430 0.859890 0.446010 -0.522227
O5    O     O_R   0.176710 0.690910 0.450560 -0.501582
O6    O     O_R   0.309090 0.485800 0.450560 -0.499995
O7    O     O_R   0.514200 0.823290 0.450560 -0.503199
O8    O     O_3   0.333333 0.666667 0.499990 -0.273069
O9    O     O_R   0.176750 0.985260 0.074180 -0.530091
O10   O     O_R   0.014740 0.191490 0.074180 -0.495475
O11   O     O_R   0.808510 0.823250 0.074180 -0.517256
O12   O     O_R   0.531800 0.668950 0.553200 -0.509418
O13   O     O_R   0.146100 0.172630 0.068980 -0.479235
O14   O     O_R   0.827370 0.973470 0.068980 -0.517280
O15   O     O_R   0.026530 0.853900 0.068980 -0.488624
O16   O     O_3   0.000000 0.000000 0.020040 -0.282399
O17   O     O_R   0.148270 0.170520 0.969620 -0.488764
O18   O     O_R   0.829480 0.977750 0.969620 -0.522878
O19   O     O_R   0.022250 0.851730 0.969620 -0.482500
O20   O     O_2   0.742901 0.088404 0.716089 -0.556720
O21   O     O_R   0.857030 0.080215 0.658520 -0.698292
O22   O     O_2   0.896640 0.683165 0.705248 -0.562751
O23   O     O_R   0.331050 0.862850 0.553200 -0.506122
O24   O     O_R   0.914200 0.809939 0.648869 -0.687170
O25   O     O_2   0.321360 0.225856 0.711237 -0.565862
O26   O     O_R   0.206886 0.128324 0.648523 -0.692661
O27   O     O_3   0.578128 0.652520 0.812524 -0.576952
O28   O     O_3   0.322794 0.917840 0.811884 -0.580196
O29   O     O_3   0.060269 0.397491 0.811952 -0.581059
O30   O     O_R   0.179100 0.982980 0.967000 -0.506997
O31   O     O_R   0.017020 0.196120 0.967000 -0.494624
O32   O     O_R   0.803880 0.820900 0.967000 -0.511698
O33   O     O_R   0.173970 0.688730 0.549930 -0.496511
O34   O     O_R   0.311270 0.485240 0.549930 -0.495306
O35   O     O_R   0.514760 0.826030 0.549930 -0.493298

loop_
_geom_bond_atom_site_label_1
_geom_bond_atom_site_label_2
_ccdc_geom_bond_type
C26   C94   S    
C15   C18   T    
C87   H49   S    
C74   H29   S    
C25   C93   S    
C80   H18   S    
C4    H57   S    
C28   C84   A    
C5    H60   S    
C31   C61   A    
C36   C42   A    
C91   C104  S    
C12   C94   T    
C65   O29   S    
C28   H9    S    
C7    C8    S    
C48   H6    S    
C66   H27   S    
C25   O32   A    
Cr6   O15   S    
C21   O34   A    
C76   H44   S    
C1    C18   S    
C22   O11   A    
C89   C99   S    
C34   C40   A    
C64   C68   A    
C54   C104  S    
C19   C21   S    
Cr3   O23   S    
C65   C98   S    
C12   C104  S    
C72   C79   A    
C9    H71   S    
C16   C19   T    
C34   C77   A    
C54   C87   S    
C43   H2    S    
C66   C69   A    
Cr2   O6    S    
C8    H68   S    
C29   H10   S    
C29   C33   A    
C43   C76   S    
C87   H46   S    
C22   O14   A    
C102  C105  S    
Cr2   O12   S    
C42   C46   A    
C65   C105  S    
C91   H39   S    
C41   H13   S    
Cr5   O31   S    
Cr3   O7    S    
C76   H48   S    
C48   C51   A    
C107  O24   S    
C33   C62   A    
C30   C60   A    
Cr1   O5    S    
C1    O23   A    
C75   C102  S    
C102  H78   S    
C65   H4    S    
C38   O6    A    
C37   C84   S    
Cr1   O1    S    
C26   O19   A    
C37   O5    A    
C74   C97   S    
C9    C10   S    
C51   C81   A    
H53   O26   S    
C29   C85   A    
C88   C97   S    
C3    O27   S    
C42   H14   S    
Cr3   O4    S    
C22   C50   S    
C108  O26   S    
C58   C61   A    
C47   H5    S    
C49   H7    S    
C45   H16   S    
C70   C77   A    
C33   C46   A    
C5    H61   S    
C14   C17   T    
C30   C44   A    
C86   C106  S    
C100  H1    S    
C88   H36   S    
C20   O13   A    
C15   C97   S    
C21   O1    A    
C35   C48   A    
C14   C96   S    
C27   H8    S    
C3    H54   S    
C10   H73   S    
C47   C50   A    
C73   H28   S    
C28   C31   A    
C58   C64   A    
C63   C67   A    
C60   C77   A    
C38   C85   S    
C70   C80   A    
C11   H74   S    
C37   O4    A    
C62   C79   A    
C68   H22   S    
Cr4   O16   S    
C13   C105  S    
C86   C90   S    
C24   C95   S    
C46   H17   S    
C88   C107  S    
Cr1   O33   S    
C3    H55   S    
C57   C60   A    
C87   C97   S    
C73   H34   S    
C101  H77   S    
C44   H15   S    
C39   O3    A    
C100  C103  S    
C38   O2    A    
C7    H64   S    
C92   H43   S    
C11   H75   S    
C102  H23   S    
Cr6   O19   S    
C82   H20   S    
C69   C72   A    
C67   H21   S    
Cr5   O16   S    
C26   O30   A    
Cr3   O8    S    
C53   H31   S    
C8    H66   S    
C23   C51   S    
C88   C91   S    
C40   C44   A    
C61   C78   A    
C49   C52   A    
C106  O20   D    
C75   H56   S    
C75   C99   S    
C101  H12   S    
C7    H65   S    
Cr1   O2    S    
Cr5   O10   S    
C89   C92   S    
C52   C82   A    
C100  H67   S    
C86   C96   S    
C74   C101  S    
C6    O28   S    
C108  O25   D    
C74   H45   S    
C8    H69   S    
C90   H38   S    
C23   O9    A    
C73   C100  S    
C101  C104  S    
C6    H63   S    
Cr2   O34   S    
C32   O12   A    
C86   H35   S    
C5    H59   S    
C3    C4    S    
C98   H47   S    
C64   H26   S    
C24   O31   A    
C1    O33   A    
C69   H24   S    
C106  O21   S    
C39   O7    A    
C59   C62   A    
C53   C57   A    
C4    H58   S    
C23   O15   A    
Cr4   O30   S    
C2    C93   T    
C43   O27   S    
C57   C63   A    
C4    C5    S    
C55   H32   S    
C36   C79   A    
C50   C80   A    
Cr4   O13   S    
C98   H50   S    
C24   O17   A    
C16   C99   S    
C81   H19   S    
C6    C7    S    
Cr6   O32   S    
C63   H25   S    
C35   C78   A    
C54   O28   S    
Cr2   O8    S    
C56   C59   A    
C53   C83   A    
C11   H76   S    
Cr3   O35   S    
Cr5   O14   S    
C67   C70   A    
C56   H33   S    
C27   C83   A    
H51   O21   S    
C39   C83   S    
C91   H42   S    
C20   C52   S    
C9    H70   S    
C76   C96   S    
Cr4   O9    S    
C13   C95   T    
C56   C85   A    
C107  O22   D    
C6    H62   S    
C2    C103  S    
C32   O35   A    
C68   C71   A    
C40   H11   S    
C89   C108  S    
C10   H72   S    
Cr6   O16   S    
Cr5   O18   S    
C25   O18   A    
C35   C41   A    
C43   C103  S    
C90   C103  S    
C10   C11   S    
C20   O10   A    
C55   C84   A    
C9    O29   S    
C92   C105  S    
C89   H37   S    
Cr4   O17   S    
C75   H30   S    
C98   C99   S    
C31   C45   A    
C55   C58   A    
Cr2   O3    S    
C17   C32   S    
C41   C45   A    
Cr6   O11   S    
Cr1   O8    S    
C92   H40   S    
C34   C47   A    
C73   C96   S    
C71   C81   A    
C90   H41   S    
C54   H3    S    
C71   C78   A    
C72   C82   A    
C36   C49   A    
H52   O24   S    
C59   C66   A    
C27   C30   A    
