data_mof_unit_64995.cif
_audit_creation_date              2013-03-05T16:13:09-0500
_audit_creation_method            fapswitch 2.2
_symmetry_space_group_name_H-M    P1
_symmetry_Int_Tables_number       1
_space_group_crystal_system       triclinic
_cell_length_a                    15.881251
_cell_length_b                    15.914695
_cell_length_c                    14.68298
_cell_angle_alpha                 90.305682
_cell_angle_beta                  90.339441
_cell_angle_gamma                 89.940492
_cell_volume                      3710.93386267

loop_
_atom_site_label
_atom_site_type_symbol
_atom_site_description
_atom_site_fract_x
_atom_site_fract_y
_atom_site_fract_z
_atom_type_partial_charge
O1    O     O_R   0.499910 0.379360 0.575970 -0.560387
O2    O     O_R   0.500090 0.379510 0.424100 -0.550639
C1    C     C_R   0.499980 0.339897 0.499764 0.821133
O3    O     O_R   0.378990 0.499920 0.575920 -0.571690
O4    O     O_R   0.379170 0.500070 0.424050 -0.568846
C2    C     C_R   0.339444 0.500000 0.499712 0.820116
Cu1   Cu    Cu3+1 0.499890 0.499910 0.589920 1.091436
Cu2   Cu    Cu3+1 0.500110 0.500090 0.410080 1.064261
O5    O     O_R   0.499910 0.620490 0.575900 -0.554213
O6    O     O_R   0.500090 0.620640 0.424030 -0.561241
O7    O     O_R   0.620830 0.499930 0.575950 -0.541183
O8    O     O_R   0.621010 0.500080 0.424080 -0.571427
C3    C     C_R   0.499992 0.660110 0.500203 0.814828
C4    C     C_R   0.660556 0.499897 0.500298 0.824923
C5    C     C_3   0.972643 0.442041 0.560201 -0.192763
C6    C     C_3   0.027716 0.423771 0.476034 0.328991
H1    H     H_    0.949249 0.394506 0.608958 0.205512
H2    H     H_    0.946392 0.463678 0.347448 0.197658
C7    C     C_1   0.249824 0.500005 0.499220 -0.105837
C8    C     C_1   0.750176 0.499557 0.500846 -0.084006
C9    C     C_3   0.028935 0.518885 0.584130 -0.204081
C10   C     C_3   0.082780 0.499833 0.499711 0.033397
C11   C     C_3   0.972298 0.575262 0.524239 0.333096
C12   C     C_3   0.917223 0.499213 0.500556 0.034937
C13   C     C_3   0.027352 0.556996 0.440072 -0.211797
C14   C     C_3   0.971072 0.480151 0.416140 -0.210558
C15   C     C_1   0.174350 0.499977 0.499279 0.052308
C16   C     C_1   0.825650 0.499294 0.500891 0.068605
H3    H     H_    0.050731 0.604538 0.391316 0.194971
H4    H     H_    0.053613 0.535357 0.652823 0.196922
C17   C     C_3   0.573418 0.049541 0.555656 0.076764
C18   C     C_3   0.506068 0.047236 0.396607 0.146456
C19   C     C_3   0.504419 0.948719 0.398582 0.006112
H5    H     H_    0.635300 0.928005 0.524641 0.256304
H6    H     H_    0.567939 0.066943 0.369636 0.206837
H7    H     H_    0.448985 0.922996 0.361582 0.193683
C20   C     C_1   0.499823 0.749514 0.500552 -0.064943
C21   C     C_3   0.498270 0.082999 0.496193 -0.120497
C22   C     C_3   0.575442 0.951888 0.553850 -0.362339
C23   C     C_3   0.499338 0.916974 0.498651 -0.028614
C24   C     C_3   0.415592 0.951421 0.539803 0.026897
C25   C     C_3   0.416488 0.049199 0.542034 0.044051
C26   C     C_1   0.499618 0.824866 0.500058 0.091151
C27   C     C_1   0.498948 0.175169 0.497781 0.112329
C28   C     C_1   0.499525 0.250513 0.498984 -0.031111
H8    H     H_    0.416524 0.070978 0.614165 0.188352
H9    H     H_    0.561395 0.068896 0.627567 0.163867
H10   H     H_    0.573655 0.928028 0.624892 0.219670
H11   H     H_    0.362325 0.929355 0.496351 0.189740
C29   C     C_3   0.477665 0.589203 0.054357 0.034898
C30   C     C_3   0.435725 0.436267 0.051719 0.090273
C31   C     C_3   0.430748 0.444889 0.945083 0.049782
H12   H     H_    0.422614 0.609187 0.920678 0.115919
H13   H     H_    0.410101 0.600313 0.070423 0.119146
H14   H     H_    0.372507 0.451982 0.079471 0.122369
H15   H     H_    0.371129 0.479350 0.930629 0.109296
N1    N     N_1   0.501700 0.501390 0.724970 -0.119459
C32   C     C_3   0.500718 0.500180 0.092286 -0.153657
C33   C     C_3   0.486158 0.591243 0.946976 0.047296
C34   C     C_3   0.505199 0.500537 0.907791 -0.235717
C35   C     C_3   0.592171 0.467179 0.949136 0.505326
C36   C     C_3   0.589781 0.476873 0.056382 -0.374688
C37   C     C_1   0.503039 0.501183 0.804701 0.370537
C38   C     C_1   0.498977 0.499084 0.195305 0.300088
N2    N     N_1   0.498280 0.498620 0.275030 -0.133449
H16   H     H_    0.633627 0.526900 0.079989 0.239121
H17   H     H_    0.612553 0.418450 0.089573 0.222850
Br1   Br    Br    0.068880 0.313744 0.441063 -0.327971
Br2   Br    Br    0.600918 0.902452 0.332572 -0.312468
Br3   Br    Br    0.311648 0.095516 0.492908 -0.287013
Br4   Br    Br    0.393179 0.907129 0.661428 -0.369866
Br5   Br    Br    0.457123 0.321747 0.095169 -0.257219
Br6   Br    Br    0.406780 0.340572 0.877736 -0.301253
N3    N     N_R   0.666203 0.511072 0.911864 0.172526
O9    O     O_R   0.672860 0.522142 0.824449 -0.292183
O10   O     O_R   0.734890 0.516810 0.960432 -0.272158
Br7   Br    Br    0.533645 0.681223 0.120549 -0.295320
N4    N     N_R   0.543950 0.656090 0.912922 0.199323
O11   O     O_R   0.619576 0.665702 0.945786 -0.210349
O12   O     O_R   0.517299 0.708660 0.851548 -0.276628
Br8   Br    Br    0.612256 0.348812 0.918777 -0.264512
Br9   Br    Br    0.931221 0.685286 0.559305 -0.351983
N5    N     N_R   0.655081 0.085706 0.529997 0.152993
O13   O     O_R   0.691316 0.140071 0.583849 -0.286063
O14   O     O_R   0.695171 0.059934 0.458009 -0.283813
N6    N     N_R   0.442817 0.083453 0.334070 0.171755
O15   O     O_R   0.451935 0.160433 0.306366 -0.265986
O16   O     O_R   0.382721 0.038386 0.298126 -0.260877

loop_
_geom_bond_atom_site_label_1
_geom_bond_atom_site_label_2
_geom_bond_distance
_ccdc_geom_bond_type
C32   C36   1.556206 S    
C11   Br9   1.936137 S    
C24   C25   1.556347 S    
H2    C14   1.110110 S    
H12   C33   1.115798 S    
Cu1   Cu2   2.640628 S    
C30   H14   1.113467 S    
Cu1   O7    1.932809 S    
C2    C7    1.423260 S    
C29   H13   1.113744 S    
N3    O10   1.302726 A    
C36   H17   1.111236 S    
C34   C37   1.513939 S    
C29   C33   1.583731 S    
C12   C14   1.538734 S    
C21   C25   1.563635 S    
O4    C2    1.280837 A    
O7    C4    1.280707 A    
N6    O16   1.302025 A    
C5    C6    1.544422 S    
C25   Br3   1.955695 S    
C19   H7    1.109276 S    
C17   N5    1.471335 S    
C5    H1    1.110111 S    
C25   H8    1.112610 S    
O5    C3    1.280785 A    
C31   C34   1.580234 S    
C23   C26   1.466136 S    
C10   C13   1.538505 S    
C11   C12   1.531293 S    
C6    Br1   1.936287 S    
C18   C21   1.571766 S    
C7    C15   1.198615 T    
C3    C20   1.422819 S    
C19   Br2   1.959053 S    
C24   Br4   1.958110 S    
C33   C34   1.580708 S    
C17   H9    1.115795 S    
C9    C10   1.538700 S    
C13   H3    1.110106 S    
O3    Cu1   1.929803 S    
C33   N4    1.473208 S    
C24   H11   1.112584 S    
N1    C37   1.170785 T    
C6    C14   1.544373 S    
C19   C23   1.558847 S    
N3    O9    1.301419 A    
C36   H16   1.110965 S    
H5    C22   1.111045 S    
C29   C32   1.567277 S    
C18   H6    1.107802 S    
C4    C8    1.423258 S    
O3    C2    1.279920 A    
C31   Br6   1.964249 S    
C22   C23   1.552862 S    
N4    O11   1.300571 A    
C8    C16   1.198619 T    
C32   C38   1.513229 S    
C13   C14   1.553060 S    
C1    C28   1.422526 S    
C30   C31   1.573968 S    
C34   C35   1.596902 S    
O1    C1    1.280216 A    
C20   C26   1.199263 T    
C21   C27   1.466970 S    
N5    O13   1.301257 A    
C5    C9    1.553132 S    
Cu2   O8    1.929806 S    
C18   N6    1.475783 S    
C30   C32   1.563085 S    
C5    C12   1.538574 S    
N5    O14   1.301398 A    
O8    C4    1.280055 A    
C10   C15   1.454303 S    
C9    C11   1.544256 S    
C30   Br5   1.962844 S    
C29   Br7   1.963905 S    
C27   C28   1.199167 T    
N6    O15   1.301421 A    
Cu1   O5    1.931094 S    
C23   C24   1.561734 S    
C6    C10   1.531337 S    
O1    Cu1   1.928333 S    
O2    Cu2   1.931096 S    
C12   C16   1.454324 S    
O6    C3    1.279859 A    
O4    Cu2   1.932809 S    
C35   N3    1.477554 S    
C9    H4    1.110109 S    
C17   C21   1.568890 S    
C38   N2    1.170783 T    
O2    C1    1.280312 A    
C35   Br8   1.959731 S    
C18   C19   1.568541 S    
C17   C22   1.554501 S    
N4    O12   1.301519 A    
C11   C13   1.544225 S    
C35   C36   1.582084 S    
Cu2   N2    1.982991 S    
Cu2   O6    1.928331 S    
Cu1   N1    1.982988 S    
C31   H15   1.113593 S    
C22   H10   1.112515 S    
