data_mof_unit_63773.cif
_audit_creation_date              2012-12-10T18:16:13-0500
_audit_creation_method            fapswitch 2.2
_symmetry_space_group_name_H-M    P1
_symmetry_Int_Tables_number       1
_space_group_crystal_system       triclinic
_cell_length_a                    42.362472
_cell_length_b                    29.209297
_cell_length_c                    29.203016
_cell_angle_alpha                 90.0
_cell_angle_beta                  133.8461
_cell_angle_gamma                 90.000099
_cell_volume                      26060.7967802

loop_
_atom_site_label
_atom_site_type_symbol
_atom_type_description
_atom_site_fract_x
_atom_site_fract_y
_atom_site_fract_z
_atom_type_partial_charge
C1    C     C_R   0.499982 0.586678 0.500002 0.907899
C2    C     C_1   0.834394 0.000002 0.335950 -0.084398
C3    C     C_3   0.761037 0.962593 0.241229 -0.163191
C4    C     C_1   0.372463 0.500001 0.373243 -0.202945
C5    C     C_1   0.872463 0.000001 0.373243 -0.202945
C6    C     C_1   0.121335 0.500000 0.122315 -0.202482
C7    C     C_1   0.621335 0.000000 0.122315 -0.202482
C8    C     C_3   0.261652 0.499423 0.307663 -0.164345
C9    C     C_3   0.761652 0.999422 0.307663 -0.164345
C10   C     C_3   0.288833 0.500003 0.291143 0.211764
C11   C     C_3   0.788833 0.000003 0.291143 0.211764
C12   C     C_1   0.159403 0.500001 0.161543 -0.084414
C13   C     C_1   0.659403 0.000001 0.161543 -0.084414
C14   C     C_1   0.499969 0.637261 0.499963 -0.222223
C15   C     C_1   0.499969 0.362739 0.499964 -0.222219
C16   C     C_1   0.999969 0.137261 0.499963 -0.222223
C17   C     C_1   0.999969 0.862739 0.499964 -0.222219
C18   C     C_1   0.499960 0.679398 0.499949 0.004046
C19   C     C_1   0.499961 0.320602 0.499949 0.004050
C20   C     C_1   0.999960 0.179398 0.499949 0.004046
C21   C     C_R   0.499982 0.413322 0.500002 0.907897
C22   C     C_1   0.999961 0.820602 0.499949 0.004050
C23   C     C_1   0.499954 0.729133 0.499945 0.006474
C24   C     C_1   0.499955 0.270867 0.499945 0.006476
C25   C     C_1   0.999954 0.229133 0.499945 0.006474
C26   C     C_1   0.999955 0.770867 0.499945 0.006476
C27   C     C_1   0.499951 0.771269 0.499949 0.006208
C28   C     C_1   0.499952 0.228731 0.499949 0.006209
C29   C     C_1   0.999951 0.271269 0.499949 0.006208
C30   C     C_1   0.999952 0.728731 0.499949 0.006209
C31   C     C_1   0.499951 0.821004 0.499958 0.004415
C32   C     C_R   0.999982 0.086678 0.500002 0.907899
C33   C     C_1   0.499951 0.178996 0.499959 0.004416
C34   C     C_1   0.999951 0.321004 0.499958 0.004415
C35   C     C_1   0.999951 0.678996 0.499959 0.004416
C36   C     C_1   0.499952 0.863141 0.499969 -0.214075
C37   C     C_1   0.499952 0.136859 0.499969 -0.214075
C38   C     C_1   0.999952 0.363141 0.499969 -0.214075
C39   C     C_1   0.999952 0.636859 0.499969 -0.214075
C40   C     C_R   0.417081 0.499999 0.417298 0.953310
C41   C     C_R   0.917082 1.000000 0.417298 0.953310
C42   C     C_1   0.635837 0.500000 0.635466 -0.221479
C43   C     C_R   0.999982 0.913322 0.500002 0.907897
C44   C     C_1   0.135837 1.000000 0.635466 -0.221479
C45   C     C_1   0.677113 0.500000 0.676716 0.016539
C46   C     C_1   0.177113 1.000000 0.676716 0.016539
C47   C     C_1   0.726258 0.500000 0.725928 0.003175
C48   C     C_1   0.226258 1.000000 0.725928 0.003175
C49   C     C_1   0.767535 0.500000 0.767291 0.003170
C50   C     C_1   0.267535 1.000000 0.767291 0.003170
C51   C     C_1   0.816680 0.500000 0.816554 0.016524
C52   C     C_1   0.316680 1.000000 0.816554 0.016524
C53   C     C_1   0.857956 0.500000 0.857928 -0.221692
C54   C     C_3   0.204973 0.500002 0.207718 0.211727
C55   C     C_1   0.357956 1.000000 0.857928 -0.221692
C56   C     C_R   0.994868 0.500000 0.081685 0.909875
C57   C     C_R   0.494868 0.000000 0.081685 0.909875
C58   C     C_R   0.076725 0.500000 0.076253 0.952950
C59   C     C_R   0.576725 0.000000 0.076254 0.952950
C60   C     C_R   0.992977 0.500000 0.906347 0.906299
C61   C     C_R   0.492976 0.000000 0.906347 0.906299
C62   C     C_R   0.907990 0.500000 0.908068 0.891213
C63   C     C_R   0.407990 1.000000 0.908068 0.891213
C64   C     C_R   0.585806 0.500000 0.585686 0.891082
C65   C     C_3   0.704973 0.000002 0.207718 0.211727
C66   C     C_R   0.085806 0.000000 0.585686 0.891082
C67   C     C_R   0.499078 0.000000 0.412882 0.897657
C68   C     C_R   0.999078 0.500000 0.412882 0.897657
C69   C     C_R   0.499957 0.913724 0.499984 0.897423
C70   C     C_R   0.499957 0.086276 0.499984 0.897423
C71   C     C_R   0.999957 0.413724 0.499984 0.897423
C72   C     C_R   0.999957 0.586276 0.499984 0.897423
C73   C     C_R   0.500769 1.000000 0.587062 0.897289
C74   C     C_R   0.000769 0.500000 0.587062 0.897289
C75   C     C_1   0.995623 0.500000 0.133011 -0.222449
C76   C     C_3   0.232203 0.500582 0.191284 -0.162934
C77   C     C_1   0.495623 0.000000 0.133011 -0.222449
C78   C     C_1   0.996265 0.500000 0.175784 0.004060
C79   C     C_1   0.496265 0.000000 0.175784 0.004060
C80   C     C_1   0.997016 0.500000 0.226258 0.006592
C81   C     C_1   0.497016 0.000000 0.226258 0.006592
C82   C     C_1   0.497625 0.000000 0.268999 0.006259
C83   C     C_1   0.997625 0.500000 0.268999 0.006259
C84   C     C_1   0.498284 0.000000 0.319382 0.004301
C85   C     C_1   0.998284 0.500000 0.319382 0.004301
C86   C     C_1   0.498741 0.000000 0.361973 -0.214164
C87   C     C_3   0.732203 0.000583 0.191284 -0.162934
C88   C     C_1   0.998741 0.500000 0.361973 -0.214164
C89   C     C_1   0.994030 0.500000 0.856804 -0.222113
C90   C     C_1   0.494030 0.000000 0.856804 -0.222113
C91   C     C_3   0.232745 0.537425 0.257623 -0.163859
C92   C     C_3   0.232737 0.462000 0.256610 -0.163883
C93   C     C_3   0.732745 0.037425 0.257623 -0.163859
C94   C     C_3   0.732737 0.962000 0.256609 -0.163884
C95   C     C_1   0.995257 0.500000 0.815898 0.003947
C96   C     C_1   0.495257 1.000000 0.815898 0.003947
C97   C     C_1   0.996884 0.500000 0.767797 0.006259
C98   C     C_1   0.334394 0.500003 0.335950 -0.084398
C99   C     C_1   0.496885 1.000000 0.767797 0.006259
C100  C     C_1   0.498255 1.000000 0.727041 0.006079
C101  C     C_1   0.998255 0.500000 0.727041 0.006079
C102  C     C_1   0.499700 0.000000 0.678751 0.004540
C103  C     C_1   0.999700 0.500000 0.678751 0.004540
C104  C     C_1   0.500560 1.000000 0.637465 -0.214350
C105  C     C_1   0.000560 0.500000 0.637465 -0.214350
C106  C     C_3   0.261046 0.537993 0.242243 -0.163167
C107  C     C_3   0.261037 0.462593 0.241230 -0.163192
C108  C     C_3   0.761046 0.037993 0.242244 -0.163167
H1    H     H_    0.274253 0.568832 0.238101 0.138064
H2    H     H_    0.719499 0.931171 0.260709 0.138759
H3    H     H_    0.218546 0.501053 0.142328 0.137639
H4    H     H_    0.718546 0.001054 0.142328 0.137639
H5    H     H_    0.274236 0.432225 0.236265 0.138095
H6    H     H_    0.774253 0.068832 0.238102 0.138064
H7    H     H_    0.774236 0.932225 0.236263 0.138095
H8    H     H_    0.275376 0.498953 0.356654 0.138965
H9    H     H_    0.775376 0.998951 0.356654 0.138965
H10   H     H_    0.219513 0.567782 0.262544 0.138734
H11   H     H_    0.219499 0.431172 0.260710 0.138759
H12   H     H_    0.719513 0.067781 0.262545 0.138734
O1    O     O_R   0.500400 0.563130 0.536080 -0.597108
O2    O     O_R   0.963990 0.500000 0.400890 -0.593640
O3    O     O_R   0.534410 1.000000 0.471310 -0.593988
O4    O     O_R   0.034410 0.500000 0.471310 -0.593988
O5    O     O_R   0.464750 0.936830 0.464780 -0.593915
O6    O     O_R   0.464750 0.063170 0.464780 -0.593914
O7    O     O_R   0.964750 0.436830 0.464780 -0.593915
O8    O     O_R   0.964750 0.563170 0.464780 -0.593914
O9    O     O_R   0.535170 0.936820 0.535200 -0.593735
O10   O     O_R   0.535170 0.063180 0.535200 -0.593735
O11   O     O_R   0.035170 0.436820 0.535200 -0.593735
O12   O     O_R   0.500400 0.436870 0.536080 -0.597112
O13   O     O_R   0.035170 0.563180 0.535200 -0.593735
O14   O     O_R   0.465520 0.000000 0.528690 -0.593687
O15   O     O_R   0.965520 0.500000 0.528690 -0.593687
O16   O     O_R   0.535930 0.000000 0.599110 -0.593708
O17   O     O_R   0.035930 0.500000 0.599110 -0.593708
O18   O     O_R   0.499540 0.563080 0.463930 -0.597072
O19   O     O_R   0.499540 0.436920 0.463930 -0.597075
O20   O     O_R   0.999540 0.063080 0.463930 -0.597072
O21   O     O_R   0.999540 0.936920 0.463930 -0.597075
O22   O     O_R   0.438030 0.500000 0.473700 -0.614191
O23   O     O_R   0.000400 0.063130 0.536080 -0.597108
O24   O     O_R   0.938030 0.000000 0.473700 -0.614191
O25   O     O_R   0.437170 0.500000 0.401550 -0.614021
O26   O     O_R   0.937170 0.000000 0.401550 -0.614021
O27   O     O_R   0.562760 0.500000 0.598450 -0.591715
O28   O     O_R   0.062760 0.000000 0.598450 -0.591715
O29   O     O_R   0.561900 0.500000 0.526300 -0.591731
O30   O     O_R   0.061900 0.000000 0.526300 -0.591731
O31   O     O_R   0.994600 0.535610 0.057840 -0.596840
O32   O     O_R   0.994600 0.464390 0.057840 -0.596836
O33   O     O_R   0.494600 0.035610 0.057840 -0.596840
O34   O     O_R   0.000400 0.936870 0.536080 -0.597112
O35   O     O_R   0.494600 0.964390 0.057840 -0.596836
O36   O     O_R   0.056200 0.535620 0.056290 -0.614051
O37   O     O_R   0.056200 0.464380 0.056290 -0.614055
O38   O     O_R   0.556200 0.035620 0.056290 -0.614051
O39   O     O_R   0.556200 0.964380 0.056290 -0.614055
O40   O     O_R   0.993060 0.535640 0.930020 -0.597407
O41   O     O_R   0.993060 0.464360 0.930020 -0.597403
O42   O     O_R   0.493060 0.035640 0.930020 -0.597407
O43   O     O_R   0.493060 0.964360 0.930020 -0.597403
O44   O     O_R   0.931470 0.535630 0.931560 -0.591696
O45   O     O_R   0.931470 0.464370 0.931560 -0.591696
O46   O     O_R   0.431470 0.035630 0.931560 -0.591696
O47   O     O_R   0.431470 0.964370 0.931560 -0.591696
O48   O     O_R   0.463990 0.000000 0.400890 -0.593640
Zn1   Zn    Zn3+2 0.500540 0.500000 0.548170 0.967650
Zn2   Zn    Zn3+2 0.952950 0.500000 0.452980 0.968364
Zn3   Zn    Zn3+2 0.546980 0.000000 0.547020 0.968272
Zn4   Zn    Zn3+2 0.046980 0.500000 0.547020 0.968272
Zn5   Zn    Zn3+2 0.000540 1.000000 0.548170 0.967650
Zn6   Zn    Zn3+2 0.499390 0.500000 0.451830 0.967508
Zn7   Zn    Zn3+2 0.999390 0.000000 0.451830 0.967508
Zn8   Zn    Zn3+2 0.993830 0.547580 0.993940 0.967597
Zn9   Zn    Zn3+2 0.993830 0.452420 0.993940 0.967595
Zn10  Zn    Zn3+2 0.493830 0.047580 0.993940 0.967597
Zn11  Zn    Zn3+2 0.493830 0.952420 0.993940 0.967595
Zn12  Zn    Zn3+2 0.452950 1.000000 0.452980 0.968364

loop_
_geom_bond_atom_site_label_1
_geom_bond_atom_site_label_2
_ccdc_geom_bond_type
C67   O48   A    
O1    Zn1   S    
O8    Zn2   S    
C4    C98   T    
O45   Zn9   S    
C6    C58   S    
C44   C66   S    
C68   O4    A    
C81   C82   T    
C47   C49   T    
C13   C65   S    
C60   C89   S    
C36   C69   S    
O7    Zn2   S    
C15   C19   T    
C57   O35   A    
C40   O25   A    
C72   O8    A    
O13   Zn4   S    
C84   C86   T    
C66   O30   A    
C40   O22   A    
C76   H3    S    
C93   C108  S    
C6    C12   T    
C59   O38   A    
C78   C80   S    
C20   C25   S    
C96   C99   S    
C70   O10   A    
C9    H9    S    
O29   Zn6   S    
O15   Zn2   S    
C108  H6    S    
O32   Zn9   S    
C10   C98   S    
C14   C18   T    
C107  H5    S    
O17   Zn4   S    
C38   C71   S    
C59   O39   A    
C73   C104  S    
C62   O44   A    
C87   C108  S    
C4    C40   S    
O35   Zn11  S    
O2    Zn2   S    
C55   C63   S    
O24   Zn5   S    
O18   Zn6   S    
C50   C52   S    
C39   C72   S    
O16   Zn3   S    
O6    Zn12  S    
O46   Zn10  S    
C93   H12   S    
C23   C27   T    
C56   O32   A    
C43   O34   A    
C24   C28   T    
C66   O28   A    
C52   C55   T    
C70   O6    A    
C63   O47   A    
O30   Zn7   S    
C69   O5    A    
C101  C103  S    
C56   C75   S    
C34   C38   T    
C37   C70   S    
C74   O15   A    
O40   Zn8   S    
C91   C106  S    
C71   O7    A    
C10   C107  S    
C80   C83   T    
C2    C11   S    
C7    C59   S    
C44   C46   T    
C65   C87   S    
C63   O46   A    
C25   C29   T    
C74   O17   A    
C46   C48   S    
O11   Zn4   S    
C91   H10   S    
C41   O26   A    
C27   C31   S    
C61   O42   A    
C57   C77   S    
C41   O24   A    
C68   O2    A    
C79   C81   S    
C17   C22   T    
C87   H4    S    
C49   C51   S    
O48   Zn12  S    
C3    C87   S    
C29   C34   S    
C94   H2    S    
C33   C37   T    
C18   C23   S    
C51   C53   T    
C42   C45   T    
C89   C95   T    
C35   C39   T    
C17   C43   S    
C21   O12   A    
C54   C92   S    
C53   C62   S    
C92   C107  S    
C99   C100  T    
O4    Zn4   S    
C73   O16   A    
C7    C13   T    
O10   Zn3   S    
C16   C20   T    
C12   C54   S    
C97   C101  T    
O26   Zn7   S    
O5    Zn12  S    
C100  C102  S    
C60   O41   A    
C77   C79   T    
C103  C105  T    
C8    C91   S    
O37   Zn9   S    
C73   O14   A    
C56   O31   A    
C102  C104  T    
C9    C11   S    
C58   O36   A    
O22   Zn1   S    
C8    C92   S    
C30   C35   S    
C8    C10   S    
C65   C94   S    
C83   C85   S    
O47   Zn11  S    
C28   C33   S    
C26   C30   T    
C76   C107  S    
C82   C84   S    
C64   O27   A    
O43   Zn11  S    
C68   C88   S    
C54   C76   S    
C10   C106  S    
C2    C5    T    
O12   Zn1   S    
O23   Zn5   S    
O41   Zn9   S    
C9    C93   S    
C61   C90   S    
C85   C88   T    
C5    C41   S    
O33   Zn10  S    
O36   Zn8   S    
C67   C86   S    
C76   C106  S    
O31   Zn8   S    
O34   Zn5   S    
C61   O43   A    
O9    Zn3   S    
C60   O40   A    
O39   Zn11  S    
C58   O37   A    
C67   O3    A    
C42   C64   S    
C95   C97   S    
C90   C96   T    
C16   C32   S    
O28   Zn5   S    
C64   O29   A    
C19   C24   S    
O38   Zn10  S    
C54   C91   S    
C3    H7    S    
C92   H11   S    
C74   C105  S    
C32   O23   A    
C72   O13   A    
C57   O33   A    
O20   Zn7   S    
C48   C50   T    
C65   C93   S    
O44   Zn8   S    
C3    C94   S    
C32   O20   A    
C75   C78   T    
C1    O1    A    
O42   Zn10  S    
C3    C11   S    
C8    H8    S    
C71   O11   A    
C15   C21   S    
C62   O45   A    
C45   C47   S    
O25   Zn6   S    
C69   O9    A    
C22   C26   S    
C11   C108  S    
O21   Zn7   S    
C21   O19   A    
C31   C36   T    
O19   Zn6   S    
C1    C14   S    
O14   Zn12  S    
C9    C94   S    
O3    Zn3   S    
C1    O18   A    
O27   Zn1   S    
C43   O21   A    
C106  H1    S    
