data_mof_unit_52137.cif
_audit_creation_date              2012-12-10T21:00:44-0500
_audit_creation_method            fapswitch 2.2
_symmetry_space_group_name_H-M    P1
_symmetry_Int_Tables_number       1
_space_group_crystal_system       triclinic
_cell_length_a                    18.142582
_cell_length_b                    18.217955
_cell_length_c                    18.299655
_cell_angle_alpha                 119.924957
_cell_angle_beta                  89.951666
_cell_angle_gamma                 120.031774
_cell_volume                      4281.46453567

loop_
_atom_site_label
_atom_site_type_symbol
_atom_type_description
_atom_site_fract_x
_atom_site_fract_y
_atom_site_fract_z
_atom_type_partial_charge
C1    C     C_R   0.110340 0.220007 0.609820 0.790504
C2    C     C_R   0.889616 0.779990 0.390149 0.790371
C3    C     C_3   0.920395 0.405679 0.450534 -0.234983
C4    C     C_3   0.079622 0.594367 0.549503 -0.235844
C5    C     C_3   0.434736 0.964343 0.932680 -0.172432
C6    C     C_3   0.564962 0.035403 0.068693 -0.172204
C7    C     C_3   0.537315 0.036899 0.953258 -0.191965
C8    C     C_3   0.462259 0.962689 0.048081 -0.197322
C9    C     C_3   0.548917 0.102318 0.052781 0.070296
C10   C     C_3   0.450810 0.897463 0.948494 0.062413
C11   C     C_3   0.446882 0.031097 0.032953 -0.138306
C12   C     C_3   0.552784 0.968649 0.968379 -0.131868
C13   C     C_3   0.447491 0.404967 0.482540 -0.181966
C14   C     C_3   0.552509 0.595026 0.517461 -0.180872
C15   C     C_3   0.551916 0.473697 0.516507 -0.179777
C16   C     C_3   0.448085 0.526296 0.483494 -0.178986
C17   C     C_3   0.550301 0.499622 0.448904 0.058670
C18   C     C_3   0.449699 0.500372 0.551097 0.059765
C19   C     C_3   0.446689 0.430829 0.413999 -0.132250
C20   C     C_3   0.553312 0.569165 0.586003 -0.132137
C21   C     C_R   0.108489 0.173342 0.838342 -0.125790
C22   C     C_R   0.885643 0.825026 0.162012 -0.127607
C23   C     C_R   0.393012 0.781167 0.888773 0.767710
C24   C     C_R   0.606927 0.218761 0.111616 0.749781
C25   C     C_R   0.099922 0.130289 0.748014 -0.092973
C26   C     C_R   0.896126 0.868135 0.252667 -0.089688
C27   C     C_R   0.024380 0.098098 0.688357 0.147976
C28   C     C_R   0.973527 0.901884 0.311040 0.156068
C29   C     C_R   0.956768 0.107350 0.719604 -0.150002
C30   C     C_R   0.041134 0.894329 0.278135 -0.162355
C31   C     C_R   0.965129 0.149380 0.809759 -0.140919
C32   C     C_R   0.030830 0.852298 0.187627 -0.152886
C33   C     C_R   0.041133 0.182873 0.869193 -0.117778
C34   C     C_R   0.952933 0.817076 0.129509 -0.105792
C35   C     C_R   0.960672 0.943722 0.536202 -0.258529
C36   C     C_R   0.039373 0.056278 0.463653 -0.259312
C37   C     C_R   0.946017 0.892284 0.444428 -0.052511
C38   C     C_R   0.053922 0.107704 0.555426 -0.050873
C39   C     C_R   0.985564 0.949275 0.407340 -0.014688
C40   C     C_R   0.014108 0.050700 0.592415 -0.013798
C41   C     C_R   0.695063 0.837659 0.020026 -0.148387
C42   C     C_R   0.305225 0.159709 0.975987 -0.150734
C43   C     C_R   0.655165 0.739585 0.002480 -0.151733
C44   C     C_R   0.344638 0.257972 0.994132 -0.152313
C45   C     C_R   0.112124 0.501898 0.890850 0.825734
C46   C     C_R   0.888085 0.498383 0.109355 0.804543
C47   C     C_R   0.575180 0.694222 0.020691 0.150315
C48   C     C_R   0.425651 0.305123 0.978006 0.157361
C49   C     C_R   0.535868 0.748323 0.056942 -0.123243
C50   C     C_R   0.466479 0.252562 0.943193 -0.128388
C51   C     C_R   0.576306 0.846641 0.074891 -0.116836
C52   C     C_R   0.426526 0.154044 0.924645 -0.122260
C53   C     C_R   0.655889 0.891336 0.056545 -0.114590
C54   C     C_R   0.345912 0.107608 0.940931 -0.107223
C55   C     C_R   0.586323 0.587898 0.058247 -0.256570
C56   C     C_R   0.413929 0.411762 0.941210 -0.257757
C57   C     C_R   0.551063 0.496169 0.051829 -0.038177
C58   C     C_R   0.449121 0.503557 0.947761 -0.038190
C59   C     C_R   0.464357 0.406503 0.992349 -0.012911
C60   C     C_R   0.536020 0.593068 0.006929 -0.013007
C61   C     C_R   0.222707 0.848568 0.043836 -0.220615
C62   C     C_R   0.765386 0.146487 0.934965 -0.244951
C63   C     C_R   0.181395 0.761165 0.046204 0.569958
C64   C     C_R   0.812519 0.241055 0.943092 0.570683
C65   C     C_R   0.091239 0.677473 0.991533 0.029940
C66   C     C_R   0.902127 0.319063 0.001713 0.031882
C67   C     C_R   0.392455 0.500090 0.607798 0.770401
C68   C     C_R   0.607545 0.499907 0.392202 0.772313
C69   C     C_R   0.043015 0.683597 0.937337 -0.209075
C70   C     C_R   0.942159 0.304084 0.053765 -0.210808
C71   C     C_R   0.084754 0.771110 0.935793 -0.137195
C72   C     C_R   0.893487 0.211586 0.047473 -0.134260
C73   C     C_R   0.174539 0.853445 0.988887 -0.186465
C74   C     C_R   0.805416 0.132731 0.987869 -0.175856
C75   C     C_R   0.988859 0.580421 0.045127 -0.278293
C76   C     C_R   0.012667 0.421328 0.956488 -0.248412
C77   C     C_R   0.944019 0.496964 0.052293 -0.019833
C78   C     C_R   0.057159 0.504458 0.948862 -0.023646
C79   C     C_R   0.955159 0.415650 0.006419 0.062854
C80   C     C_R   0.045262 0.585352 0.993978 0.058757
C81   C     C_R   0.393798 0.501728 0.890381 0.795777
C82   C     C_R   0.606235 0.498202 0.109532 0.792044
C83   C     C_R   0.109081 0.500092 0.607671 0.791491
C84   C     C_R   0.890925 0.499918 0.392334 0.793060
C85   C     C_3   0.014427 0.427329 0.447550 -0.185008
C86   C     C_3   0.985592 0.572719 0.552480 -0.185910
C87   C     C_3   0.041057 0.521430 0.446569 0.055043
C88   C     C_3   0.958965 0.478623 0.553469 0.053720
C89   C     C_3   0.948497 0.500058 0.449397 -0.003375
C90   C     C_3   0.051520 0.499984 0.550632 -0.002185
H1    H     H_    0.047671 0.215915 0.939049 0.128549
H2    H     H_    0.944928 0.784047 0.059402 0.127293
H3    H     H_    0.167139 0.198926 0.884312 0.119269
H4    H     H_    0.825565 0.798212 0.117073 0.119327
H5    H     H_    0.152173 0.122652 0.724615 0.111949
H6    H     H_    0.843877 0.874545 0.277319 0.111914
H7    H     H_    0.897674 0.081735 0.674125 0.129002
H8    H     H_    0.101698 0.921247 0.322562 0.118288
H9    H     H_    0.912751 0.156129 0.833565 0.143626
H10   H     H_    0.083195 0.847033 0.162473 0.125657
H11   H     H_    0.929962 0.900562 0.564894 0.174948
H12   H     H_    0.069979 0.099471 0.434972 0.174847
H13   H     H_    0.687658 0.967783 0.071084 0.115029
H14   H     H_    0.314464 0.031013 0.925913 0.113115
H15   H     H_    0.756772 0.872435 0.006046 0.124496
H16   H     H_    0.242725 0.123558 0.988356 0.123939
H17   H     H_    0.686650 0.699122 0.975084 0.122039
H18   H     H_    0.311988 0.297205 0.020390 0.122334
H19   H     H_    0.474856 0.715022 0.072463 0.111164
H20   H     H_    0.528310 0.287196 0.929240 0.092412
H21   H     H_    0.027342 0.368363 0.404939 0.153761
H22   H     H_    0.972680 0.631686 0.595095 0.153297
H23   H     H_    0.546362 0.888459 0.103943 0.123504
H24   H     H_    0.457645 0.113425 0.896704 0.114072
H25   H     H_    0.652540 0.657104 0.105528 0.161342
H26   H     H_    0.347719 0.342568 0.893893 0.161017
H27   H     H_    0.206810 0.921181 0.987608 0.137652
H28   H     H_    0.768600 0.060262 0.981731 0.137158
H29   H     H_    0.291921 0.913006 0.085168 0.135484
H30   H     H_    0.698685 0.082776 0.886498 0.134991
H31   H     H_    0.973251 0.620360 0.896083 0.160660
H32   H     H_    0.011033 0.364036 0.099015 0.156894
H33   H     H_    0.047406 0.775158 0.893502 0.140202
H34   H     H_    0.924534 0.200424 0.087898 0.138050
H35   H     H_    0.980901 0.643187 0.080420 0.171784
H36   H     H_    0.020003 0.358144 0.920686 0.171132
H37   H     H_    0.854377 0.328777 0.409973 0.140599
H38   H     H_    0.145640 0.671270 0.590069 0.139708
H39   H     H_    0.566702 0.067614 0.913858 0.107780
H40   H     H_    0.432041 0.931086 0.086977 0.137879
H41   H     H_    0.380805 0.933171 0.875368 0.125101
H42   H     H_    0.619044 0.066457 0.125809 0.126273
H43   H     H_    0.403610 0.057467 0.060008 0.135830
H44   H     H_    0.595827 0.942101 0.940936 0.134822
H45   H     H_    0.595513 0.452140 0.528966 0.134280
H46   H     H_    0.404488 0.547853 0.471036 0.134535
H47   H     H_    0.403407 0.327097 0.469291 0.130774
H48   H     H_    0.596594 0.672896 0.530710 0.132851
H49   H     H_    0.403754 0.374028 0.342534 0.145878
H50   H     H_    0.596247 0.625965 0.657468 0.145952
O1    O     O_3   0.251620 0.500000 0.748430 -0.484754
O2    O     O_3   0.748380 0.500000 0.251570 -0.482296
O3    O     O_R   0.134680 0.560740 0.864590 -0.633830
O4    O     O_R   0.865320 0.439260 0.135410 -0.640987
O5    O     O_R   0.306670 0.439270 0.571150 -0.643766
O6    O     O_R   0.693330 0.560730 0.428850 -0.643065
O7    O     O_R   0.135450 0.268370 0.694460 -0.638591
O8    O     O_R   0.864550 0.731630 0.305540 -0.638362
O9    O     O_R   0.429670 0.731610 0.863510 -0.636869
O10   O     O_R   0.570330 0.268390 0.136490 -0.634934
O11   O     O_R   0.134680 0.268390 0.572240 -0.649303
O12   O     O_R   0.865320 0.731610 0.427760 -0.648668
O13   O     O_R   0.306670 0.731630 0.863510 -0.632891
O14   O     O_R   0.693330 0.268370 0.136490 -0.638033
O15   O     O_R   0.135450 0.439270 0.865360 -0.643410
O16   O     O_R   0.864550 0.560730 0.134640 -0.642094
O17   O     O_R   0.429670 0.560710 0.692610 -0.648109
O18   O     O_R   0.570330 0.439290 0.307390 -0.646834
O19   O     O_R   0.308540 0.439240 0.865360 -0.649739
O20   O     O_R   0.691460 0.560760 0.134640 -0.651091
O21   O     O_R   0.133580 0.439310 0.571150 -0.647190
O22   O     O_R   0.866420 0.560690 0.428850 -0.646999
O23   O     O_R   0.430770 0.560690 0.864590 -0.634705
O24   O     O_R   0.569230 0.439310 0.135410 -0.634002
O25   O     O_R   0.133580 0.560760 0.692610 -0.637002
O26   O     O_R   0.866420 0.439240 0.307390 -0.635362
Zn1   Zn    Zn3+2 0.207400 0.586780 0.791530 0.992360
Zn2   Zn    Zn3+2 0.792600 0.413220 0.208470 0.975261
Zn3   Zn    Zn3+2 0.208510 0.413230 0.792630 0.975936
Zn4   Zn    Zn3+2 0.791490 0.586770 0.207370 0.966325
Zn5   Zn    Zn3+2 0.383150 0.586740 0.791530 0.972022
Zn6   Zn    Zn3+2 0.616850 0.413260 0.208470 0.966971
Zn7   Zn    Zn3+2 0.207400 0.413250 0.618010 0.958445
Zn8   Zn    Zn3+2 0.792600 0.586750 0.381990 0.959795
C91   C     C_1   0.085610 0.544672 0.386688 0.135482
N1    N     N_1   0.120602 0.562894 0.339348 -0.221377
C92   C     C_1   0.914459 0.455480 0.613414 0.137679
N2    N     N_1   0.879512 0.437356 0.660818 -0.213847
O27   O     O_3   0.230401 0.754879 0.097883 -0.624679
C93   C     C_3   0.233719 0.811992 0.186913 -0.377814
H51   H     H_    0.164853 0.779963 0.192362 0.166041
H52   H     H_    0.269500 0.895728 0.215078 0.156024
H53   H     H_    0.271988 0.805733 0.228127 0.208591
O28   O     O_3   0.776598 0.256235 0.889161 -0.616924
C94   C     C_3   0.690572 0.233339 0.892946 -0.354327
H54   H     H_    0.685921 0.258747 0.961221 0.147098
H55   H     H_    0.637818 0.149361 0.843274 0.161728
H56   H     H_    0.676952 0.275758 0.874253 0.194835

loop_
_geom_bond_atom_site_label_1
_geom_bond_atom_site_label_2
_ccdc_geom_bond_type
O1    Zn7   S    
C63   C65   A    
O11   Zn7   S    
C61   H29   S    
C76   H36   S    
C76   C79   A    
C50   H20   S    
C6    C9    S    
C84   O22   A    
C88   C92   S    
O2    Zn8   S    
C4    C87   S    
C66   C79   S    
C83   O25   A    
C51   H23   S    
C41   H15   S    
C13   C18   S    
O4    Zn2   S    
C81   O19   A    
C54   H14   S    
C35   C37   A    
C76   C78   A    
C5    C11   S    
C11   H43   S    
C6    C12   S    
C3    H37   S    
C94   H55   S    
C15   H45   S    
C58   C60   A    
O1    Zn5   S    
C63   O27   S    
O28   C94   S    
C18   C20   S    
C36   H12   S    
C22   H4    S    
C5    H41   S    
O16   Zn4   S    
C69   C71   A    
C70   H32   S    
C62   C64   A    
C47   C60   S    
C38   C40   A    
O10   Zn6   S    
C14   H48   S    
C52   C54   A    
C49   C51   A    
C67   O5    A    
O8    Zn4   S    
C31   C33   A    
C45   C78   S    
C45   O15   A    
C21   C33   A    
C31   H9    S    
O23   Zn5   S    
C75   C80   A    
C41   C43   A    
C62   H30   S    
C93   H53   S    
O2    Zn4   S    
C64   O28   S    
O12   Zn8   S    
C85   C87   S    
C23   O9    A    
O25   Zn1   S    
C65   C80   S    
C12   H44   S    
C55   C60   A    
C72   H34   S    
O26   Zn2   S    
C81   O23   A    
C14   C17   S    
O14   Zn2   S    
C15   C20   S    
C42   C44   A    
C68   O18   A    
O24   Zn6   S    
C10   C12   S    
C24   O14   A    
C4    C90   S    
C44   H18   S    
C26   H6    S    
C7    C12   S    
C22   C34   A    
C33   H1    S    
O1    Zn1   S    
C73   H27   S    
C4    H38   S    
C14   C20   S    
C72   C74   A    
C58   C81   S    
C5    C7    S    
C13   C19   S    
C74   H28   S    
C6    C8    S    
C28   C39   S    
C35   H11   S    
C18   C67   S    
C36   C39   A    
C32   H10   S    
C51   C53   A    
C32   C34   A    
C86   H22   S    
O13   Zn1   S    
C82   O20   A    
O15   Zn3   S    
C50   C52   A    
C91   N1    T    
C13   C15   S    
C69   H31   S    
C27   C40   S    
C29   C31   A    
C41   C53   A    
C2    O12   A    
O1    Zn3   S    
C56   H26   S    
C77   C79   A    
C67   O17   A    
C16   C18   S    
C43   H17   S    
C9    C11   S    
O3    Zn1   S    
C24   O10   A    
C1    C38   S    
C6    H42   S    
C13   H47   S    
O5    Zn7   S    
C25   H5    S    
C23   O13   A    
C8    H40   S    
C14   C16   S    
C3    C85   S    
C1    O7    A    
C57   C59   A    
C25   C27   A    
C84   C89   S    
C36   C38   A    
C16   H46   S    
C78   C80   A    
C68   O6    A    
C93   H51   S    
C48   C59   S    
O2    Zn6   S    
C71   H33   S    
C7    C9    S    
C83   C90   S    
C21   C25   A    
C17   C68   S    
C93   H52   S    
C3    C88   S    
O9    Zn5   S    
C61   C63   A    
O21   Zn7   S    
C88   C90   S    
C43   C47   A    
C94   H56   S    
C86   C89   S    
C46   C77   S    
C46   O4    A    
C85   C90   S    
C9    C24   S    
C15   C17   S    
O22   Zn8   S    
C52   H24   S    
C10   C23   S    
C47   C49   A    
C87   C91   S    
C30   H8    S    
C26   C28   A    
C21   H3    S    
C56   C59   A    
C29   H7    S    
C3    C89   S    
C61   C73   A    
C20   H50   S    
C55   C57   A    
C35   C40   A    
C49   H19   S    
C28   C30   A    
C37   C39   A    
C44   C48   A    
C42   C54   A    
C30   C32   A    
C55   H25   S    
C2    C37   S    
O18   Zn6   S    
C94   H54   S    
C66   C70   A    
C27   C29   A    
C53   H13   S    
C8    C11   S    
C65   C69   A    
O6    Zn8   S    
C48   C50   A    
C17   C19   S    
C56   C58   A    
C1    O11   A    
C86   C88   S    
C83   O21   A    
C34   H2    S    
C7    H39   S    
C84   O26   A    
O2    Zn2   S    
O27   C93   S    
C42   H16   S    
C82   O24   A    
C85   H21   S    
C5    C10   S    
C4    C86   S    
C8    C10   S    
C92   N2    T    
C22   C26   A    
C75   C77   A    
C71   C73   A    
O17   Zn5   S    
C45   O3    A    
C87   C89   S    
O20   Zn4   S    
C57   C82   S    
C62   C74   A    
C70   C72   A    
C75   H35   S    
C2    O8    A    
C19   H49   S    
O19   Zn3   S    
O7    Zn3   S    
C64   C66   A    
C46   O16   A    
C16   C19   S    
