data_mof_unit_67880.cif
_audit_creation_date              2012-12-10T16:55:49-0500
_audit_creation_method            fapswitch 2.2
_symmetry_space_group_name_H-M    P1
_symmetry_Int_Tables_number       1
_space_group_crystal_system       triclinic
_cell_length_a                    7.758437
_cell_length_b                    8.669945
_cell_length_c                    10.483701
_cell_angle_alpha                 91.242625
_cell_angle_beta                  86.082592
_cell_angle_gamma                 93.518714
_cell_volume                      702.106176355

loop_
_atom_site_label
_atom_site_type_symbol
_atom_type_description
_atom_site_fract_x
_atom_site_fract_y
_atom_site_fract_z
_atom_type_partial_charge
C1    C     C_R   0.545675 0.794126 0.498831 0.873976
C2    C     C_3   0.505868 0.504512 0.877199 -0.107329
C3    C     C_3   0.331964 0.485381 0.046073 -0.242649
C4    C     C_3   0.666979 0.518252 0.954288 -0.243626
C5    C     C_2   0.571355 0.956876 0.503608 0.189468
C6    C     C_2   0.432258 0.043552 0.492035 0.189165
C7    C     C_3   0.819393 0.990900 0.619427 0.095129
C8    C     C_3   0.729516 0.063986 0.738802 -0.419759
C9    C     C_3   0.834883 0.047729 0.854856 -0.809153
C10   C     C_3   0.238299 0.947732 0.348962 0.117203
C11   C     C_3   0.153574 0.079660 0.287358 -0.401762
C12   C     C_R   0.455032 0.205824 0.501284 0.910522
C13   C     C_3   0.097470 0.031782 0.155008 -0.809393
C14   C     C_R   0.502928 0.503683 0.742416 0.921950
C15   C     C_R   0.497118 0.497958 0.257605 0.921825
C16   C     C_3   0.411932 0.621588 0.964144 -0.253129
C17   C     C_3   0.586780 0.381952 0.036069 -0.256791
C18   C     C_3   0.571963 0.633479 0.043303 0.443080
C19   C     C_3   0.426679 0.370139 0.956995 0.449725
C20   C     C_3   0.493208 0.499015 0.122984 -0.106337
Cl1   Cl    Cl    0.661615 0.809091 0.108931 -0.716104
Cl2   Cl    Cl    0.332898 0.196512 0.890651 -0.719266
H1    H     H_    0.343493 0.720326 0.930515 0.186183
H2    H     H_    0.599475 0.005116 0.758544 0.244296
H3    H     H_    0.861088 0.924749 0.868069 0.280383
H4    H     H_    0.761638 0.089522 0.941807 0.292711
H5    H     H_    0.959573 0.117411 0.842603 0.291721
H6    H     H_    0.149330 0.842380 0.346147 0.199000
H7    H     H_    0.359041 0.919411 0.291307 0.153005
H8    H     H_    0.038196 0.111831 0.348405 0.267895
H9    H     H_    0.246757 0.181933 0.278155 0.212976
H10   H     H_    0.209991 0.994443 0.093440 0.297871
H11   H     H_    0.041837 0.130752 0.110255 0.278234
H12   H     H_    0.654607 0.284873 0.072778 0.177550
H13   H     H_    0.997966 0.934470 0.162602 0.301561
H14   H     H_    0.196453 0.470210 0.087335 0.176872
H15   H     H_    0.802563 0.533087 0.913146 0.177687
H16   H     H_    0.014194 0.384968 0.402738 0.189752
H17   H     H_    0.986009 0.615713 0.596874 0.187149
H18   H     H_    0.954370 0.041871 0.608820 0.227366
H19   H     H_    0.830309 0.865704 0.633741 0.143058
H20   H     H_    0.714287 0.188500 0.723194 0.270951
N1    N     N_2   0.950320 0.457950 0.465730 -0.164241
N2    N     N_2   0.049680 0.542050 0.534270 -0.168519
O1    O     O_R   0.389250 0.738570 0.508410 -0.603338
O2    O     O_3   0.264040 0.982546 0.479346 -0.647005
O3    O     O_R   0.610750 0.261430 0.491590 -0.591815
O4    O     O_R   0.678390 0.711620 0.486450 -0.611195
O5    O     O_R   0.321610 0.288380 0.513550 -0.601978
O6    O     O_R   0.355460 0.513510 0.697030 -0.595687
O7    O     O_R   0.644540 0.486490 0.302970 -0.597747
O8    O     O_R   0.644600 0.486560 0.675070 -0.653758
O9    O     O_R   0.355400 0.513440 0.324930 -0.655044
O10   O     O_3   0.740641 0.022004 0.505141 -0.628080
Zn1   Zn    Zn3+2 0.306940 0.517990 0.514670 0.965721
Zn2   Zn    Zn3+2 0.693060 0.482010 0.485330 0.969725

loop_
_geom_bond_atom_site_label_1
_geom_bond_atom_site_label_2
_ccdc_geom_bond_type
C10   O2    S    
C2    C4    S    
N1    N2    D    
C1    O4    A    
C13   H11   S    
H17   N2    S    
C15   O7    A    
C18   Cl1   S    
C2    C16   S    
N1    Zn2   S    
C13   H10   S    
O6    Zn1   S    
N2    Zn1   S    
C9    H5    S    
C7    H18   S    
C4    C18   S    
C19   Cl2   S    
C7    H19   S    
C12   O5    A    
C11   H9    S    
C3    C20   S    
C3    C19   S    
C5    C6    D    
C11   C13   S    
C10   H7    S    
C1    O1    A    
C14   O6    A    
C3    H14   S    
C12   O3    A    
C1    C5    S    
C4    C17   S    
C15   O9    A    
C17   C19   S    
C8    H20   S    
C9    H4    S    
C13   H13   S    
C16   H1    S    
C18   C20   S    
O9    Zn1   S    
C6    C12   S    
C15   C20   S    
C2    C14   S    
C7    C8    S    
C10   C11   S    
C9    H3    S    
C5    O10   S    
H16   N1    S    
C17   C20   S    
C4    H15   S    
O1    Zn1   S    
C16   C18   S    
O7    Zn2   S    
C17   H12   S    
C10   H6    S    
O4    Zn2   S    
C8    C9    S    
C6    O2    S    
C7    O10   S    
C8    H2    S    
C2    C19   S    
O5    Zn1   S    
C14   O8    A    
C3    C16   S    
O8    Zn2   S    
C11   H8    S    
O3    Zn2   S    
