data_mof_unit_41614.cif
_audit_creation_date              2012-12-10T17:10:29-0500
_audit_creation_method            fapswitch 2.2
_symmetry_space_group_name_H-M    P1
_symmetry_Int_Tables_number       1
_space_group_crystal_system       triclinic
_cell_length_a                    10.781878
_cell_length_b                    12.998059
_cell_length_c                    11.756555
_cell_angle_alpha                 100.222984
_cell_angle_beta                  94.403009
_cell_angle_gamma                 91.428549
_cell_volume                      1615.41416682

loop_
_atom_site_label
_atom_site_type_symbol
_atom_type_description
_atom_site_fract_x
_atom_site_fract_y
_atom_site_fract_z
_atom_type_partial_charge
C1    C     C_R   0.497623 0.299097 0.478369 0.771278
C2    C     C_R   0.490429 0.860012 0.434508 -0.268672
C3    C     C_R   0.507835 0.031841 0.555544 0.170332
C4    C     C_R   0.492165 0.968158 0.444456 0.170332
C5    C     C_R   0.376471 0.407526 0.017903 -0.321543
C6    C     C_R   0.623529 0.592474 0.982097 -0.321543
C7    C     C_R   0.386098 0.415140 0.139669 0.370008
C8    C     C_R   0.613902 0.584860 0.860331 0.370008
C9    C     C_R   0.554848 0.539307 0.157894 -0.003710
C10   C     C_R   0.445152 0.460693 0.842106 -0.003710
C11   C     C_R   0.544961 0.533321 0.035357 0.027001
C12   C     C_R   0.502377 0.700903 0.521631 0.771277
C13   C     C_R   0.455039 0.466679 0.964643 0.027001
C14   C     C_R   0.262968 0.500179 0.499783 0.800185
C15   C     C_R   0.737032 0.499821 0.500217 0.800186
C16   C     C_R   0.120977 0.306897 0.466772 -0.165047
C17   C     C_R   0.879023 0.693103 0.533227 -0.165047
C18   C     C_R   0.052261 0.212480 0.450878 -0.145102
C19   C     C_R   0.947738 0.787520 0.549119 -0.145103
C20   C     C_R   0.923355 0.212348 0.451330 -0.141553
C21   C     C_R   0.076644 0.787651 0.548666 -0.141553
C22   C     C_R   0.862692 0.306642 0.467641 -0.144386
C23   C     C_R   0.504130 0.814557 0.534066 -0.055901
C24   C     C_R   0.137307 0.693358 0.532358 -0.144386
C25   C     C_R   0.930609 0.403541 0.483771 0.064839
C26   C     C_R   0.069391 0.596458 0.516228 0.064839
C27   C     C_R   0.061208 0.403660 0.483219 0.066647
C28   C     C_R   0.938792 0.596340 0.516781 0.066647
C29   C     C_R   0.870881 0.499891 0.500630 -0.179462
C30   C     C_R   0.129119 0.500109 0.499369 -0.179462
C31   C     C_3   0.708828 0.652543 0.815588 -0.378378
C32   C     C_3   0.839820 0.610850 0.827566 -0.824647
C33   C     C_3   0.291172 0.347457 0.184412 -0.378379
C34   C     C_R   0.495870 0.185443 0.465934 -0.055900
C35   C     C_3   0.160180 0.389150 0.172433 -0.824647
C36   C     C_R   0.478471 0.013586 0.345056 -0.219430
C37   C     C_R   0.521529 0.986414 0.654944 -0.219430
C38   C     C_R   0.480309 0.121879 0.355737 -0.208656
C39   C     C_R   0.519691 0.878121 0.644263 -0.208655
C40   C     C_R   0.509571 0.139988 0.565492 -0.268672
Cu1   Cu    Cu3+1 0.509250 0.507730 0.615930 0.927149
Cu2   Cu    Cu3+1 0.490750 0.492270 0.384070 0.927149
H1    H     H_    0.129922 0.861053 0.560856 0.138464
H2    H     H_    0.237565 0.697291 0.532435 0.127844
H3    H     H_    0.478268 0.811474 0.349011 0.156679
H4    H     H_    0.521732 0.188526 0.650989 0.156679
H5    H     H_    0.530702 0.844286 0.722078 0.154534
H6    H     H_    0.469298 0.155714 0.277922 0.154534
H7    H     H_    0.466322 0.965490 0.259382 0.135829
H8    H     H_    0.533678 0.034510 0.740618 0.135829
H9    H     H_    0.375271 0.408771 0.788377 0.131265
H10   H     H_    0.624729 0.591229 0.211623 0.131265
H11   H     H_    0.872650 0.615857 0.920296 0.238462
H12   H     H_    0.870078 0.138947 0.439139 0.138464
H13   H     H_    0.841216 0.528099 0.783137 0.271383
H14   H     H_    0.905540 0.658383 0.787839 0.248769
H15   H     H_    0.688248 0.662239 0.726081 0.248025
H16   H     H_    0.709576 0.733332 0.866522 0.160594
H17   H     H_    0.158783 0.471901 0.216863 0.271383
H18   H     H_    0.127350 0.384143 0.079703 0.238462
H19   H     H_    0.094460 0.341616 0.212161 0.248770
H20   H     H_    0.290424 0.266668 0.133478 0.160594
H21   H     H_    0.311751 0.337761 0.273919 0.248025
H22   H     H_    0.306454 0.355125 0.964581 0.142480
H23   H     H_    0.693546 0.644874 0.035419 0.142480
H24   H     H_    0.221011 0.303144 0.465986 0.116824
H25   H     H_    0.778989 0.696855 0.534012 0.116824
H26   H     H_    0.099289 0.139186 0.438311 0.137421
H27   H     H_    0.900710 0.860813 0.561685 0.137422
H28   H     H_    0.762435 0.302709 0.467563 0.127844
N1    N     N_R   0.523180 0.519350 0.790130 -0.194134
N2    N     N_R   0.476820 0.480650 0.209870 -0.194134
O1    O     O_R   0.506570 0.354460 0.582000 -0.583382
O2    O     O_R   0.493430 0.645540 0.418000 -0.583381
O3    O     O_R   0.490940 0.341410 0.386200 -0.610451
O4    O     O_R   0.509060 0.658590 0.613800 -0.610451
O5    O     O_R   0.327470 0.506520 0.597900 -0.577305
O6    O     O_R   0.672530 0.493480 0.402100 -0.577305
O7    O     O_R   0.311840 0.493460 0.402100 -0.584253
O8    O     O_R   0.688160 0.506540 0.597900 -0.584253

loop_
_geom_bond_atom_site_label_1
_geom_bond_atom_site_label_2
_ccdc_geom_bond_type
C4    C36   A    
C12   O2    A    
Cu1   Cu2   S    
C9    N2    A    
Cu1   O8    S    
C40   H4    S    
C12   C23   S    
Cu2   O3    S    
C34   C40   A    
C31   H16   S    
C28   C29   A    
C19   C21   A    
C24   C26   A    
Cu1   O5    S    
C15   O6    A    
C18   H26   S    
C35   H17   S    
C14   O5    A    
C17   C19   A    
C21   H1    S    
C6    H23   S    
C15   O8    A    
C33   H20   S    
C22   C25   A    
C32   H13   S    
C5    C13   A    
Cu1   N1    S    
C10   N1    A    
C16   C27   A    
Cu2   O7    S    
C27   C30   A    
C7    C33   S    
C9    H10   S    
C14   C30   S    
C10   H9    S    
C1    C34   S    
C15   C29   S    
C2    H3    S    
C25   C29   A    
C17   H25   S    
Cu2   O2    S    
C1    O3    A    
C20   H12   S    
C6    C11   A    
C5    C7    A    
C6    C8    A    
C5    H22   S    
C35   H18   S    
C2    C4    A    
C31   C32   S    
C33   H21   S    
Cu2   N2    S    
C35   H19   S    
C14   O7    A    
C9    C11   A    
C20   C22   A    
C3    C40   A    
Cu2   O6    S    
C12   O4    A    
C24   H2    S    
C19   H27   S    
C16   H24   S    
C3    C4    A    
C32   H11   S    
C7    N2    A    
C39   H5    S    
C8    N1    A    
C34   C38   A    
C17   C28   A    
C38   H6    S    
C10   C13   A    
C26   C30   A    
C25   C27   A    
C26   C28   A    
C1    O1    A    
C31   H15   S    
C36   C38   A    
C37   C39   A    
Cu1   O4    S    
C37   H8    S    
C11   C13   A    
C23   C39   A    
C33   C35   S    
C32   H14   S    
C18   C20   A    
C36   H7    S    
Cu1   O1    S    
C3    C37   A    
C16   C18   A    
C21   C24   A    
C2    C23   A    
C22   H28   S    
C8    C31   S    
