data_mof_unit_31981.cif
_audit_creation_date              2012-12-11T16:19:10-0500
_audit_creation_method            fapswitch 2.2
_symmetry_space_group_name_H-M    P1
_symmetry_Int_Tables_number       1
_space_group_crystal_system       triclinic
_cell_length_a                    6.957946
_cell_length_b                    31.492094
_cell_length_c                    34.927892
_cell_angle_alpha                 89.961201
_cell_angle_beta                  90.376013
_cell_angle_gamma                 89.963013
_cell_volume                      7653.24162431

loop_
_atom_site_label
_atom_site_type_symbol
_atom_type_description
_atom_site_fract_x
_atom_site_fract_y
_atom_site_fract_z
_atom_type_partial_charge
O1    O     O_R   0.417270 0.211480 0.210950 -0.517609
O2    O     O_R   0.582730 0.788520 0.789050 -0.516833
O3    O     O_R   0.582730 0.788520 0.710950 -0.538109
O4    O     O_R   0.417270 0.211480 0.289050 -0.516144
O5    O     O_R   0.917270 0.288520 0.289050 -0.512894
O6    O     O_R   0.082730 0.711480 0.710950 -0.545388
O7    O     O_R   0.082730 0.711480 0.789050 -0.517638
O8    O     O_R   0.917270 0.288520 0.210950 -0.516956
O9    O     O_R   0.746940 0.206370 0.288750 -0.548827
O10   O     O_R   0.253060 0.793630 0.711250 -0.519743
O11   O     O_R   0.253060 0.793630 0.788750 -0.544949
O12   O     O_R   0.746940 0.206370 0.211250 -0.545958
O13   O     O_R   0.246940 0.293630 0.211250 -0.546103
O14   O     O_R   0.753060 0.706370 0.788750 -0.545243
O15   O     O_R   0.753060 0.706370 0.711250 -0.535018
O16   O     O_R   0.246940 0.293630 0.288750 -0.543558
C1    C     C_R   0.578580 0.196261 0.302235 0.738160
C2    C     C_R   0.421697 0.804232 0.698145 0.729991
C3    C     C_R   0.422261 0.803485 0.802348 0.735490
C4    C     C_R   0.577739 0.196515 0.197652 0.733106
C5    C     C_R   0.077685 0.303482 0.197662 0.733754
C6    C     C_R   0.922321 0.696509 0.802332 0.731028
C7    C     C_R   0.921112 0.696195 0.698166 0.744820
C8    C     C_R   0.078393 0.303595 0.302301 0.731103
O17   O     O_3   0.583760 0.276950 0.250000 -0.361759
O18   O     O_3   0.416240 0.723050 0.750000 -0.372315
O19   O     O_3   0.083760 0.223050 0.250000 -0.368302
O20   O     O_3   0.916240 0.776950 0.750000 -0.362755
V1    V     V_3+5 0.858600 0.245000 0.250000 1.462721
V2    V     V_3+5 0.141400 0.755000 0.750000 1.459938
V3    V     V_3+5 0.358600 0.255000 0.250000 1.470996
V4    V     V_3+5 0.641400 0.745000 0.750000 1.451934
C9    C     C_R   0.824704 0.567409 0.551170 0.646988
C10   C     C_R   0.193867 0.430323 0.451018 0.638836
C11   C     C_R   0.053481 0.412712 0.037684 0.596631
C12   C     C_R   0.946488 0.587217 0.962259 0.596823
C13   C     C_R   0.447759 0.912710 0.962354 0.596366
C14   C     C_R   0.552359 0.087279 0.037651 0.596389
C15   C     C_R   0.569683 0.088436 0.462676 0.594383
C16   C     C_R   0.494222 0.914856 0.541033 0.591821
N1    N     N_R   0.976725 0.573339 0.575978 -0.565542
N2    N     N_R   0.049164 0.427757 0.424225 -0.559726
N3    N     N_R   0.042587 0.426212 0.074906 -0.557295
N4    N     N_R   0.957406 0.573720 0.925037 -0.557106
N5    N     N_R   0.457294 0.926241 0.925099 -0.557386
N6    N     N_R   0.542815 0.073748 0.074906 -0.557373
N7    N     N_R   0.562816 0.073977 0.425692 -0.558279
N8    N     N_R   0.495188 0.929409 0.578007 -0.557707
C17   C     C_R   0.143702 0.550467 0.571276 0.616751
C18   C     C_R   0.891918 0.454074 0.426297 0.622190
C19   C     C_R   0.017572 0.468374 0.083373 0.607610
C20   C     C_R   0.982419 0.531557 0.916570 0.606595
C21   C     C_R   0.481006 0.968450 0.916607 0.608894
C22   C     C_R   0.519114 0.031538 0.083399 0.608821
C23   C     C_R   0.549783 0.031381 0.417951 0.608741
C24   C     C_R   0.515821 0.971854 0.585785 0.606224
C25   C     C_R   0.158988 0.519353 0.542094 -0.115827
C26   C     C_R   0.871629 0.483179 0.456907 -0.109510
C27   C     C_R   0.001938 0.499030 0.053745 -0.115461
C28   C     C_R   0.998035 0.500900 0.946197 -0.115040
C29   C     C_R   0.496640 0.999100 0.946221 -0.116227
C30   C     C_R   0.503489 0.000889 0.053785 -0.116203
C31   C     C_R   0.541476 0.001256 0.448112 -0.117027
C32   C     C_R   0.535453 0.001764 0.555665 -0.118120
C33   C     C_R   0.007279 0.515270 0.515299 -0.092761
C34   C     C_R   0.020847 0.486115 0.484439 -0.090914
C35   C     C_R   0.009243 0.485190 0.015251 -0.078632
C36   C     C_R   0.990723 0.514740 0.984692 -0.078617
C37   C     C_R   0.490766 0.985221 0.984733 -0.078377
C38   C     C_R   0.509364 0.014768 0.015273 -0.078382
C39   C     C_R   0.545192 0.016018 0.486361 -0.079320
C40   C     C_R   0.531427 0.987018 0.517412 -0.079015
C41   C     C_R   0.840888 0.540054 0.519511 -0.043211
C42   C     C_R   0.183614 0.459854 0.481227 -0.036656
C43   C     C_R   0.035722 0.441797 0.007235 -0.065849
C44   C     C_R   0.964240 0.558133 0.992708 -0.065893
C45   C     C_R   0.465638 0.941791 0.992784 -0.065806
C46   C     C_R   0.534491 0.058197 0.007221 -0.065812
C47   C     C_R   0.560840 0.059834 0.493631 -0.065365
C48   C     C_R   0.511910 0.943284 0.510122 -0.065050
C49   C     C_R   0.320573 0.492180 0.538917 0.462570
C50   C     C_R   0.707599 0.509502 0.460693 0.456351
C51   C     C_R   0.979252 0.542947 0.061327 0.462073
C52   C     C_R   0.020716 0.456983 0.938616 0.462236
C53   C     C_R   0.517957 0.043055 0.938609 0.461448
C54   C     C_R   0.482178 0.956934 0.061397 0.461520
C55   C     C_R   0.529065 0.956982 0.441305 0.461730
C56   C     C_R   0.558741 0.045820 0.562508 0.460067
C57   C     C_R   0.331733 0.463169 0.508520 -0.205058
C58   C     C_R   0.692244 0.536694 0.492350 -0.207585
C59   C     C_R   0.956766 0.571696 0.030923 -0.226780
C60   C     C_R   0.043192 0.428233 0.969020 -0.226806
C61   C     C_R   0.540532 0.071799 0.968985 -0.226514
C62   C     C_R   0.459602 0.928189 0.031021 -0.226547
C63   C     C_R   0.510342 0.928762 0.472154 -0.229448
C64   C     C_R   0.566878 0.074262 0.531618 -0.226284
O21   O     O_2   0.656354 0.587518 0.557194 -0.497356
O22   O     O_2   0.346151 0.403895 0.448914 -0.524648
O23   O     O_2   0.081774 0.371169 0.030107 -0.525702
O24   O     O_2   0.918181 0.628761 0.969838 -0.525654
O25   O     O_2   0.420667 0.871137 0.969993 -0.525678
O26   O     O_2   0.579446 0.128852 0.030013 -0.525656
O27   O     O_2   0.585836 0.130453 0.469529 -0.528576
O28   O     O_2   0.477330 0.872857 0.534149 -0.529888
O29   O     O_2   0.295971 0.558316 0.594250 -0.471600
O30   O     O_2   0.756599 0.452339 0.398510 -0.494044
O31   O     O_2   0.005071 0.480374 0.120328 -0.488411
O32   O     O_2   0.994939 0.519559 0.879615 -0.490011
O33   O     O_2   0.492260 0.980515 0.879639 -0.486055
O34   O     O_2   0.507857 0.019474 0.120367 -0.486184
O35   O     O_2   0.541895 0.018410 0.381190 -0.485612
O36   O     O_2   0.514540 0.984996 0.622516 -0.486119
H1    H     H_    0.459045 0.443524 0.506274 0.173052
H2    H     H_    0.561698 0.555048 0.495634 0.171282
H3    H     H_    0.934390 0.604920 0.037585 0.181192
H4    H     H_    0.065564 0.395010 0.962358 0.181183
H5    H     H_    0.561829 0.105052 0.962283 0.181346
H6    H     H_    0.438306 0.894937 0.037723 0.181321
H7    H     H_    0.494489 0.895224 0.466031 0.179393
H8    H     H_    0.577978 0.107897 0.537722 0.180831
C65   C     C_R   0.216753 0.393732 0.369507 -0.085529
C66   C     C_R   0.022191 0.594370 0.644454 -0.067904
C67   C     C_R   0.795969 0.604565 0.867996 -0.094002
C68   C     C_R   0.204097 0.395376 0.131943 -0.092916
C69   C     C_R   0.704362 0.104581 0.131947 -0.091377
C70   C     C_R   0.295692 0.895413 0.868063 -0.091364
C71   C     C_R   0.623566 0.891687 0.634891 -0.109699
C72   C     C_R   0.721546 0.106262 0.369469 -0.090172
H9    H     H_    0.335129 0.415775 0.372740 0.181162
H10   H     H_    0.078571 0.563187 0.651162 0.148848
H11   H     H_    0.682701 0.581167 0.870369 0.139834
H12   H     H_    0.317379 0.418769 0.129556 0.140340
H13   H     H_    0.817762 0.081185 0.129576 0.141206
H14   H     H_    0.182303 0.918810 0.870439 0.141264
H15   H     H_    0.757473 0.908911 0.632222 0.129608
H16   H     H_    0.841998 0.084838 0.373226 0.136048
C73   C     C_R   0.222865 0.363298 0.340305 -0.287458
C74   C     C_R   0.012227 0.624676 0.673729 -0.272282
C75   C     C_R   0.788300 0.634664 0.838489 -0.274006
C76   C     C_R   0.211766 0.365294 0.161463 -0.270978
C77   C     C_R   0.711987 0.134665 0.161452 -0.268636
C78   C     C_R   0.288034 0.865331 0.838557 -0.268314
C79   C     C_R   0.604160 0.861200 0.663825 -0.258898
C80   C     C_R   0.724257 0.136064 0.339673 -0.272089
H17   H     H_    0.347030 0.362607 0.321779 0.159052
H18   H     H_    0.065864 0.616656 0.702014 0.134987
H19   H     H_    0.669338 0.633473 0.818363 0.154461
H20   H     H_    0.330750 0.366491 0.181584 0.155082
H21   H     H_    0.831025 0.133449 0.181562 0.155663
H22   H     H_    0.168983 0.866550 0.818451 0.156312
H23   H     H_    0.723450 0.856183 0.683376 0.155643
H24   H     H_    0.846878 0.136563 0.320745 0.147440
C81   C     C_R   0.069233 0.334862 0.334385 -0.092183
C82   C     C_R   0.928621 0.664527 0.666958 -0.081885
C83   C     C_R   0.933131 0.665582 0.834619 -0.093855
C84   C     C_R   0.066896 0.334388 0.165356 -0.093468
C85   C     C_R   0.567045 0.165597 0.165346 -0.093688
C86   C     C_R   0.432966 0.834398 0.834657 -0.094471
C87   C     C_R   0.433783 0.837424 0.667605 -0.080419
C88   C     C_R   0.570715 0.164686 0.334172 -0.101529
C89   C     C_R   0.908923 0.337123 0.359309 0.249013
C90   C     C_R   0.855225 0.673831 0.630150 0.223248
C91   C     C_R   0.085366 0.666378 0.861970 0.254359
C92   C     C_R   0.914651 0.333579 0.138008 0.254595
C93   C     C_R   0.414783 0.166419 0.137990 0.254783
C94   C     C_R   0.585245 0.833571 0.862008 0.254802
C95   C     C_R   0.280162 0.845810 0.641859 0.234766
C96   C     C_R   0.413725 0.162943 0.359843 0.242583
C97   C     C_R   0.906315 0.367394 0.388835 -0.159540
C98   C     C_R   0.881806 0.644745 0.600147 -0.143575
C99   C     C_R   0.092612 0.635430 0.891016 -0.160895
C100  C     C_R   0.907408 0.364511 0.108946 -0.160144
C101  C     C_R   0.407562 0.135483 0.108952 -0.159637
C102  C     C_R   0.592500 0.864505 0.891047 -0.159611
C103  C     C_R   0.300315 0.876905 0.613211 -0.154185
C104  C     C_R   0.411209 0.132400 0.389233 -0.149681
H25   H     H_    0.784768 0.368451 0.408050 0.157140
H26   H     H_    0.836380 0.653614 0.571535 0.141301
H27   H     H_    0.209172 0.635849 0.911736 0.132645
H28   H     H_    0.790827 0.364086 0.088232 0.132559
H29   H     H_    0.290911 0.135938 0.088253 0.132812
H30   H     H_    0.709168 0.864047 0.911742 0.132775
H31   H     H_    0.183026 0.882684 0.593317 0.132016
H32   H     H_    0.290415 0.131202 0.408624 0.138706
C105  C     C_R   0.058287 0.396100 0.394092 0.311426
C106  C     C_R   0.961151 0.604246 0.606924 0.314265
C107  C     C_R   0.948670 0.604606 0.894370 0.333731
C108  C     C_R   0.051365 0.395329 0.105576 0.333201
C109  C     C_R   0.551580 0.104633 0.105575 0.332164
C110  C     C_R   0.448495 0.895357 0.894430 0.332174
C111  C     C_R   0.472429 0.899491 0.609127 0.342231
C112  C     C_R   0.565000 0.104205 0.394468 0.331504
O37   O     O_3   0.473384 0.495155 0.564283 -0.519119
C113  C     C_3   0.462675 0.461249 0.590547 -0.167873
H33   H     H_    0.323313 0.461341 0.606071 0.127677
H34   H     H_    0.578857 0.465165 0.612155 0.166139
H35   H     H_    0.485445 0.430161 0.576158 0.111309
O38   O     O_3   0.553106 0.505549 0.435774 -0.526324
C114  C     C_3   0.538467 0.542591 0.413238 -0.171516
H36   H     H_    0.428168 0.537188 0.390692 0.167725
H37   H     H_    0.676347 0.549908 0.398602 0.134404
H38   H     H_    0.490565 0.570185 0.430562 0.109351
O39   O     O_3   0.968176 0.557952 0.098442 -0.525938
C115  C     C_3   0.146052 0.576536 0.108356 -0.128790
H39   H     H_    0.266605 0.553512 0.105285 0.138827
H40   H     H_    0.141087 0.586245 0.138856 0.170581
H41   H     H_    0.173968 0.605544 0.091074 0.113432
O40   O     O_3   0.031799 0.441979 0.901500 -0.526173
C116  C     C_3   0.853914 0.423400 0.891583 -0.131120
H42   H     H_    0.858889 0.413690 0.861084 0.169730
H43   H     H_    0.733377 0.446429 0.894652 0.138829
H44   H     H_    0.825968 0.394394 0.908866 0.114042
O41   O     O_3   0.527554 0.058117 0.901476 -0.525440
C117  C     C_3   0.348850 0.076506 0.891753 -0.122336
H45   H     H_    0.229077 0.053335 0.894958 0.138356
H46   H     H_    0.352687 0.086266 0.861247 0.173324
H47   H     H_    0.320533 0.105456 0.909066 0.112161
O42   O     O_3   0.472584 0.941871 0.098530 -0.525455
C118  C     C_3   0.651290 0.923483 0.108252 -0.122899
H48   H     H_    0.647459 0.913724 0.138758 0.173016
H49   H     H_    0.771061 0.946655 0.105047 0.138415
H50   H     H_    0.679608 0.894533 0.090940 0.112223
O43   O     O_3   0.523369 0.941010 0.404456 -0.525579
C119  C     C_3   0.705826 0.924196 0.395728 -0.125701
H51   H     H_    0.820603 0.948635 0.398780 0.138510
H52   H     H_    0.704615 0.913612 0.365445 0.172877
H53   H     H_    0.739732 0.896027 0.413793 0.109959
O44   O     O_3   0.562203 0.061829 0.599353 -0.525933
C120  C     C_3   0.754349 0.071091 0.609378 -0.119643
H54   H     H_    0.847687 0.042464 0.607025 0.136312
H55   H     H_    0.758534 0.081592 0.639678 0.173974
H56   H     H_    0.812504 0.097421 0.591648 0.112374
N9    N     N_2   0.748982 0.309316 0.355138 -0.502832
H57   H     H_    0.619942 0.322690 0.363160 0.259588
C121  C     C_3   0.777121 0.267918 0.372139 -0.520912
H58   H     H_    0.804550 0.270858 0.403411 0.190760
H59   H     H_    0.898432 0.251212 0.358323 0.202308
H60   H     H_    0.646464 0.248545 0.367611 0.193108
N10   N     N_2   0.757054 0.712632 0.622917 -0.539715
H61   H     H_    0.788360 0.725386 0.596489 0.249783
C122  C     C_3   0.551537 0.710302 0.628553 -0.472401
H62   H     H_    0.483685 0.690772 0.605672 0.199378
H63   H     H_    0.490639 0.742795 0.627495 0.176912
H64   H     H_    0.516697 0.696267 0.656820 0.211819
N11   N     N_2   0.227303 0.699000 0.861880 -0.515925
H65   H     H_    0.354410 0.690225 0.875052 0.252136
C123  C     C_3   0.158125 0.739627 0.875472 -0.540554
H66   H     H_    0.087077 0.736051 0.903702 0.208159
H67   H     H_    0.060527 0.753965 0.853980 0.213610
H68   H     H_    0.276758 0.762362 0.879273 0.187732
N12   N     N_2   0.772690 0.300963 0.138119 -0.516178
H69   H     H_    0.645592 0.309731 0.124940 0.252118
C124  C     C_3   0.841845 0.260322 0.124557 -0.541735
H70   H     H_    0.912675 0.263863 0.096302 0.208350
H71   H     H_    0.723229 0.237570 0.120824 0.188032
H72   H     H_    0.939630 0.246024 0.146037 0.213267
N13   N     N_2   0.272804 0.199072 0.138045 -0.516284
H73   H     H_    0.145717 0.190318 0.124884 0.252097
C125  C     C_3   0.341911 0.239683 0.124395 -0.542248
H74   H     H_    0.413883 0.236058 0.096267 0.208626
H75   H     H_    0.438667 0.254106 0.145962 0.213146
H76   H     H_    0.223108 0.262371 0.120351 0.188350
N14   N     N_2   0.727213 0.800916 0.861944 -0.515948
H77   H     H_    0.854306 0.809661 0.875107 0.252008
C126  C     C_3   0.658089 0.760300 0.875579 -0.541135
H78   H     H_    0.586328 0.763908 0.903731 0.208262
H79   H     H_    0.776852 0.737592 0.879567 0.188496
H80   H     H_    0.561138 0.745911 0.854030 0.213606
N15   N     N_2   0.108273 0.821646 0.643096 -0.504853
H81   H     H_    0.986276 0.839943 0.640127 0.253256
C127  C     C_3   0.106295 0.784862 0.618203 -0.508650
H82   H     H_    0.980453 0.786440 0.598534 0.193624
H83   H     H_    0.096838 0.755725 0.635913 0.209017
H84   H     H_    0.237260 0.782823 0.600198 0.189995
N16   N     N_2   0.261309 0.192893 0.357401 -0.512656
H85   H     H_    0.128721 0.179231 0.352541 0.251301
C128  C     C_3   0.258785 0.224686 0.387435 -0.548964
H86   H     H_    0.390089 0.223492 0.405743 0.212019
H87   H     H_    0.132288 0.219799 0.406183 0.194704
H88   H     H_    0.249516 0.256696 0.374272 0.201470

loop_
_geom_bond_atom_site_label_1
_geom_bond_atom_site_label_2
_ccdc_geom_bond_type
O17   V3    S    
C127  H84   S    
C113  H34   S    
O39   C115  S    
C56   C64   A    
O18   V4    S    
C128  H86   S    
O12   V1    S    
O19   V1    S    
C28   C52   A    
C37   C45   A    
O43   C119  S    
C10   N2    A    
C125  H76   S    
C119  H51   S    
C76   H20   S    
C39   C47   A    
C115  H40   S    
C77   H21   S    
N14   H77   S    
O14   V4    S    
O41   C117  S    
O16   V3    S    
C30   C54   A    
C75   H19   S    
C79   H23   S    
O12   C4    A    
C98   H26   S    
O8    V1    S    
C42   C57   A    
C73   H17   S    
N16   C128  S    
N10   H61   S    
C71   H15   S    
C41   C58   A    
C50   O38   S    
C120  H56   S    
O13   V3    S    
C26   C50   A    
C103  C111  A    
C124  H70   S    
C117  H46   S    
C104  C112  A    
C113  H35   S    
C38   C46   A    
C46   C61   A    
C93   C101  A    
C127  H82   S    
C34   C42   A    
C67   C75   A    
C45   C62   A    
O1    V3    S    
C116  H44   S    
C33   C41   A    
C68   H12   S    
O3    C2    A    
N8    C24   A    
C122  H62   S    
C54   O42   S    
C65   C73   A    
N7    C112  S    
C70   C110  A    
C1    C88   S    
O10   V2    S    
N8    C111  S    
C2    C87   S    
C54   C62   A    
C96   N16   S    
C27   C35   A    
C21   C29   A    
C26   C34   A    
N16   H85   S    
O11   V2    S    
C87   C95   A    
C102  H30   S    
C23   C31   A    
C114  H38   S    
C121  H58   S    
C16   C48   A    
O38   C114  S    
C122  H63   S    
C18   O30   S    
C80   C88   A    
C51   O39   S    
C20   C28   A    
N9    H57   S    
C11   C43   A    
O37   C113  S    
O9    V1    S    
C65   C105  A    
C89   C97   A    
C100  H28   S    
C32   C40   A    
C113  H33   S    
N7    C23   A    
N5    C21   A    
C114  H36   S    
O16   C8    A    
O7    V2    S    
N15   H81   S    
C67   C107  A    
C98   C106  A    
C121  H59   S    
C30   C38   A    
C99   H27   S    
O3    V4    S    
C61   H5    S    
C78   C86   A    
C11   O23   S    
N1    C17   A    
O44   C120  S    
C64   H8    S    
C116  H42   S    
O5    V1    S    
C6    C83   S    
C123  H67   S    
C76   C84   A    
O17   V1    S    
C57   H1    S    
C94   C102  A    
O19   V3    S    
C35   C36   A    
C18   C26   A    
O20   V4    S    
C92   N12   S    
C66   C74   A    
N12   H69   S    
C119  H52   S    
C58   H2    S    
C69   C77   A    
C118  H48   S    
C124  H71   S    
N15   C127  S    
C104  H32   S    
C117  H45   S    
O40   C116  S    
C17   O29   S    
C91   C99   A    
C14   C46   A    
C66   H10   S    
C83   C91   A    
C7    C82   S    
C67   H11   S    
C93   N13   S    
C71   C111  A    
C40   C48   A    
C55   C63   A    
C72   C112  A    
C22   O34   S    
C55   O43   S    
C44   C59   A    
C120  H54   S    
C53   O41   S    
C16   O28   S    
C72   C80   A    
C52   O40   S    
C53   C61   A    
C90   C98   A    
C115  H41   S    
C75   C83   A    
N2    C18   A    
O11   C3    A    
N6    C22   A    
C24   C32   A    
O8    C5    A    
C73   C81   A    
N10   C122  S    
C71   C79   A    
C94   N14   S    
O9    C1    A    
C48   C63   A    
C15   O27   S    
C60   H4    S    
C20   O32   S    
C31   C39   A    
C29   C53   A    
C43   C60   A    
C102  C110  A    
O4    C1    A    
C77   C85   A    
N2    C105  S    
C9    C41   A    
O6    V2    S    
N12   C124  S    
C10   C42   A    
O18   V2    S    
C4    C85   S    
N11   C123  S    
C95   C103  A    
O14   C6    A    
C120  H55   S    
C121  H60   S    
C25   C49   A    
C12   N4    A    
C23   O35   S    
C35   C43   A    
N6    C109  S    
C85   C93   A    
C125  H74   S    
C119  H53   S    
C127  H83   S    
N13   H73   S    
C63   H7    S    
C11   N3    A    
C8    C81   S    
C86   C94   A    
C89   N9    S    
C15   N7    A    
C126  H78   S    
C123  H68   S    
C29   C37   A    
C96   C104  A    
C92   C100  A    
C16   N8    A    
C65   H9    S    
O1    C4    A    
C32   C56   A    
C68   C108  A    
C101  C109  A    
C72   H16   S    
C31   C55   A    
O2    C3    A    
C3    C86   S    
C68   C76   A    
C95   N15   S    
C27   C51   A    
C125  H75   S    
C117  H47   S    
O15   V4    S    
C82   C90   A    
C17   C25   A    
C69   C109  A    
C123  H66   S    
C12   O24   S    
C79   C87   A    
N4    C20   A    
C47   C64   A    
C36   C44   A    
O7    C6    A    
C51   C59   A    
C103  H31   S    
C69   H13   S    
C50   C58   A    
C91   N11   S    
C99   C107  A    
C74   H18   S    
C122  H64   S    
C9    N1    A    
C78   H22   S    
C124  H72   S    
C128  H87   S    
C84   C92   A    
C100  C108  A    
C97   C105  A    
O20   V2    S    
C14   O26   S    
C126  H79   S    
N14   C126  S    
O13   C5    A    
C118  H50   S    
C13   O25   S    
C90   N10   S    
C62   H6    S    
N3    C19   A    
O42   C118  S    
C56   O44   S    
O5    C8    A    
C13   C45   A    
N3    C108  S    
O10   C2    A    
C81   C89   A    
O6    C7    A    
O15   C7    A    
C10   O22   S    
C5    C84   S    
C59   H3    S    
N1    C106  S    
C97   H25   S    
C9    O21   S    
C118  H49   S    
C88   C96   A    
C49   C57   A    
C101  H29   S    
C37   C38   A    
C70   C78   A    
C126  H80   S    
C14   N6    A    
O4    V3    S    
C66   C106  A    
C28   C36   A    
N4    C107  S    
C49   O37   S    
N5    C110  S    
C39   C40   A    
C19   C27   A    
C115  H39   S    
C70   H14   S    
C19   O31   S    
C33   C34   A    
C128  H88   S    
N9    C121  S    
C114  H37   S    
C116  H43   S    
C22   C30   A    
C21   O33   S    
C52   C60   A    
N13   C125  S    
C74   C82   A    
N11   H65   S    
C13   N5    A    
C12   C44   A    
C24   O36   S    
C80   H24   S    
C15   C47   A    
O2    V4    S    
C25   C33   A    
