data_mof_unit_28039.cif
_audit_creation_date              2012-12-10T17:16:41-0500
_audit_creation_method            fapswitch 2.2
_symmetry_space_group_name_H-M    P1
_symmetry_Int_Tables_number       1
_space_group_crystal_system       triclinic
_cell_length_a                    10.169327
_cell_length_b                    10.661349
_cell_length_c                    10.733902
_cell_angle_alpha                 89.771969
_cell_angle_beta                  95.084198
_cell_angle_gamma                 81.13276
_cell_volume                      1145.1391333

loop_
_atom_site_label
_atom_site_type_symbol
_atom_type_description
_atom_site_fract_x
_atom_site_fract_y
_atom_site_fract_z
_atom_type_partial_charge
C1    C     C_R   0.444169 0.503704 0.267120 0.917809
C2    C     C_R   0.500185 0.739075 0.499897 0.873402
C3    C     C_R   0.549311 0.124016 0.277607 -0.159534
C4    C     C_R   0.451949 0.875751 0.722710 -0.138296
C5    C     C_R   0.576041 0.055567 0.170149 -0.159171
C6    C     C_R   0.425758 0.944232 0.830302 -0.154977
C7    C     C_R   0.576403 0.925346 0.170109 -0.161911
C8    C     C_R   0.425459 0.074448 0.830313 -0.153977
C9    C     C_R   0.550083 0.863487 0.277556 -0.157039
C10   C     C_R   0.451206 0.136296 0.722679 -0.155299
C11   C     C_R   0.526380 0.931145 0.389198 0.073413
C12   C     C_R   0.555868 0.487032 0.732915 0.912889
C13   C     C_R   0.474471 0.068678 0.610969 0.072471
C14   C     C_R   0.525911 0.062179 0.389186 0.066309
C15   C     C_R   0.474927 0.937645 0.611000 0.076242
C16   C     C_R   0.500686 0.871379 0.500064 -0.196488
C17   C     C_R   0.499708 0.128521 0.499998 -0.199940
C18   C     C_R   0.878021 0.389388 0.335451 0.264831
C19   C     C_R   0.864463 0.261753 0.317002 -0.156174
C20   C     C_R   0.889440 0.205082 0.202458 -0.181212
C21   C     C_R   0.926935 0.275919 0.105385 -0.120888
C22   C     C_R   0.939437 0.403584 0.122711 -0.171544
C23   C     C_2   0.412824 0.489745 0.134847 -0.384067
C24   C     C_R   0.914322 0.460574 0.237089 -0.183026
C25   C     C_R   0.106200 0.671187 0.600441 0.267605
C26   C     C_R   0.148826 0.701306 0.722946 -0.160672
C27   C     C_R   0.105171 0.821093 0.770245 -0.170243
C28   C     C_R   0.019724 0.911957 0.695054 -0.093953
C29   C     C_R   0.978182 0.883390 0.572219 -0.141734
C30   C     C_R   0.022042 0.763876 0.524499 -0.173947
C31   C     C_2   0.587458 0.463989 0.865337 -0.377458
C32   C     C_2   0.511635 0.442065 0.066951 -0.164917
C33   C     C_2   0.488933 0.445090 0.933626 -0.178713
C34   C     C_2   0.076350 0.478213 0.503148 -0.143236
C35   C     C_2   0.930040 0.497279 0.520609 -0.143069
C36   C     C_R   0.499857 0.260900 0.500063 0.870535
H1    H     H_    0.406032 0.127743 0.914095 0.142245
H2    H     H_    0.613324 0.412275 0.108459 0.205462
H3    H     H_    0.688718 0.464706 0.907216 0.158305
H4    H     H_    0.311517 0.519827 0.092752 0.150804
H5    H     H_    0.895088 0.552239 0.599345 0.169386
H6    H     H_    0.118110 0.396722 0.451325 0.177417
H7    H     H_    0.835050 0.206152 0.391351 0.148923
H8    H     H_    0.879144 0.106414 0.188794 0.146073
H9    H     H_    0.945742 0.232065 0.016613 0.130678
H10   H     H_    0.967471 0.458622 0.047188 0.133578
H11   H     H_    0.921699 0.560142 0.248942 0.129350
H12   H     H_    0.596276 0.872070 0.086410 0.139049
H13   H     H_    0.215018 0.631864 0.782025 0.135927
H14   H     H_    0.137916 0.843582 0.865121 0.133442
H15   H     H_    0.986159 0.004648 0.731805 0.128173
H16   H     H_    0.912728 0.954082 0.513738 0.137980
H17   H     H_    0.991188 0.743466 0.428504 0.129741
H18   H     H_    0.547047 0.225466 0.271570 0.149860
H19   H     H_    0.454368 0.774219 0.728823 0.143409
H20   H     H_    0.595784 0.103990 0.086577 0.144099
H21   H     H_    0.406444 0.895849 0.914037 0.133796
H22   H     H_    0.548186 0.762625 0.271407 0.147076
H23   H     H_    0.452974 0.237134 0.728679 0.145543
H24   H     H_    0.387375 0.444569 0.892268 0.180989
N1    N     N_2   0.157300 0.551390 0.551120 -0.140202
N2    N     N_2   0.842700 0.448610 0.448880 -0.137035
O1    O     O_R   0.568940 0.489660 0.307530 -0.618939
O2    O     O_R   0.431060 0.510340 0.692470 -0.630591
O3    O     O_R   0.348880 0.522640 0.340350 -0.607670
O4    O     O_R   0.651120 0.477360 0.659650 -0.613299
O5    O     O_R   0.610030 0.300280 0.483580 -0.629490
O6    O     O_R   0.389970 0.699720 0.516420 -0.605191
O7    O     O_R   0.389970 0.333270 0.516400 -0.619424
O8    O     O_R   0.610030 0.666730 0.483600 -0.616579
Zn1   Zn    Zn3+2 0.646940 0.477980 0.478080 0.928790
Zn2   Zn    Zn3+2 0.353060 0.522020 0.521920 0.934307

loop_
_geom_bond_atom_site_label_1
_geom_bond_atom_site_label_2
_ccdc_geom_bond_type
O7    Zn2   S    
C1    O3    A    
C31   C33   D    
C29   C30   A    
C17   C36   S    
C32   H2    S    
C33   H24   S    
O3    Zn2   S    
C2    C16   S    
C11   C16   A    
C5    H20   S    
C21   H9    S    
O4    Zn1   S    
C14   C17   A    
C27   H14   S    
C13   C17   A    
O6    Zn2   S    
C20   H8    S    
C7    H12   S    
C20   C21   A    
C4    C15   A    
O2    Zn2   S    
C10   H23   S    
C25   C26   A    
C36   O5    A    
C12   C31   S    
C25   N1    S    
C21   C22   A    
C32   C33   S    
C9    C11   A    
C6    H21   S    
C26   C27   A    
O8    Zn1   S    
C3    C14   A    
C34   C35   S    
C18   C24   A    
C15   C16   A    
C1    O1    A    
N1    Zn2   S    
C8    C10   A    
C28   C29   A    
C30   H17   S    
O1    Zn1   S    
N2    Zn1   S    
C1    C23   S    
C35   N2    D    
C2    O6    A    
C13   C15   A    
C4    H19   S    
C35   H5    S    
C3    H18   S    
C22   C24   A    
O5    Zn1   S    
C8    H1    S    
C23   H4    S    
C7    C9    A    
C27   C28   A    
C36   O7    A    
C9    H22   S    
C4    C6    A    
C18   C19   A    
C26   H13   S    
C11   C14   A    
C5    C7    A    
C12   O2    A    
C25   C30   A    
C6    C8    A    
C22   H10   S    
C28   H15   S    
C2    O8    A    
C24   H11   S    
C12   O4    A    
C10   C13   A    
C34   N1    D    
C18   N2    S    
C19   C20   A    
C23   C32   D    
C31   H3    S    
C34   H6    S    
C3    C5    A    
C29   H16   S    
C19   H7    S    
