data_mof_unit_36768.cif
_audit_creation_date              2012-12-11T17:08:24-0500
_audit_creation_method            fapswitch 2.2
_symmetry_space_group_name_H-M    P1
_symmetry_Int_Tables_number       1
_space_group_crystal_system       triclinic
_cell_length_a                    6.945212
_cell_length_b                    14.51915
_cell_length_c                    16.086343
_cell_angle_alpha                 89.944874
_cell_angle_beta                  90.077785
_cell_angle_gamma                 90.036303
_cell_volume                      1622.1213321

loop_
_atom_site_label
_atom_site_type_symbol
_atom_type_description
_atom_site_fract_x
_atom_site_fract_y
_atom_site_fract_z
_atom_type_partial_charge
O1    O     O_R   0.505700 0.583890 0.413310 -0.539450
O2    O     O_R   0.175960 0.594920 0.586080 -0.547719
O3    O     O_R   0.005660 0.416110 0.586690 -0.535411
C1    C     C_R   0.345195 0.617493 0.614390 0.722094
O4    O     O_R   0.175980 0.594920 0.413930 -0.546393
O5    O     O_R   0.005680 0.416110 0.413310 -0.528452
C2    C     C_R   0.344728 0.616894 0.385082 0.688139
O6    O     O_R   0.505680 0.583890 0.586690 -0.536501
O7    O     O_3   0.339200 0.441330 0.500000 -0.357399
V1    V     V_3+5 0.064350 0.510880 0.500000 1.408762
O8    O     O_R   0.675960 0.405080 0.413920 -0.537721
C3    C     C_R   0.844923 0.383362 0.384868 0.698344
O9    O     O_R   0.675940 0.405080 0.586070 -0.543838
C4    C     C_R   0.844656 0.383074 0.614750 0.703867
V2    V     V_3+5 0.564340 0.489120 0.500000 1.421551
O10   O     O_3   0.839360 0.558670 0.500000 -0.375789
C5    C     C_R   0.982112 0.242020 0.683689 0.096099
C6    C     C_R   0.851144 0.314936 0.683069 -0.117432
C7    C     C_R   0.718449 0.319634 0.749072 -0.228049
H1    H     H_    0.613257 0.374753 0.749011 0.149510
C8    C     C_R   0.732343 0.260080 0.818956 -0.026480
C9    C     C_R   0.875603 0.189218 0.819984 -0.167497
C10   C     C_R   0.991513 0.180069 0.749220 0.067487
C11   C     C_3   0.204648 0.170152 0.740756 -0.398978
C12   C     C_3   0.194138 0.239089 0.669447 -0.380278
H2    H     H_    0.246464 0.099851 0.720331 0.155227
H3    H     H_    0.284104 0.196138 0.795823 0.210167
H4    H     H_    0.231149 0.208496 0.608229 0.157947
H5    H     H_    0.266140 0.305691 0.683671 0.193404
C13   C     C_R   0.729815 0.181462 0.242571 0.001055
C14   C     C_R   0.882060 0.182583 0.185415 -0.075553
C15   C     C_R   0.031857 0.246152 0.199719 -0.154253
H6    H     H_    0.153156 0.249330 0.157794 0.118731
C16   C     C_R   0.020166 0.310759 0.264896 -0.090968
H7    H     H_    0.133305 0.361501 0.271307 0.119915
C17   C     C_R   0.858707 0.313564 0.317926 -0.143088
C18   C     C_R   0.718998 0.245111 0.307371 0.004785
C19   C     C_3   0.504599 0.253971 0.296890 0.359157
C20   C     C_3   0.517829 0.183128 0.227282 -0.436025
H8    H     H_    0.464163 0.323456 0.273727 0.059204
H9    H     H_    0.482186 0.211652 0.165009 0.157745
H10   H     H_    0.448572 0.115993 0.241844 0.172660
C21   C     C_R   0.529034 0.706757 0.721924 0.020892
C22   C     C_R   0.357682 0.690368 0.678602 -0.137337
C23   C     C_R   0.200306 0.748490 0.696051 -0.299709
H11   H     H_    0.067574 0.739290 0.661805 0.142122
C24   C     C_R   0.209968 0.816121 0.760071 0.438011
C25   C     C_R   0.377768 0.821915 0.810917 -0.191313
C26   C     C_R   0.537757 0.769888 0.786657 -0.032992
C27   C     C_3   0.673841 0.710139 0.835109 0.369854
C28   C     C_3   0.664705 0.640844 0.763130 -0.468656
H12   H     H_    0.817892 0.742848 0.840255 0.127539
H13   H     H_    0.597773 0.572924 0.775841 0.164591
H14   H     H_    0.802862 0.635964 0.728631 0.146804
C29   C     C_R   0.505762 0.681611 0.257726 0.095933
C30   C     C_R   0.352560 0.682262 0.314352 -0.112702
C31   C     C_R   0.201691 0.744891 0.299277 -0.180291
H15   H     H_    0.079899 0.747697 0.340910 0.130969
C32   C     C_R   0.213004 0.809127 0.233769 -0.181368
H16   H     H_    0.099032 0.859260 0.226770 0.125262
C33   C     C_R   0.375756 0.812815 0.181542 -0.111751
C34   C     C_R   0.517311 0.745374 0.193088 0.126287
C35   C     C_3   0.729210 0.756213 0.203766 -0.401122
C36   C     C_3   0.716757 0.686338 0.273932 -0.405139
H17   H     H_    0.768302 0.826498 0.225252 0.159144
H18   H     H_    0.810883 0.730752 0.149040 0.188972
H19   H     H_    0.749410 0.715825 0.336111 0.169568
H20   H     H_    0.790531 0.620307 0.259640 0.169477
O11   O     O_R   0.229000 0.916070 0.913330 -0.511637
O12   O     O_R   0.558770 0.905070 0.086080 -0.541260
O13   O     O_R   0.729000 0.083900 0.086690 -0.529128
C37   C     C_R   0.389744 0.883070 0.114930 0.689858
O14   O     O_R   0.558720 0.905070 0.913930 -0.535642
O15   O     O_R   0.728960 0.083900 0.913310 -0.532840
C38   C     C_R   0.389412 0.884403 0.883985 0.765390
O16   O     O_R   0.229050 0.916070 0.086710 -0.547095
O17   O     O_3   0.395460 0.058650 0.000020 -0.370619
V3    V     V_3+5 0.670340 0.989120 0.000000 1.487288
O18   O     O_R   0.058670 0.094960 0.913900 -0.539122
C39   C     C_R   0.889184 0.119224 0.887055 0.764239
O19   O     O_R   0.058720 0.094960 0.086050 -0.553542
C40   C     C_R   0.889980 0.116990 0.114867 0.720864
V4    V     V_3+5 0.170330 0.010930 0.999970 1.461884
O20   O     O_3   0.895340 0.941350 0.999980 -0.364394
O21   O     O_3   0.382923 0.225561 0.363669 -0.535795
C41   C     C_3   0.472668 0.166176 0.421579 -0.190287
H21   H     H_    0.583976 0.203741 0.457935 0.130045
H22   H     H_    0.535219 0.104555 0.390833 0.120682
H23   H     H_    0.362202 0.141501 0.466076 0.136348
O22   O     O_3   0.050943 0.870018 0.779384 -0.549887
C42   C     C_3   0.977854 0.914612 0.708013 -0.281771
H24   H     H_    0.094161 0.941690 0.667015 0.123133
H25   H     H_    0.890496 0.974379 0.728414 0.154399
H26   H     H_    0.880364 0.868015 0.672956 0.137200
O23   O     O_3   0.605677 0.682822 0.915181 -0.547964
C43   C     C_3   0.443355 0.623906 0.914466 -0.212746
H27   H     H_    0.489849 0.551163 0.907641 0.157871
H28   H     H_    0.335416 0.641961 0.866195 0.136172
H29   H     H_    0.370107 0.629670 0.975465 0.150855
C44   C     C_2   0.608304 0.280965 0.892057 0.724730
O24   O     O_2   0.658251 0.258698 0.962166 -0.569237
O25   O     O_R   0.437532 0.330617 0.881091 -0.686257
H30   H     H_    0.366604 0.341505 0.935245 0.286649

loop_
_geom_bond_atom_site_label_1
_geom_bond_atom_site_label_2
_ccdc_geom_bond_type
O17   V3    S    
C29   C30   A    
C35   H17   S    
O12   V3    S    
C4    C6    S    
O23   C43   S    
C11   H3    S    
C37   O16   A    
O19   C40   A    
C31   H15   S    
C20   H9    S    
O21   C41   S    
C12   H4    S    
C34   C35   S    
C14   C40   S    
C36   H20   S    
C17   C18   A    
C7    C8    A    
C11   H2    S    
C6    C7    A    
O5    C3    A    
C19   C20   S    
C41   H22   S    
C27   O23   S    
C31   C32   A    
O17   V4    S    
V2    O10   S    
C43   H29   S    
C30   C31   A    
C16   H7    S    
O8    V2    S    
V4    O20   S    
O18   V4    S    
C43   H28   S    
C27   H12   S    
C10   C11   S    
O1    V2    S    
C3    C17   S    
O7    V1    S    
C1    O6    A    
O13   C40   A    
C35   H18   S    
C32   H16   S    
O15   C39   A    
C8    C9    A    
C43   H27   S    
O14   C38   A    
C25   C38   S    
O25   H30   S    
C2    C30   S    
O16   V4    S    
O19   V4    S    
C27   C28   S    
C20   H10   S    
C23   C24   A    
C12   H5    S    
C32   C33   A    
C19   O21   S    
C36   H19   S    
C11   C12   S    
C42   H24   S    
O4    C2    A    
C8    C44   S    
C41   H21   S    
C21   C26   A    
C1    C22   S    
C23   H11   S    
O18   C39   A    
C13   C18   A    
C28   H13   S    
C15   C16   A    
O2    C1    A    
C21   C22   A    
C18   C19   S    
O11   V4    S    
C42   H25   S    
C24   C25   A    
O14   V3    S    
C29   C36   S    
C44   O25   S    
C5    C6    A    
C5    C10   A    
O3    C4    A    
C33   C37   S    
C25   C26   A    
O6    V2    S    
O9    V2    S    
C24   O22   S    
O2    V1    S    
C22   C23   A    
O1    C2    A    
C14   C15   A    
C41   H23   S    
O5    V1    S    
O8    C3    A    
C28   H14   S    
C5    C12   S    
C15   H6    S    
C7    H1    S    
O7    V2    S    
C9    C39   S    
O4    V1    S    
O3    V1    S    
V1    O10   S    
C42   H26   S    
C19   H8    S    
C21   C28   S    
O22   C42   S    
C13   C14   A    
C44   O24   D    
C13   C20   S    
O11   C38   A    
C16   C17   A    
C33   C34   A    
C35   C36   S    
V3    O20   S    
C29   C34   A    
C26   C27   S    
O15   V3    S    
C9    C10   A    
O12   C37   A    
O9    C4    A    
O13   V3    S    
