data_mof_unit_13640.cif
_audit_creation_date              2013-03-05T15:52:17-0500
_audit_creation_method            fapswitch 2.2
_symmetry_space_group_name_H-M    P1
_symmetry_Int_Tables_number       1
_space_group_crystal_system       triclinic
_cell_length_a                    21.551278
_cell_length_b                    7.323226
_cell_length_c                    15.314023
_cell_angle_alpha                 89.998817
_cell_angle_beta                  72.032036
_cell_angle_gamma                 89.997867
_cell_volume                      2299.05791234

loop_
_atom_site_label
_atom_site_type_symbol
_atom_site_description
_atom_site_fract_x
_atom_site_fract_y
_atom_site_fract_z
_atom_type_partial_charge
O1    O     O_R   0.464160 0.506670 0.130070 -0.571685
O2    O     O_R   0.535840 0.006670 0.869930 -0.571731
O3    O     O_R   0.589710 0.179080 0.006710 -0.574770
O4    O     O_R   0.410290 0.679080 0.993290 -0.574663
C1    C     C_R   0.615133 0.344458 0.005893 1.141122
C2    C     C_R   0.384871 0.844463 0.994086 1.140594
O5    O     O_R   0.467940 0.177220 0.138010 -0.586234
O6    O     O_R   0.532060 0.677220 0.861990 -0.586190
O7    O     O_R   0.413200 0.002810 0.002170 -0.543938
O8    O     O_R   0.586800 0.502810 0.997830 -0.543925
C3    C     C_R   0.457955 0.346375 0.173520 0.995195
C4    C     C_R   0.542060 0.846370 0.826485 0.995360
O9    O     O_3   0.482180 0.337850 0.955280 -0.277638
O10   O     O_3   0.517820 0.837850 0.044720 -0.277649
V1    V     V_3+5 0.503310 0.064600 0.008300 1.361339
V2    V     V_3+5 0.496690 0.564600 0.991700 1.361376
C5    C     C_R   0.567369 0.859801 0.725911 -0.235338
C6    C     C_R   0.432651 0.359844 0.274102 -0.235421
C7    C     C_R   0.921447 0.872263 0.271952 -0.378733
C8    C     C_R   0.078565 0.372233 0.728045 -0.378655
C9    C     C_R   0.547272 0.844326 0.579261 -0.116102
C10   C     C_R   0.452754 0.344827 0.420765 -0.116161
C11   C     C_R   0.524041 0.842771 0.674779 -0.174813
C12   C     C_R   0.475986 0.343090 0.325243 -0.174754
C13   C     C_R   0.634478 0.889137 0.680893 0.254375
C14   C     C_R   0.365539 0.389084 0.319117 0.254390
C15   C     C_R   0.657291 0.910428 0.583700 -0.011556
C16   C     C_R   0.342716 0.410568 0.416297 -0.011431
C17   C     C_R   0.613881 0.871028 0.533712 0.080497
C18   C     C_R   0.386136 0.371445 0.466306 0.080521
C19   C     C_R   0.723266 0.954536 0.534312 0.005029
C20   C     C_R   0.276724 0.454579 0.465658 0.004953
C21   C     C_R   0.750295 0.902281 0.440562 -0.049020
C22   C     C_R   0.249709 0.402480 0.559431 -0.049014
C23   C     C_R   0.705710 0.836219 0.395406 0.338900
C24   C     C_R   0.294309 0.336686 0.604623 0.338858
C25   C     C_R   0.638362 0.841751 0.439575 -0.249297
C26   C     C_R   0.361658 0.342340 0.560461 -0.249322
C27   C     C_R   0.762384 0.050760 0.576882 -0.144987
C28   C     C_R   0.237570 0.550513 0.423033 -0.144874
C29   C     C_R   0.829870 0.051204 0.540510 0.361977
C30   C     C_R   0.170080 0.550728 0.459383 0.361916
C31   C     C_R   0.859380 0.971062 0.454418 -0.114323
C32   C     C_R   0.140598 0.470709 0.545519 -0.114353
C33   C     C_R   0.820130 0.914710 0.399348 0.093968
C34   C     C_R   0.179867 0.414740 0.600630 0.093850
C35   C     C_R   0.927660 0.951199 0.421324 -0.187158
C36   C     C_R   0.072327 0.450566 0.578612 -0.187212
C37   C     C_R   0.958253 0.899154 0.331201 0.813227
C38   C     C_R   0.041751 0.398690 0.668769 0.812971
C39   C     C_R   0.853119 0.880722 0.305391 -0.110193
C40   C     C_R   0.146890 0.380919 0.694607 -0.110020
H1    H     H_    0.605448 0.797742 0.402531 0.176106
H2    H     H_    0.394582 0.298523 0.597530 0.176092
H3    H     H_    0.827677 0.874152 0.255201 0.218490
H4    H     H_    0.172336 0.374605 0.744799 0.218438
H5    H     H_    0.513446 0.818620 0.540946 0.139281
H6    H     H_    0.486587 0.319340 0.459092 0.139286
H7    H     H_    0.472512 0.820607 0.708912 0.172880
H8    H     H_    0.527522 0.321022 0.291117 0.173044
H9    H     H_    0.740639 0.120360 0.641499 0.202988
H10   H     H_    0.259294 0.620033 0.358388 0.203121
H11   H     H_    0.958024 0.979258 0.464365 0.217537
H12   H     H_    0.041955 0.478247 0.535539 0.217686
C41   C     C_3   0.224801 0.685979 0.940999 0.564541
C42   C     C_3   0.775226 0.185890 0.058882 0.564338
C43   C     C_3   0.296029 0.674776 0.949497 -0.455815
C44   C     C_3   0.704044 0.174582 0.050243 -0.455614
H13   H     H_    0.334008 0.649657 0.882917 0.237703
H14   H     H_    0.666045 0.149034 0.116755 0.237873
H15   H     H_    0.301363 0.553850 0.990306 0.308991
H16   H     H_    0.698828 0.053878 0.009216 0.309019
C45   C     C_3   0.192466 0.858120 0.101611 0.645161
C46   C     C_3   0.807526 0.358275 0.898321 0.645435
C47   C     C_3   0.226042 0.030379 0.951533 0.429411
C48   C     C_3   0.773951 0.530325 0.048456 0.429469
C49   C     C_3   0.187494 0.859133 0.999939 -0.842039
C50   C     C_3   0.812517 0.359131 0.999996 -0.842016
H17   H     H_    0.208864 0.148568 0.995086 0.165699
H18   H     H_    0.791079 0.648556 0.004895 0.165526
C51   C     C_3   0.313634 0.850113 0.994305 -0.748151
C52   C     C_3   0.686376 0.350115 0.005639 -0.748256
C53   C     C_3   0.267052 0.854703 0.096091 0.687664
C54   C     C_3   0.732934 0.355167 0.903850 0.687314
C55   C     C_3   0.300473 0.013279 0.936243 1.179232
C56   C     C_3   0.699513 0.513081 0.063830 1.179064
O11   O     O_R   0.913210 0.208550 0.002110 -0.563539
O12   O     O_R   0.086790 0.708550 0.997890 -0.563393
O13   O     O_R   0.032060 0.539960 0.861980 -0.576426
O14   O     O_R   0.967940 0.039960 0.138020 -0.576486
C57   C     C_R   0.046141 0.373301 0.826997 1.082174
C58   C     C_R   0.953863 0.873302 0.173001 1.082198
O15   O     O_R   0.910290 0.538020 0.993280 -0.549115
O16   O     O_R   0.089710 0.038020 0.006720 -0.549249
O17   O     O_R   0.964160 0.712340 0.130090 -0.575819
O18   O     O_R   0.035840 0.212340 0.869910 -0.575866
C59   C     C_R   0.884252 0.369325 0.997889 1.200954
C60   C     C_R   0.115755 0.869327 0.002073 1.201023
O19   O     O_3   0.017820 0.379210 0.044690 -0.266650
O20   O     O_3   0.982180 0.879210 0.955310 -0.266654
V3    V     V_3+5 0.996690 0.652500 0.991710 1.417986
V4    V     V_3+5 0.003310 0.152500 0.008290 1.417900
N1    N     N_R   0.191364 0.511683 0.974451 0.252578
O21   O     O_R   0.164951 0.416929 0.923271 -0.357563
O22   O     O_R   0.193377 0.439965 0.051090 -0.230469
N2    N     N_R   0.808720 0.011632 0.025495 0.252527
O23   O     O_R   0.835051 0.916907 0.076787 -0.357559
O24   O     O_R   0.806870 0.939936 0.948778 -0.230632
N3    N     N_R   0.227419 0.708163 0.843054 0.285143
O25   O     O_R   0.281494 0.691200 0.775753 -0.311182
O26   O     O_R   0.173808 0.729329 0.821883 -0.347074
N4    N     N_R   0.772509 0.208078 0.156863 0.285333
O27   O     O_R   0.718445 0.190139 0.224098 -0.311406
O28   O     O_R   0.826069 0.229613 0.178125 -0.346585
F1    F     F_    0.162248 0.702013 0.144426 -0.519063
F2    F     F_    0.837661 0.202099 0.855483 -0.518974
F3    F     F_    0.276741 0.696332 0.139068 -0.549947
F4    F     F_    0.723206 0.197134 0.860645 -0.550258
F5    F     F_    0.213284 0.066652 0.870415 -0.543522
F6    F     F_    0.786751 0.566617 0.129542 -0.543540
F7    F     F_    0.333068 0.982748 0.844095 -0.613758
F8    F     F_    0.666979 0.482166 0.155962 -0.613825
F9    F     F_    0.323807 0.177725 0.957921 -0.656251
F10   F     F_    0.676098 0.677578 0.042341 -0.656338
N5    N     N_R   0.157796 0.006272 0.163639 0.248107
O29   O     O_R   0.126751 0.137763 0.138425 -0.317073
O30   O     O_R   0.154350 0.998063 0.249964 -0.172955
N6    N     N_R   0.842250 0.506357 0.836301 0.248145
O31   O     O_R   0.873329 0.637735 0.861530 -0.317183
O32   O     O_R   0.845662 0.498283 0.749986 -0.172957
N7    N     N_R   0.285199 0.007158 0.145170 0.233302
O33   O     O_R   0.320528 0.976424 0.198951 -0.313005
O34   O     O_R   0.272348 0.174449 0.128318 -0.270618
N8    N     N_R   0.714794 0.508025 0.854997 0.233505
O35   O     O_R   0.679211 0.477838 0.801510 -0.313066
O36   O     O_R   0.727795 0.675149 0.871922 -0.270966
F11   F     F_    0.024237 0.889128 0.299759 -0.601459
F12   F     F_    0.975772 0.388369 0.700202 -0.601463
N9    N     N_R   0.867618 0.136187 0.591722 0.253161
O37   O     O_R   0.910725 0.260208 0.553668 -0.330898
O38   O     O_R   0.853263 0.106319 0.679378 -0.169372
N10   N     N_R   0.132302 0.635339 0.408099 0.253212
O39   O     O_R   0.089041 0.759011 0.446117 -0.330833
O40   O     O_R   0.146775 0.605554 0.320422 -0.169464
N11   N     N_R   0.679864 0.865819 0.731630 0.250314
O41   O     O_R   0.731956 0.766581 0.698262 -0.277202
O42   O     O_R   0.667811 0.935508 0.813048 -0.248314
N12   N     N_R   0.320164 0.365495 0.268393 0.250176
O43   O     O_R   0.268116 0.266110 0.301788 -0.277285
O44   O     O_R   0.332163 0.435241 0.186996 -0.248129
N13   N     N_R   0.726270 0.738752 0.310989 0.250698
O45   O     O_R   0.755710 0.582801 0.308481 -0.271145
O46   O     O_R   0.701023 0.779558 0.246494 -0.261004
N14   N     N_R   0.273767 0.239242 0.689049 0.250684
O47   O     O_R   0.244383 0.083208 0.691554 -0.270919
O48   O     O_R   0.298962 0.280212 0.753577 -0.261419

loop_
_geom_bond_atom_site_label_1
_geom_bond_atom_site_label_2
_geom_bond_distance
_ccdc_geom_bond_type
C42   C44   1.582061 S    
C3    C6    1.470188 S    
C37   F11   1.355349 S    
C15   C17   1.409398 A    
C21   C33   1.444209 A    
O1    C3    1.335552 A    
C48   C56   1.553035 S    
O2    C4    1.335545 A    
N6    O31   1.297402 A    
C2    O7    1.333955 A    
N4    O28   1.301993 A    
O12   V3    2.015280 S    
C24   N14   1.422555 S    
C27   C29   1.387708 A    
O16   C60   1.349664 A    
C11   H7    1.083839 S    
C54   N8    1.464926 S    
C5    C11   1.397066 A    
C23   N13   1.422554 S    
C6    C12   1.397083 A    
C23   C25   1.400044 A    
C48   C50   1.559713 S    
O18   V4    2.063425 S    
N3    O26   1.301979 A    
C35   H11   1.082145 S    
C46   C54   1.583648 S    
C36   H12   1.082127 S    
C43   H15   1.110085 S    
N2    O23   1.301993 A    
C33   C39   1.416539 A    
C34   C40   1.416540 A    
C28   H10   1.082815 S    
C18   C26   1.390497 A    
O14   V4    2.067089 S    
C8    C38   1.391165 A    
C7    C58   1.459872 S    
N11   O42   1.297194 A    
C57   O18   1.334387 A    
C47   C55   1.552999 S    
C46   N6    1.483108 S    
C16   C18   1.409383 A    
C41   C43   1.582172 S    
C6    C14   1.413460 A    
C4    C5    1.470053 S    
C30   N10   1.434584 S    
O17   V3    2.063433 S    
N13   O45   1.301253 A    
C19   C21   1.425133 A    
C55   F7    1.386802 S    
C22   C34   1.444213 A    
O6    C4    1.343209 A    
O13   C57   1.329800 A    
C31   C35   1.408287 A    
N14   O48   1.300936 A    
C12   H8    1.083835 S    
C25   H1    1.084968 S    
O5    V1    2.067073 S    
O6    V2    2.067064 S    
C2    C51   1.534789 S    
C29   C31   1.403511 A    
C30   C32   1.403570 A    
C42   N2    1.477589 S    
C27   H9    1.082820 S    
N4    O27   1.301851 A    
C51   C53   1.572650 S    
C32   C34   1.427288 A    
N11   O41   1.302161 A    
C42   C50   1.619115 S    
C8    C57   1.459917 S    
C41   C49   1.619054 S    
C15   C19   1.426379 A    
C16   C20   1.426412 A    
C47   F5    1.378408 S    
N12   O43   1.302148 A    
C35   C37   1.386847 A    
O15   V3    2.035458 S    
N8    O36   1.299392 A    
O3    C1    1.327759 A    
C52   C56   1.566635 S    
C9    C17   1.402760 A    
C58   O17   1.334395 A    
C43   H13   1.108371 S    
C20   C22   1.425098 A    
O4    V2    2.035317 S    
O5    C3    1.343266 A    
C56   F8    1.386790 S    
O11   V4    2.015250 S    
C31   C33   1.427298 A    
C7    C37   1.391158 A    
O14   C58   1.329775 A    
C26   H2    1.084964 S    
C44   H16   1.110100 S    
C46   F2    1.377438 S    
C50   C59   1.538144 S    
C49   C60   1.538113 S    
N1    O22   1.298672 A    
O1    V2    2.060356 S    
C48   F6    1.378413 S    
C14   N12   1.434633 S    
O2    V1    2.060366 S    
C47   C49   1.559642 S    
C41   N3    1.492368 S    
N14   O47   1.301250 A    
O4    C2    1.327755 A    
C43   C51   1.556996 S    
C52   C54   1.572587 S    
C20   C28   1.404083 A    
C9    C11   1.392347 A    
C56   F10   1.384389 S    
N5    O29   1.297427 A    
C10   C12   1.392419 A    
C41   N1    1.477571 S    
N7    O33   1.302135 A    
O15   C59   1.349691 A    
N10   O40   1.299721 A    
O3    V1    2.035371 S    
C10   C18   1.402804 A    
O13   V3    2.067099 S    
N10   O39   1.301362 A    
C48   H18   1.085826 S    
N12   O44   1.297180 A    
C28   C30   1.387761 A    
N7    O34   1.299331 A    
N6    O32   1.302371 A    
C10   H6    1.083981 S    
N9    O37   1.301377 A    
C38   F12   1.355375 S    
N8    O35   1.302097 A    
C13   C15   1.424743 A    
C9    H5    1.083983 S    
C14   C16   1.424723 A    
C45   F1    1.377505 S    
C44   C52   1.557045 S    
C53   F3    1.380799 S    
C24   C26   1.400081 A    
C53   N7    1.464839 S    
O7    V1    2.024211 S    
C5    C13   1.413509 A    
C1    O8    1.333919 A    
C8    C40   1.403304 A    
C32   C36   1.408325 A    
O8    V2    2.024174 S    
N3    O25   1.301816 A    
C1    C52   1.534736 S    
N9    O38   1.299709 A    
N2    O24   1.298624 A    
C45   N5    1.483167 S    
C36   C38   1.386888 A    
O20   V3    1.808980 S    
C21   C23   1.430195 A    
C22   C24   1.430173 A    
C19   C27   1.404077 A    
C55   F9    1.384366 S    
C39   H3    1.074113 S    
N13   O46   1.300929 A    
C51   C55   1.566645 S    
C29   N9    1.434543 S    
C7    C39   1.403287 A    
O19   V4    1.809023 S    
O16   V4    2.035402 S    
C54   F4    1.380837 S    
C46   C50   1.593532 S    
O9    V2    1.809404 S    
C17   C25   1.390448 A    
N1    O21   1.301981 A    
N5    O30   1.302375 A    
C44   H14   1.108376 S    
C45   C49   1.593345 S    
O10   V1    1.809359 S    
C13   N11   1.434762 S    
C42   N4    1.492344 S    
C47   H17   1.085686 S    
C45   C53   1.583591 S    
O12   C60   1.343418 A    
C40   H4    1.074125 S    
O11   C59   1.343405 A    
