data_mof_unit_20749.cif
_audit_creation_date              2012-12-11T15:13:47-0500
_audit_creation_method            fapswitch 2.2
_symmetry_space_group_name_H-M    P1
_symmetry_Int_Tables_number       1
_space_group_crystal_system       triclinic
_cell_length_a                    6.961614
_cell_length_b                    13.469407
_cell_length_c                    20.138151
_cell_angle_alpha                 104.057732
_cell_angle_beta                  90.053286
_cell_angle_gamma                 90.652481
_cell_volume                      1831.645706

loop_
_atom_site_label
_atom_site_type_symbol
_atom_type_description
_atom_site_fract_x
_atom_site_fract_y
_atom_site_fract_z
_atom_type_partial_charge
O1    O     O_R   0.506780 0.600060 0.449950 -0.545999
O2    O     O_R   0.179840 0.597110 0.589410 -0.546600
O3    O     O_R   0.004570 0.399940 0.550050 -0.537818
C1    C     C_R   0.348380 0.618848 0.616938 0.668889
O4    O     O_R   0.177380 0.612160 0.452890 -0.529316
O5    O     O_R   0.002100 0.415100 0.412560 -0.535560
C2    C     C_R   0.346573 0.638843 0.436440 0.743860
O6    O     O_R   0.509250 0.584900 0.587440 -0.541545
O7    O     O_3   0.337570 0.435330 0.486930 -0.371089
V1    V     V_3+5 0.064650 0.512000 0.502430 1.430999
O8    O     O_R   0.672090 0.402890 0.410590 -0.545463
C3    C     C_R   0.839993 0.381804 0.383107 0.697379
O9    O     O_R   0.674540 0.387840 0.547110 -0.542581
C4    C     C_R   0.842524 0.361469 0.564179 0.692617
V2    V     V_3+5 0.564040 0.488000 0.497570 1.410184
O10   O     O_3   0.840990 0.564670 0.513070 -0.371895
C5    C     C_R   0.836278 0.105041 0.606972 -0.164545
H1    H     H_    0.830172 0.156128 0.513951 0.102566
H2    H     H_    0.805550 0.979757 0.690101 0.116716
H3    H     H_    0.820022 0.025269 0.580110 0.112603
C6    C     C_R   0.849232 0.282795 0.603066 -0.036482
C7    C     C_R   0.914476 0.316582 0.930306 -0.200041
C8    C     C_R   0.976096 0.387214 0.894694 -0.157891
C9    C     C_R   0.990411 0.360412 0.822974 0.139530
C10   C     C_R   0.907216 0.264949 0.785847 0.056617
C11   C     C_R   0.865144 0.189386 0.823026 0.038287
C12   C     C_R   0.877107 0.238112 0.713372 0.072994
C13   C     C_R   0.849785 0.133709 0.678719 0.141816
C14   C     C_R   0.829346 0.059435 0.715999 -0.215949
C15   C     C_R   0.828700 0.087353 0.787062 -0.196126
C16   C     C_R   0.859708 0.311788 0.674586 -0.215002
C17   C     C_R   0.840332 0.179235 0.569271 -0.176332
C18   C     C_R   0.870457 0.216206 0.895512 -0.080772
H4    H     H_    0.840817 0.391367 0.699127 0.096031
H5    H     H_    0.919620 0.337653 0.985777 0.107863
H6    H     H_    0.029375 0.460664 0.924118 0.114347
H7    H     H_    0.802689 0.027612 0.813618 0.121865
C19   C     C_3   0.679944 0.225157 0.227764 0.189221
C20   C     C_3   0.772272 0.201906 0.291913 -0.196380
H8    H     H_    0.702093 0.159929 0.326605 0.104074
C21   C     C_3   0.847037 0.313276 0.312373 -0.037651
C22   C     C_3   0.752677 0.337196 0.249164 -0.118671
C23   C     C_3   0.938585 0.305019 0.207688 -0.172293
C24   C     C_3   0.033450 0.283130 0.272259 -0.098254
C25   C     C_3   0.959700 0.170506 0.250894 -0.161917
C26   C     C_3   0.864473 0.193006 0.186858 -0.032400
H9    H     H_    0.669103 0.407107 0.249781 0.096181
H10   H     H_    0.005258 0.348168 0.173048 0.106483
H11   H     H_    0.173789 0.314482 0.294166 0.124018
H12   H     H_    0.046495 0.102112 0.251464 0.114628
C27   C     C_3   0.451594 0.795595 0.706773 -0.145108
C28   C     C_3   0.271520 0.839212 0.748662 -0.140913
H13   H     H_    0.200769 0.912482 0.748129 0.113304
H14   H     H_    0.530431 0.832199 0.670948 0.097078
C29   C     C_3   0.358304 0.811900 0.812153 -0.003405
C30   C     C_3   0.538804 0.769169 0.771068 -0.116269
C31   C     C_3   0.441471 0.662038 0.751109 -0.137765
C32   C     C_3   0.261362 0.705612 0.792940 -0.146298
C33   C     C_3   0.174152 0.732062 0.728657 -0.116670
C34   C     C_3   0.354683 0.689206 0.687575 -0.001306
H15   H     H_    0.689799 0.784722 0.788708 0.106937
H16   H     H_    0.513298 0.589209 0.751818 0.098143
H17   H     H_    0.182019 0.669632 0.828943 0.092643
H18   H     H_    0.023137 0.716604 0.711028 0.106953
C35   C     C_R   0.385247 0.889299 0.388580 -0.161483
H19   H     H_    0.410938 0.840385 0.481637 0.112233
H20   H     H_    0.351023 0.015369 0.307183 0.112827
H21   H     H_    0.400842 0.969408 0.414799 0.119153
C36   C     C_R   0.356333 0.713554 0.394878 -0.026691
C37   C     C_R   0.386775 0.679139 0.065047 -0.168579
C38   C     C_R   0.410730 0.603170 0.100088 -0.123237
C39   C     C_R   0.403160 0.627003 0.171313 -0.178729
C40   C     C_R   0.360586 0.727097 0.209530 0.078257
C41   C     C_R   0.346866 0.805550 0.173392 0.080178
C42   C     C_R   0.349517 0.753881 0.282739 0.025935
C43   C     C_R   0.362459 0.859465 0.317354 0.122955
C44   C     C_R   0.349947 0.934920 0.280853 -0.203744
C45   C     C_R   0.333078 0.908146 0.210210 -0.205417
C46   C     C_R   0.325792 0.681652 0.323755 0.134378
C47   C     C_R   0.390030 0.816292 0.426704 -0.241354
C48   C     C_R   0.358485 0.780434 0.101050 -0.076323
H22   H     H_    0.398985 0.659734 0.009750 0.097507
H23   H     H_    0.442102 0.566946 0.195249 0.115342
H24   H     H_    0.442039 0.525797 0.072001 0.118088
H25   H     H_    0.317290 0.969072 0.184428 0.108294
O11   O     O_R   0.203580 0.914920 0.912610 -0.538911
O12   O     O_R   0.535710 0.887810 0.047120 -0.537600
O13   O     O_R   0.710730 0.084950 0.087430 -0.537799
C49   C     C_R   0.366453 0.859920 0.062745 0.687976
O14   O     O_R   0.533010 0.902850 0.910600 -0.545939
O15   O     O_R   0.708010 0.100090 0.949930 -0.540274
C50   C     C_R   0.364533 0.881550 0.882961 0.677863
O16   O     O_R   0.206300 0.899780 0.050100 -0.538498
O17   O     O_3   0.375170 0.064580 0.013100 -0.369157
V3    V     V_3+5 0.648200 0.988020 0.997570 1.408977
O18   O     O_R   0.038030 0.112330 0.952840 -0.538652
C51   C     C_R   0.870419 0.138165 0.935409 0.694219
O19   O     O_R   0.040730 0.097300 0.089360 -0.547861
C52   C     C_R   0.872482 0.120825 0.116440 0.675912
V4    V     V_3+5 0.148780 0.012220 0.002360 1.403267
O20   O     O_3   0.871930 0.935430 0.986900 -0.368005
C53   C     C_3   0.476714 0.195308 0.202451 -0.348928
C54   C     C_3   0.408718 0.262294 0.155853 -0.705034
H26   H     H_    0.384822 0.341822 0.186032 0.190011
H27   H     H_    0.515828 0.263432 0.115211 0.217455
H28   H     H_    0.272242 0.232314 0.130799 0.233381
H29   H     H_    0.470496 0.113811 0.174804 0.186935
H30   H     H_    0.382887 0.202867 0.247276 0.155216
N1    N     N_3   0.241476 0.581629 0.297837 -0.690708
H31   H     H_    0.349009 0.526544 0.287757 0.205981
H32   H     H_    0.153909 0.578772 0.255238 0.238031
C55   C     C_3   0.131457 0.424591 0.792152 -0.371987
C56   C     C_3   0.298095 0.360816 0.755542 -0.709610
H33   H     H_    0.369882 0.320388 0.790563 0.228829
H34   H     H_    0.248080 0.303810 0.709137 0.233747
H35   H     H_    0.405464 0.411697 0.739319 0.200082
H36   H     H_    0.063046 0.467659 0.758633 0.165313
H37   H     H_    0.197705 0.485595 0.833378 0.167654

loop_
_geom_bond_atom_site_label_1
_geom_bond_atom_site_label_2
_ccdc_geom_bond_type
C24   H11   S    
C26   C52   S    
C42   C43   A    
C30   H15   S    
C21   C22   S    
H20   C44   S    
C1    O6    A    
O14   V3    S    
C20   C21   S    
C44   C45   A    
C28   H13   S    
C7    H5    S    
C6    C16   A    
C33   H18   S    
C14   C15   A    
C35   C43   A    
C4    C6    S    
C13   C14   A    
C38   H24   S    
N1    H32   S    
O5    C3    A    
C55   H36   S    
V2    O10   S    
O19   C52   A    
C5    H3    S    
C30   C31   S    
C27   C30   S    
C40   C41   A    
C37   C48   A    
O8    V2    S    
O12   V3    S    
C8    C9    A    
C53   H30   S    
C37   C38   A    
O1    V2    S    
O11   V4    S    
C23   H10   S    
C28   C29   S    
C20   C25   S    
C56   H35   S    
C48   C49   S    
O13   V3    S    
C33   C34   S    
C35   C47   A    
O9    C4    A    
C49   O16   A    
C40   C42   A    
C53   C54   S    
C55   C56   S    
C6    C17   A    
C46   N1    S    
C12   C16   A    
C27   C28   S    
O13   C52   A    
C31   H16   S    
C9    C10   A    
C20   H8    S    
O4    C2    A    
C31   C34   S    
C32   C33   S    
C25   C26   S    
O15   C51   A    
C15   H7    S    
O2    C1    A    
C23   C24   S    
C2    C36   S    
C29   C50   S    
C28   C33   S    
C11   C18   A    
O14   C50   A    
O17   V4    S    
C35   H21   S    
O18   C51   A    
C1    C34   S    
C29   C30   S    
C16   H4    S    
C53   H29   S    
C54   H27   S    
C43   C44   A    
O16   V4    S    
O3    C4    A    
C45   H25   S    
C11   C15   A    
O6    V2    S    
O19   V4    S    
O12   C49   A    
C21   C24   S    
C36   C46   A    
H1    C17   S    
C22   C23   S    
C41   C48   A    
O2    V1    S    
C12   C13   A    
C24   C25   S    
C3    C21   S    
C56   H33   S    
O7    V1    S    
C32   H17   S    
C7    C18   A    
O1    C2    A    
C5    C13   A    
C39   C40   A    
O5    V1    S    
O8    C3    A    
C19   C22   S    
C10   C12   A    
H19   C47   S    
C27   H14   S    
O9    V2    S    
C10   C11   A    
C38   C39   A    
C19   C53   S    
O3    V1    S    
O11   C50   A    
N1    H31   S    
C55   H37   S    
C31   C32   S    
C19   C20   S    
C25   H12   S    
O18   V4    S    
V4    O20   S    
C54   H28   S    
C18   C51   S    
C22   H9    S    
O7    V2    S    
O17   V3    S    
C37   H22   S    
C23   C26   S    
C9    C55   S    
C19   C26   S    
C39   H23   S    
O15   V3    S    
O4    V1    S    
C8    H6    S    
C41   C45   A    
C29   C32   S    
C54   H26   S    
C5    C17   A    
C7    C8    A    
C36   C47   A    
V1    O10   S    
C27   C34   S    
C42   C46   A    
V3    O20   S    
C56   H34   S    
H2    C14   S    
