data_mof_unit_15186.cif
_audit_creation_date              2012-10-26T21:12:34-0400
_audit_creation_method            fapswitch 2.2
_symmetry_space_group_name_H-M    P1
_symmetry_Int_Tables_number       1
_space_group_crystal_system       triclinic
_cell_length_a                    23.536293
_cell_length_b                    10.862426
_cell_length_c                    9.589111
_cell_angle_alpha                 90.740848
_cell_angle_beta                  89.718981
_cell_angle_gamma                 94.028086
_cell_volume                      2445.28395062

loop_
_atom_site_label
_atom_site_type_symbol
_atom_type_description
_atom_site_fract_x
_atom_site_fract_y
_atom_site_fract_z
_atom_type_partial_charge
C1    C     C_R   0.504691 0.263519 0.499776 0.527239
C2    C     C_R   0.122355 0.599164 0.446338 0.409524
C3    C     C_R   0.238271 0.507488 0.626497 -0.010122
C4    C     C_R   0.390920 0.499817 0.500491 0.568274
C5    C     C_R   0.297488 0.507172 0.627946 0.359413
C6    C     C_R   0.328170 0.500466 0.501521 0.006891
C7    C     C_R   0.298120 0.494439 0.374827 -0.194745
C8    C     C_R   0.238875 0.494672 0.374219 -0.071974
C9    C     C_R   0.208751 0.501039 0.500028 0.176588
C10   C     C_R   0.760774 0.432895 0.388919 0.063648
C11   C     C_R   0.700321 0.431492 0.386771 -0.009550
C12   C     C_R   0.963968 0.300002 0.615951 -0.114874
C13   C     C_R   0.671419 0.489758 0.497548 -0.049258
C14   C     C_R   0.702817 0.546664 0.607407 -0.131067
C15   C     C_R   0.761832 0.550666 0.606979 -0.058310
C16   C     C_R   0.497393 0.737666 0.502005 0.574458
C17   C     C_R   0.790925 0.495365 0.498657 0.187566
C18   C     C_R   0.543956 0.128979 0.747561 -0.081089
C19   C     C_R   0.540708 0.072611 0.877195 -0.118888
C20   C     C_R   0.513175 0.956060 0.889557 -0.122507
C21   C     C_R   0.494195 0.890970 0.770426 -0.051273
C22   C     C_R   0.503058 0.941588 0.635521 0.047917
C23   C     C_R   0.023242 0.300051 0.614294 -0.118035
C24   C     C_R   0.519733 0.068445 0.627785 0.027214
C25   C     C_R   0.510586 0.130364 0.501332 -0.008027
C26   C     C_R   0.499207 0.062311 0.378668 -0.153139
C27   C     C_R   0.494511 0.934876 0.381251 -0.157166
C28   C     C_R   0.608859 0.496143 0.499296 0.552620
C29   C     C_R   0.496035 0.872574 0.508138 0.002483
C30   C     C_R   0.576903 0.662868 0.150922 -0.094749
C31   C     C_R   0.615801 0.743216 0.085108 -0.220842
C32   C     C_R   0.617281 0.746216 0.942783 -0.098015
C33   C     C_R   0.579867 0.669568 0.863966 0.381172
C34   C     C_R   0.056571 0.399882 0.557995 0.029757
C35   C     C_R   0.538650 0.582120 0.926929 0.143357
C36   C     C_R   0.538098 0.580759 0.077018 0.113386
C37   C     C_R   0.463997 0.422827 0.073020 0.004253
C38   C     C_R   0.464005 0.422821 0.925199 0.016698
C39   C     C_R   0.883289 0.597948 0.450468 0.392150
C40   C     C_R   0.877258 0.401000 0.560031 0.402312
C41   C     C_R   0.936796 0.399685 0.561136 0.028610
C42   C     C_R   0.969805 0.500452 0.504781 -0.027853
C43   C     C_R   0.942980 0.600928 0.449540 0.028644
C44   C     C_2   0.667282 0.369220 0.271116 0.306423
C45   C     C_R   0.029775 0.500542 0.503249 -0.027342
C46   C     C_2   0.793770 0.366873 0.282129 0.319069
C47   C     C_R   0.062799 0.601147 0.446691 0.029333
C48   C     C_R   0.035615 0.701128 0.392487 -0.117781
C49   C     C_R   0.976320 0.701000 0.393859 -0.117398
C50   C     C_R   0.116215 0.401707 0.554724 0.405499
Cu1   Cu    Cu3+1 0.500000 0.499990 0.640660 1.041522
Cu2   Cu    Cu3+1 0.500000 0.500010 0.359340 0.942669
F1    F     F_    0.587013 0.691226 0.728162 -0.629062
F2    F     F_    0.324308 0.513831 0.753110 -0.624510
H1    H     H_    0.939548 0.221469 0.659828 0.176708
H2    H     H_    0.434452 0.359467 0.127654 0.122375
H3    H     H_    0.042816 0.221602 0.657121 0.173641
H4    H     H_    0.579592 0.670352 0.260633 0.208984
H5    H     H_    0.644845 0.804420 0.145409 0.155824
H6    H     H_    0.647620 0.810744 0.891863 0.169662
H7    H     H_    0.434495 0.359476 0.869299 0.149188
H8    H     H_    0.060032 0.779663 0.348606 0.174467
H9    H     H_    0.956730 0.779349 0.350845 0.174787
H10   H     H_    0.215125 0.512961 0.724026 0.159179
H11   H     H_    0.320315 0.489105 0.275966 0.158411
H12   H     H_    0.681755 0.590996 0.692958 0.187317
H13   H     H_    0.216292 0.489291 0.275969 0.160251
H14   H     H_    0.629347 0.310095 0.293804 0.110526
H15   H     H_    0.836838 0.401110 0.255632 0.114555
H16   H     H_    0.785293 0.596556 0.691977 0.149498
H17   H     H_    0.493575 0.107501 0.280113 0.137248
H18   H     H_    0.566308 0.219205 0.742230 0.151524
H19   H     H_    0.557937 0.121031 0.968684 0.129088
H20   H     H_    0.507427 0.914855 0.991344 0.109672
H21   H     H_    0.470712 0.803812 0.788074 0.156028
H22   H     H_    0.488399 0.885115 0.283207 0.138847
N1    N     N_R   0.851909 0.498606 0.504140 -0.418399
N2    N     N_R   0.147760 0.500436 0.499780 -0.396885
N3    N     N_R   0.500540 0.501210 0.147910 -0.243609
N4    N     N_R   0.500560 0.501290 0.852040 -0.245270
O1    O     O_R   0.500000 0.319640 0.618810 -0.524522
O2    O     O_R   0.582120 0.500020 0.618760 -0.428834
O3    O     O_R   0.582120 0.500050 0.381190 -0.534579
O4    O     O_2   0.856725 0.692787 0.397157 -0.478250
O5    O     O_2   0.680886 0.387307 0.149674 -0.460970
O6    O     O_2   0.774575 0.270678 0.227747 -0.445138
O7    O     O_2   0.844856 0.305364 0.613364 -0.465490
O8    O     O_2   0.142521 0.305277 0.605145 -0.483683
O9    O     O_2   0.154663 0.695530 0.394278 -0.481577
O10   O     O_R   0.500000 0.319660 0.381240 -0.516477
O11   O     O_R   0.417880 0.499950 0.618810 -0.434070
O12   O     O_R   0.417880 0.499980 0.381240 -0.516905
O13   O     O_R   0.500000 0.680340 0.618760 -0.438596
O14   O     O_R   0.500000 0.680360 0.381190 -0.535639

loop_
_geom_bond_atom_site_label_1
_geom_bond_atom_site_label_2
_ccdc_geom_bond_type
C1    O10   A    
C49   H9    S    
C22   C29   A    
C27   C29   A    
C33   F1    S    
C41   C42   A    
Cu2   O10   S    
C19   C20   A    
C7    C8    A    
C3    H10   S    
C37   N3    A    
C12   C23   A    
C16   O13   A    
C12   C41   A    
C3    C9    A    
C39   N1    A    
C40   O7    S    
C39   O4    S    
C30   C31   A    
C10   C17   A    
C1    O1    A    
C35   N4    A    
C15   C17   A    
C18   C19   A    
C31   H5    S    
Cu1   N4    S    
C2    O9    S    
Cu1   O11   S    
C37   H2    S    
C31   C32   A    
C8    C9    A    
C46   H15   S    
C10   C46   S    
C13   C28   S    
Cu2   O14   S    
C18   C24   A    
Cu2   N3    S    
Cu1   O1    S    
C50   O8    S    
C38   H7    S    
C13   C14   A    
C28   O3    A    
C1    C25   S    
C26   H17   S    
C50   N2    A    
C45   C47   A    
C18   H18   S    
C34   C50   A    
C28   O2    A    
Cu1   Cu2   S    
C5    F2    S    
C19   H19   S    
C24   C25   A    
C4    C6    S    
C43   C49   A    
C39   C43   A    
C25   C26   A    
C42   C45   A    
Cu2   O3    S    
C37   C38   A    
C2    N2    A    
C7    H11   S    
C48   H8    S    
C47   C48   A    
C23   C34   A    
C17   N1    S    
C14   H12   S    
C20   H20   S    
C11   C44   S    
C34   C45   A    
Cu1   O2    S    
Cu1   O13   S    
C48   C49   A    
C26   C27   A    
C22   C24   A    
Cu2   O12   S    
C42   C43   A    
C32   H6    S    
C44   O5    D    
C23   H3    S    
C15   H16   S    
C40   C41   A    
C14   C15   A    
C3    C5    A    
C36   N3    A    
C6    C7    A    
C2    C47   A    
C21   H21   S    
C16   O14   A    
C30   C36   A    
C32   C33   A    
C4    O11   A    
C16   C29   S    
C11   C13   A    
C5    C6    A    
C38   N4    A    
C30   H4    S    
C33   C35   A    
C9    N2    S    
C12   H1    S    
C44   H14   S    
C10   C11   A    
C20   C21   A    
C8    H13   S    
C40   N1    A    
C35   C36   A    
C46   O6    D    
C21   C22   A    
C27   H22   S    
C4    O12   A    
