data_mof_unit_28231.cif
_audit_creation_date              2012-12-10T19:46:34-0500
_audit_creation_method            fapswitch 2.2
_symmetry_space_group_name_H-M    P1
_symmetry_Int_Tables_number       1
_space_group_crystal_system       triclinic
_cell_length_a                    12.904027
_cell_length_b                    14.980161
_cell_length_c                    14.183158
_cell_angle_alpha                 89.330403
_cell_angle_beta                  96.927053
_cell_angle_gamma                 90.730054
_cell_volume                      2721.29089169

loop_
_atom_site_label
_atom_site_type_symbol
_atom_type_description
_atom_site_fract_x
_atom_site_fract_y
_atom_site_fract_z
_atom_type_partial_charge
C1    C     C_R   0.500229 0.327723 0.500377 0.877243
C2    C     C_R   0.499645 0.672128 0.499434 0.879444
C3    C     C_R   0.497639 0.231770 0.500192 -0.095141
C4    C     C_R   0.496277 0.767737 0.497904 -0.080939
C5    C     C_R   0.535868 0.186188 0.426379 -0.222634
C6    C     C_R   0.539821 0.814912 0.577594 -0.219953
C7    C     C_R   0.531601 0.094111 0.425206 -0.166406
C8    C     C_R   0.536646 0.906821 0.576303 -0.168095
C9    C     C_R   0.486995 0.047697 0.496577 0.028697
C10   C     C_R   0.487453 0.951461 0.496410 0.025864
C11   C     C_R   0.417329 0.463056 0.096423 -0.284478
C12   C     C_R   0.531283 0.576902 0.896859 -0.285698
C13   C     C_R   0.420042 0.460702 0.195765 -0.122973
C14   C     C_R   0.532873 0.574191 0.797929 -0.113918
C15   C     C_R   0.578299 0.543784 0.213035 0.476482
C16   C     C_R   0.464587 0.426854 0.793669 0.488806
C17   C     C_R   0.583450 0.540469 0.113817 0.258768
C18   C     C_R   0.470526 0.424198 0.893932 0.288780
C19   C     C_R   0.500065 0.502267 0.053459 0.020465
C20   C     C_R   0.500172 0.501327 0.946917 0.004449
C21   C     C_R   0.298094 0.502082 0.481362 0.891925
C22   C     C_R   0.702002 0.500097 0.518679 0.895928
C23   C     C_R   0.814333 0.500392 0.530630 -0.178208
C24   C     C_R   0.186031 0.507878 0.469846 -0.166039
C25   C     C_R   0.020229 0.529949 0.374731 -0.314083
C26   C     C_R   0.980691 0.484876 0.626416 -0.307393
C27   C     C_R   0.128550 0.528320 0.381352 0.471192
C28   C     C_R   0.872542 0.484225 0.619924 0.463654
C29   C     C_R   0.136159 0.495410 0.550960 -0.337325
C30   C     C_R   0.864024 0.515857 0.449706 -0.319310
C31   C     C_R   0.029453 0.498633 0.544814 0.127952
C32   C     C_R   0.971005 0.514924 0.456027 0.109507
C33   C     C_R   0.445943 0.093222 0.569481 0.463738
C34   C     C_R   0.440564 0.904498 0.417014 0.477842
C35   C     C_R   0.454007 0.185446 0.572038 -0.298238
C36   C     C_R   0.448089 0.811976 0.417283 -0.331570
N1    N     N_R   0.500000 0.499980 0.252470 -0.149867
N2    N     N_R   0.500000 0.500020 0.747530 -0.151418
O1    O     O_R   0.500010 0.369070 0.579480 -0.577756
O2    O     O_R   0.499990 0.630930 0.420520 -0.618423
O3    O     O_R   0.500010 0.369060 0.420520 -0.628448
O4    O     O_R   0.499990 0.630940 0.579480 -0.631906
O5    O     O_R   0.346360 0.499990 0.566340 -0.641147
O6    O     O_R   0.653640 0.500010 0.433660 -0.578099
O7    O     O_R   0.346360 0.499980 0.407390 -0.575753
O8    O     O_R   0.653640 0.500020 0.592610 -0.571356
Zn1   Zn    Zn3+2 0.500000 0.500010 0.606140 0.975626
Zn2   Zn    Zn3+2 0.500000 0.499990 0.393860 0.975468
H1    H     H_    0.819732 0.528519 0.381113 0.228131
H2    H     H_    0.180090 0.482415 0.619573 0.164732
O9    O     O_3   0.656345 0.586376 0.271550 -0.601039
C37   C     C_3   0.644455 0.679729 0.261359 0.137936
H3    H     H_    0.562972 0.700306 0.268047 0.135378
H4    H     H_    0.665602 0.703237 0.191472 0.172061
C38   C     C_3   0.717325 0.725739 0.338708 -0.821209
H5    H     H_    0.706974 0.799163 0.333046 0.207394
H6    H     H_    0.699860 0.702792 0.409875 0.259697
H7    H     H_    0.799707 0.709868 0.330951 0.242247
O10   O     O_3   0.427830 0.352713 0.742858 -0.604575
C39   C     C_3   0.317197 0.352621 0.728393 0.158714
H8    H     H_    0.292590 0.349326 0.650760 0.155817
H9    H     H_    0.280295 0.412991 0.755027 0.098271
C40   C     C_3   0.273636 0.269785 0.773969 -0.867568
H10   H     H_    0.281784 0.276286 0.852275 0.289798
H11   H     H_    0.189378 0.261758 0.748009 0.196987
H12   H     H_    0.315319 0.209237 0.755687 0.269693
O11   O     O_3   0.669245 0.576263 0.076610 -0.621671
C41   C     C_3   0.747065 0.510517 0.080847 0.128626
H13   H     H_    0.718598 0.451144 0.038328 0.121612
H14   H     H_    0.772184 0.489412 0.155640 0.152654
C42   C     C_3   0.841673 0.548930 0.039553 -0.816892
H15   H     H_    0.873076 0.607652 0.081309 0.253660
H16   H     H_    0.903368 0.497650 0.042092 0.204370
H17   H     H_    0.819373 0.569783 0.964498 0.269496
O12   O     O_3   0.444224 0.346519 0.939264 -0.612541
C43   C     C_3   0.532493 0.291108 0.952469 0.130465
H18   H     H_    0.598729 0.324921 0.996229 0.115121
H19   H     H_    0.557349 0.271854 0.883033 0.168804
C44   C     C_3   0.504896 0.206377 0.004419 -0.810814
H20   H     H_    0.439796 0.170380 0.961898 0.260936
H21   H     H_    0.573786 0.162135 0.015494 0.202608
H22   H     H_    0.480856 0.223293 0.074618 0.255954
O13   O     O_3   0.824807 0.473523 0.701640 -0.589110
C45   C     C_3   0.820588 0.381663 0.724454 0.135664
H23   H     H_    0.900503 0.353804 0.740288 0.119928
H24   H     H_    0.776334 0.343660 0.665213 0.130905
C46   C     C_3   0.764791 0.369242 0.812342 -0.822552
H25   H     H_    0.684604 0.396035 0.798705 0.257999
H26   H     H_    0.759949 0.297155 0.830622 0.191473
H27   H     H_    0.808050 0.404979 0.873328 0.248149
O14   O     O_3   0.177547 0.543339 0.301013 -0.598017
C47   C     C_3   0.183408 0.636347 0.284448 0.109460
H28   H     H_    0.215552 0.672860 0.349914 0.114537
H29   H     H_    0.104743 0.662614 0.258229 0.133356
C48   C     C_3   0.255701 0.654729 0.209124 -0.823110
H30   H     H_    0.229007 0.616563 0.143826 0.260594
H31   H     H_    0.255828 0.727047 0.191161 0.193702
H32   H     H_    0.336516 0.634927 0.236314 0.257175
H33   H     H_    0.975132 0.543018 0.306484 0.155254
H34   H     H_    0.026134 0.473961 0.694942 0.148941
O15   O     O_3   0.403008 0.047572 0.640903 -0.618237
C49   C     C_3   0.293692 0.043744 0.617090 0.089079
H35   H     H_    0.272636 0.007326 0.549358 0.133001
H36   H     H_    0.259999 0.111980 0.610277 0.133102
C50   C     C_3   0.245295 0.993887 0.695204 -0.816128
H37   H     H_    0.263886 0.029220 0.763693 0.255848
H38   H     H_    0.159189 0.990266 0.677194 0.201720
H39   H     H_    0.276310 0.925009 0.702820 0.260706
O16   O     O_3   0.393710 0.950169 0.337985 -0.619887
C51   C     C_3   0.285537 0.930821 0.325446 0.090554
H40   H     H_    0.250421 0.937576 0.393041 0.119046
H41   H     H_    0.270487 0.862170 0.297731 0.134815
C52   C     C_3   0.231564 0.996297 0.253484 -0.815805
H42   H     H_    0.263320 0.990315 0.184473 0.259095
H43   H     H_    0.146395 0.981696 0.242688 0.199598
H44   H     H_    0.244355 0.065646 0.279655 0.256585
H45   H     H_    0.424064 0.220454 0.628806 0.210669
H46   H     H_    0.415305 0.774808 0.355469 0.154166
H47   H     H_    0.570415 0.221622 0.370661 0.165639
H48   H     H_    0.577971 0.780819 0.639869 0.157789
H49   H     H_    0.564155 0.058931 0.369476 0.172322
H50   H     H_    0.573234 0.943339 0.637212 0.174667
H51   H     H_    0.350484 0.434208 0.053516 0.209696
H52   H     H_    0.554018 0.638205 0.933787 0.207974
H53   H     H_    0.356807 0.428887 0.227542 0.197438
H54   H     H_    0.559192 0.632374 0.761365 0.172094

loop_
_geom_bond_atom_site_label_1
_geom_bond_atom_site_label_2
_ccdc_geom_bond_type
C38   H5    S    
C4    C36   A    
O15   C49   S    
C48   H30   S    
C43   C44   S    
C46   H25   S    
C40   H11   S    
C48   H32   S    
C50   H38   S    
C11   C19   A    
C18   O12   S    
C5    H47   S    
C39   C40   S    
C33   O15   S    
C43   H19   S    
C49   C50   S    
C39   H9    S    
O2    Zn2   S    
C24   C29   A    
C15   N1    A    
C42   H17   S    
C33   C35   A    
C21   O5    A    
C25   H33   S    
C22   O6    A    
C31   C32   A    
C41   H13   S    
C24   C27   A    
C27   O14   S    
C15   O9    S    
C36   H46   S    
C9    C10   S    
C13   N1    A    
C46   H27   S    
C37   C38   S    
C52   H44   S    
C13   H53   S    
C25   C32   A    
C40   H12   S    
C26   C31   A    
C28   O13   S    
C9    C33   A    
C7    H49   S    
C6    H48   S    
C37   H4    S    
C21   O7    A    
C29   H2    S    
C50   H39   S    
C17   O11   S    
O11   C41   S    
C23   C30   A    
C45   H23   S    
C4    C6    A    
O14   C47   S    
C5    C7    A    
C6    C8    A    
C51   H40   S    
C47   C48   S    
O9    C37   S    
C39   H8    S    
C1    C3    S    
C16   O10   S    
C2    C4    S    
O12   C43   S    
C14   N2    A    
O13   C45   S    
C12   H52   S    
C3    C35   A    
C34   O16   S    
C12   C20   A    
C47   H29   S    
C10   C34   A    
C23   C28   A    
C43   H18   S    
N1    Zn2   S    
C49   H36   S    
C51   C52   S    
N2    Zn1   S    
C1    O3    A    
C22   O8    A    
C30   H1    S    
C12   C14   A    
C46   H26   S    
C38   H7    S    
C37   H3    S    
O1    Zn1   S    
C52   H42   S    
O7    Zn2   S    
C7    C9    A    
O8    Zn1   S    
C8    C10   A    
C11   H51   S    
C45   H24   S    
C40   H10   S    
C3    C5    A    
C44   H22   S    
C48   H31   S    
C15   C17   A    
C18   C20   A    
C26   H34   S    
C45   C46   S    
C25   C27   A    
C50   H37   S    
C26   C28   A    
C14   H54   S    
C19   C20   S    
C38   H6    S    
C42   H15   S    
C29   C31   A    
O16   C51   S    
C30   C32   A    
C11   C13   A    
C8    H50   S    
C2    O4    A    
C41   C42   S    
C47   H28   S    
C17   C19   A    
O3    Zn2   S    
C34   C36   A    
O4    Zn1   S    
C44   H21   S    
C49   H35   S    
C51   H41   S    
C35   H45   S    
C1    O1    A    
C44   H20   S    
C2    O2    A    
O10   C39   S    
C16   C18   A    
C21   C24   S    
C42   H16   S    
C41   H14   S    
C22   C23   S    
O5    Zn1   S    
O6    Zn2   S    
C16   N2    A    
C52   H43   S    
