data_mof_unit_43151.cif
_audit_creation_date              2012-10-26T19:31:23-0400
_audit_creation_method            fapswitch 2.2
_symmetry_space_group_name_H-M    P1
_symmetry_Int_Tables_number       1
_space_group_crystal_system       triclinic
_cell_length_a                    14.63054
_cell_length_b                    15.864071
_cell_length_c                    17.286542
_cell_angle_alpha                 89.880257
_cell_angle_beta                  85.994476
_cell_angle_gamma                 89.659931
_cell_volume                      4002.32843262

loop_
_atom_site_label
_atom_site_type_symbol
_atom_type_description
_atom_site_fract_x
_atom_site_fract_y
_atom_site_fract_z
_atom_type_partial_charge
C1    C     C_R   0.499766 0.660534 0.500032 0.546576
C2    C     C_3   0.558206 0.027235 0.552558 -0.133823
C3    C     C_3   0.499157 0.917166 0.500217 0.026184
C4    C     C_3   0.503105 0.082797 0.498577 0.026332
C5    C     C_1   0.498992 0.825618 0.500291 -0.023880
C6    C     C_1   0.502393 0.174364 0.498773 -0.025060
C7    C     C_3   0.028909 0.427982 0.527709 0.290422
C8    C     C_3   0.971294 0.574139 0.473581 0.233534
C9    C     C_3   0.963729 0.490414 0.572091 0.283499
C10   C     C_3   0.035800 0.511603 0.428695 0.245222
C11   C     C_3   0.973001 0.436586 0.454556 -0.192485
C12   C     C_R   0.500302 0.339458 0.499840 0.542329
C13   C     C_3   0.026982 0.565124 0.546712 -0.184692
C14   C     C_3   0.907875 0.500099 0.500033 -0.046502
C15   C     C_3   0.091972 0.501627 0.501002 -0.025726
C16   C     C_R   0.488241 0.496125 0.650183 0.544376
C17   C     C_R   0.511726 0.501970 0.349671 0.543932
C18   C     C_1   0.805635 0.500120 0.500091 0.158733
C19   C     C_1   0.194304 0.500626 0.500302 0.182909
C20   C     C_R   0.480836 0.485300 0.734407 -0.016121
C21   C     C_R   0.518366 0.501632 0.264898 -0.012012
C22   C     C_R   0.544706 0.436024 0.772958 -0.027467
C23   C     C_3   0.531045 0.027107 0.427480 -0.134583
C24   C     C_R   0.452526 0.542762 0.221768 -0.026124
C25   C     C_R   0.534079 0.428844 0.853553 -0.139877
C26   C     C_R   0.459945 0.535949 0.141166 -0.136851
C27   C     C_R   0.460889 0.468760 0.895832 0.024545
C28   C     C_R   0.530219 0.487889 0.103212 0.036166
C29   C     C_R   0.392753 0.510496 0.856601 0.282733
C30   C     C_R   0.597131 0.449187 0.145722 0.274208
C31   C     C_R   0.405024 0.521010 0.776565 -0.116088
C32   C     C_R   0.591761 0.458062 0.226437 -0.129684
C33   C     C_2   0.457490 0.470592 0.980866 -0.135920
C34   C     C_3   0.471345 0.972852 0.571324 -0.139967
C35   C     C_2   0.534005 0.478189 0.018707 -0.120535
C36   C     C_3   0.622589 0.389013 0.730042 -0.366765
C37   C     C_3   0.375993 0.595920 0.259547 -0.368485
C38   C     C_3   0.052027 0.282406 0.520092 0.018592
C39   C     C_3   0.956946 0.243715 0.537671 -0.259318
C40   C     C_3   0.941800 0.169078 0.484738 -0.503575
C41   C     C_3   0.004484 0.710258 0.433632 0.013103
C42   C     C_3   0.967778 0.785126 0.389167 -0.255277
C43   C     C_3   0.040091 0.853440 0.375366 -0.497567
C44   C     C_3   0.247015 0.489512 0.909655 -0.004118
C45   C     C_3   0.584361 0.970842 0.481863 0.303854
C46   C     C_3   0.185412 0.487800 0.841369 -0.266187
C47   C     C_3   0.102420 0.431350 0.858825 -0.476764
C48   C     C_3   0.671634 0.320551 0.130046 0.004950
C49   C     C_3   0.763617 0.300483 0.163097 -0.260708
C50   C     C_3   0.770250 0.207966 0.186473 -0.491542
C51   C     C_3   0.737712 0.995015 0.443792 0.007004
C52   C     C_3   0.769444 0.984663 0.358134 -0.256595
C53   C     C_3   0.845292 0.046714 0.333595 -0.501280
C54   C     C_3   0.267425 0.004196 0.558880 0.011961
C55   C     C_3   0.171519 0.043302 0.565363 -0.254001
C56   C     C_3   0.417919 0.029065 0.516944 0.294979
C57   C     C_3   0.100053 0.980390 0.597650 -0.492364
C58   C     C_3   0.879164 0.544157 0.679958 0.010251
C59   C     C_3   0.930637 0.578658 0.746977 -0.265105
C60   C     C_3   0.883019 0.656568 0.782707 -0.482809
C61   C     C_3   0.012587 0.529425 0.297823 0.023535
C62   C     C_3   0.024068 0.453758 0.243305 -0.274398
C63   C     C_3   0.958293 0.459108 0.178712 -0.485034
C64   C     C_1   0.499209 0.750134 0.500188 -0.019273
C65   C     C_1   0.501296 0.249851 0.499250 -0.022268
C66   C     C_3   0.444158 0.972744 0.446219 -0.134572
Cu1   Cu    Cu3+1 0.409780 0.500000 0.499990 0.989822
Cu2   Cu    Cu3+1 0.590220 0.500000 0.500010 0.981904
H1    H     H_    0.048063 0.617045 0.584390 0.089365
H2    H     H_    0.446480 0.949259 0.629476 0.099553
H3    H     H_    0.606159 0.050717 0.594513 0.104479
H4    H     H_    0.396460 0.949261 0.404054 0.102996
H5    H     H_    0.659444 0.347280 0.769277 0.114601
H6    H     H_    0.595781 0.348781 0.684346 0.144355
H7    H     H_    0.673119 0.434190 0.703442 0.158731
H8    H     H_    0.338939 0.631784 0.216063 0.113286
H9    H     H_    0.325227 0.555134 0.292031 0.177947
H10   H     H_    0.404166 0.642306 0.299487 0.139282
H11   H     H_    0.104165 0.235858 0.536776 0.155256
H12   H     H_    0.950609 0.386003 0.415992 0.087802
H13   H     H_    0.067179 0.293875 0.456881 0.121645
H14   H     H_    0.950314 0.222278 0.599053 0.175501
H15   H     H_    0.902644 0.291564 0.529833 0.174575
H16   H     H_    0.945957 0.189861 0.423197 0.144641
H17   H     H_    0.872823 0.142197 0.499296 0.140746
H18   H     H_    0.993989 0.119261 0.492335 0.142833
H19   H     H_    0.066506 0.684938 0.400237 0.163151
H20   H     H_    0.023519 0.732526 0.491339 0.125249
H21   H     H_    0.946163 0.763123 0.332249 0.168819
H22   H     H_    0.906965 0.812363 0.422567 0.184608
H23   H     H_    0.643698 0.428720 0.259335 0.123170
H24   H     H_    0.060946 0.878110 0.431474 0.142087
H25   H     H_    0.011420 0.906246 0.342278 0.146210
H26   H     H_    0.101248 0.827825 0.341390 0.148114
H27   H     H_    0.204994 0.509748 0.962451 0.150344
H28   H     H_    0.272398 0.424651 0.921973 0.114353
H29   H     H_    0.161515 0.552778 0.829007 0.170942
H30   H     H_    0.224712 0.463261 0.788834 0.168061
H31   H     H_    0.124780 0.366399 0.872902 0.151173
H32   H     H_    0.061589 0.428418 0.807140 0.177793
H33   H     H_    0.058446 0.456957 0.908377 0.140071
H34   H     H_    0.355108 0.557785 0.747306 0.132765
H35   H     H_    0.665183 0.281541 0.077412 0.147076
H36   H     H_    0.614466 0.301387 0.172599 0.113910
H37   H     H_    0.820074 0.314994 0.118778 0.172001
H38   H     H_    0.772173 0.340333 0.214806 0.156436
H39   H     H_    0.716185 0.192617 0.232610 0.145753
H40   H     H_    0.838248 0.195605 0.209089 0.142763
H41   H     H_    0.762647 0.166591 0.135593 0.146731
H42   H     H_    0.797184 0.984047 0.479228 0.146240
H43   H     H_    0.714566 0.061367 0.455015 0.110894
H44   H     H_    0.795359 0.919350 0.347780 0.175737
H45   H     H_    0.600986 0.477597 0.987396 0.160963
H46   H     H_    0.710578 0.995292 0.321970 0.159198
H47   H     H_    0.820684 0.112531 0.342888 0.146146
H48   H     H_    0.866085 0.038087 0.271098 0.145938
H49   H     H_    0.905976 0.035499 0.367464 0.146627
H50   H     H_    0.283569 0.980271 0.616978 0.131855
H51   H     H_    0.267771 0.950670 0.517152 0.121524
H52   H     H_    0.170737 0.099073 0.604244 0.179206
H53   H     H_    0.153494 0.064606 0.507028 0.158730
H54   H     H_    0.099980 0.923611 0.560241 0.138170
H55   H     H_    0.030993 0.010049 0.599750 0.145170
H56   H     H_    0.390887 0.471479 0.012740 0.138087
H57   H     H_    0.114821 0.961083 0.657330 0.149969
H58   H     H_    0.810249 0.523408 0.703124 0.146264
H59   H     H_    0.867645 0.595628 0.637472 0.133405
H60   H     H_    0.934170 0.529323 0.792393 0.171143
H61   H     H_    0.001689 0.595326 0.725770 0.162498
H62   H     H_    0.880650 0.707653 0.738825 0.151606
H63   H     H_    0.921553 0.679453 0.831556 0.147403
H64   H     H_    0.812115 0.641032 0.805192 0.154399
H65   H     H_    0.025602 0.588102 0.263711 0.147814
H66   H     H_    0.940020 0.533053 0.322363 0.154446
H67   H     H_    0.410805 0.568708 0.107713 0.126473
H68   H     H_    0.095611 0.451476 0.217068 0.175049
H69   H     H_    0.010769 0.394705 0.276777 0.156100
H70   H     H_    0.886235 0.461085 0.203585 0.158410
H71   H     H_    0.967592 0.402897 0.140761 0.142332
H72   H     H_    0.972281 0.516469 0.142970 0.150912
H73   H     H_    0.583283 0.392077 0.883575 0.117945
H74   H     H_    0.556425 0.050812 0.369513 0.097113
N1    N     N_1   0.725810 0.500000 0.500030 -0.196684
N2    N     N_1   0.274190 0.500000 0.499970 -0.193675
O1    O     O_R   0.423830 0.620920 0.499990 -0.505762
O2    O     O_3   0.935302 0.648859 0.442974 -0.567528
O3    O     O_3   0.318530 0.548786 0.896576 -0.576789
O4    O     O_3   0.669714 0.406428 0.107258 -0.583095
O5    O     O_3   0.671104 0.933306 0.464832 -0.555885
O6    O     O_3   0.331070 0.066515 0.533531 -0.556300
O7    O     O_3   0.926360 0.472904 0.647851 -0.548685
O8    O     O_3   0.078420 0.524573 0.353887 -0.581498
O9    O     O_R   0.576170 0.379080 0.500010 -0.507392
O10   O     O_R   0.576200 0.620920 0.500000 -0.473173
O11   O     O_R   0.423800 0.379080 0.500000 -0.475600
O12   O     O_R   0.414980 0.500010 0.613590 -0.502147
O13   O     O_R   0.585020 0.499990 0.386410 -0.500247
O14   O     O_R   0.567350 0.500010 0.613600 -0.502204
O15   O     O_R   0.432650 0.499990 0.386400 -0.498362
O16   O     O_3   0.061754 0.355522 0.565105 -0.538169

loop_
_geom_bond_atom_site_label_1
_geom_bond_atom_site_label_2
_ccdc_geom_bond_type
C55   H53   S    
C34   C56   S    
C8    C13   S    
C23   C45   S    
C27   C29   A    
C63   H72   S    
C40   H16   S    
C1    O1    A    
C12   O9    A    
C60   H64   S    
C61   H65   S    
C54   O6    S    
C27   C33   S    
C15   C19   S    
C19   N2    T    
C47   H33   S    
C23   C66   S    
C18   N1    T    
C24   C26   A    
Cu2   O10   S    
C10   C15   S    
C57   H57   S    
C38   C39   S    
C11   C14   S    
C53   H49   S    
C32   H23   S    
C38   H11   S    
C52   H44   S    
C62   H68   S    
C48   H36   S    
C43   H26   S    
C47   H31   S    
Cu2   N1    S    
Cu1   O11   S    
C41   C42   S    
C40   H18   S    
C14   C18   S    
C9    C13   S    
C26   H67   S    
C10   O8    S    
C57   H54   S    
C46   C47   S    
C6    C65   T    
C66   H4    S    
C41   O2    S    
C28   C35   S    
C22   C25   A    
Cu1   O1    S    
C33   H56   S    
C8    C14   S    
C23   H74   S    
C17   O13   A    
C34   H2    S    
C53   H48   S    
C2    C34   S    
C7    C15   S    
C46   H30   S    
C59   C60   S    
C54   H51   S    
C4    C56   S    
C50   H40   S    
C1    O10   A    
Cu2   O14   S    
Cu1   N2    S    
C60   H63   S    
C44   C46   S    
C61   H66   S    
C55   H52   S    
C2    C45   S    
C41   H19   S    
C21   C32   A    
C25   H73   S    
C16   O14   A    
Cu1   Cu2   S    
C31   H34   S    
C4    C6    S    
Cu2   O9    S    
C11   H12   S    
C60   H62   S    
C39   C40   S    
C4    C23   S    
C49   H37   S    
C7    O16   S    
C3    C34   S    
C59   H60   S    
C48   H35   S    
C37   H9    S    
C3    C45   S    
C50   H41   S    
C17   C21   S    
C47   H32   S    
C51   C52   S    
C5    C64   T    
Cu1   O12   S    
C42   H22   S    
C40   H17   S    
C36   H5    S    
C7    C11   S    
C9    C14   S    
C16   O12   A    
C62   C63   S    
C44   H28   S    
C36   H7    S    
C57   H55   S    
C16   C20   S    
C24   C37   S    
C55   C57   S    
C52   C53   S    
C36   H6    S    
C8    C10   S    
C48   C49   S    
C46   H29   S    
C20   C22   A    
C58   H58   S    
C51   H42   S    
C13   C15   S    
C38   H13   S    
C50   H39   S    
C63   H70   S    
C3    C66   S    
C42   C43   S    
C12   O11   A    
C56   O6    S    
Cu2   O13   S    
C1    C64   S    
C58   O7    S    
C37   H10   S    
C7    C9    S    
C41   H20   S    
C54   C55   S    
C59   H61   S    
C51   H43   S    
C63   H71   S    
C37   H8    S    
C8    O2    S    
C39   H14   S    
C3    C5    S    
C29   O3    S    
C30   O4    S    
C49   H38   S    
C52   H46   S    
C25   C27   A    
C22   C36   S    
C12   C65   S    
C26   C28   A    
C43   H24   S    
C43   H25   S    
C42   H21   S    
C54   H50   S    
C58   C59   S    
C38   O16   S    
C29   C31   A    
C44   H27   S    
C30   C32   A    
C13   H1    S    
C56   C66   S    
C2    C4    S    
C48   O4    S    
C28   C30   A    
C33   C35   D    
C35   H45   S    
C45   O5    S    
C62   H69   S    
C61   C62   S    
C17   O15   A    
C61   O8    S    
C10   C11   S    
C39   H15   S    
C53   H47   S    
C58   H59   S    
C51   O5    S    
C9    O7    S    
C49   C50   S    
C21   C24   A    
Cu1   O15   S    
C44   O3    S    
C2    H3    S    
C20   C31   A    
