data_mof_unit_5396.cif
_audit_creation_date              2012-10-26T19:43:50-0400
_audit_creation_method            fapswitch 2.2
_symmetry_space_group_name_H-M    P1
_symmetry_Int_Tables_number       1
_space_group_crystal_system       triclinic
_cell_length_a                    12.341767
_cell_length_b                    13.146638
_cell_length_c                    13.871054
_cell_angle_alpha                 105.198522
_cell_angle_beta                  73.86007
_cell_angle_gamma                 116.800412
_cell_volume                      1904.95376128

loop_
_atom_site_label
_atom_site_type_symbol
_atom_type_description
_atom_site_fract_x
_atom_site_fract_y
_atom_site_fract_z
_atom_type_partial_charge
C1    C     C_R   0.144348 0.713965 0.510716 0.526810
C2    C     C_R   0.563838 0.021521 0.468584 0.039805
C3    C     C_R   0.602754 0.952857 0.381048 -0.026943
C4    C     C_R   0.984326 0.504229 0.686303 0.537973
C5    C     C_R   0.516983 0.848197 0.340450 -0.139329
C6    C     C_R   0.393270 0.809825 0.386086 -0.115648
C7    C     C_R   0.655321 0.118971 0.515333 0.079875
C8    C     C_R   0.812297 0.099362 0.368125 0.243979
C9    C     C_R   0.225971 0.837577 0.521473 -0.003582
C10   C     C_R   0.640988 0.676380 0.660318 -0.149193
C11   C     C_R   0.251598 0.351193 0.364016 0.058976
C12   C     C_1   0.976528 0.507891 0.791423 -0.029201
C13   C     C_R   0.349995 0.318187 0.334343 -0.158861
C14   C     C_R   0.449110 0.374125 0.385620 -0.136749
C15   C     C_R   0.450950 0.464378 0.467795 -0.004128
C16   C     C_R   0.856239 0.286106 0.484961 0.557052
C17   C     C_R   0.347475 0.494858 0.495774 0.181394
C18   C     C_R   0.550940 0.525277 0.523219 -0.011078
C19   C     C_R   0.545131 0.615017 0.604845 0.037064
C20   C     C_R   0.443607 0.643006 0.631044 -0.175551
C21   C     C_R   0.346915 0.584023 0.578108 -0.095373
C22   C     C_R   0.657290 0.501587 0.501652 0.046786
C23   C     C_R   0.726932 0.990428 0.333702 -0.125646
C24   C     C_R   0.742580 0.648816 0.635288 0.045498
C25   C     C_R   0.015840 0.495861 0.313683 0.539739
C26   C     C_1   0.025668 0.493162 0.208396 -0.060779
C27   C     C_2   0.048817 0.487874 0.012329 0.157187
C28   C     C_2   0.970109 0.514509 0.984267 -0.103283
C29   C     C_1   0.972063 0.511083 0.879613 -0.057770
C30   C     C_1   0.035920 0.490547 0.119305 -0.042810
C31   C     C_3   0.236952 0.450886 0.975378 -0.301972
C32   C     C_3   0.932653 0.175955 0.226069 -0.117411
C33   C     C_3   0.609142 0.085433 0.688582 -0.312673
C34   C     C_R   0.776305 0.164193 0.459252 0.020598
C35   C     C_R   0.181972 0.915501 0.591091 -0.132369
C36   C     C_R   0.261633 0.030253 0.614289 -0.149023
C37   C     C_R   0.387232 0.066913 0.573591 -0.098832
C38   C     C_R   0.435269 0.989215 0.506609 0.046879
C39   C     C_R   0.351110 0.877370 0.471684 0.016718
Cu1   Cu    Cu3+1 0.899780 0.525060 0.522890 0.924884
Cu2   Cu    Cu3+1 0.100220 0.474940 0.477110 0.937592
H1    H     H_    0.901438 0.538772 0.041122 0.101795
H2    H     H_    0.273205 0.611430 0.604955 0.181058
H3    H     H_    0.545699 0.795422 0.273226 0.108452
H4    H     H_    0.756576 0.938376 0.266355 0.121430
H5    H     H_    0.086129 0.887256 0.628949 0.126010
H6    H     H_    0.444706 0.157477 0.592172 0.158500
H7    H     H_    0.226435 0.090549 0.666124 0.122691
H8    H     H_    0.168108 0.483648 0.870527 0.259199
H9    H     H_    0.297607 0.420687 0.910526 0.137477
H10   H     H_    0.197365 0.389744 0.030693 0.153341
H11   H     H_    0.293523 0.538610 0.011560 0.143020
H12   H     H_    0.330410 0.729422 0.350001 0.145557
H13   H     H_    0.029902 0.221154 0.189145 0.130311
H14   H     H_    0.887962 0.237542 0.244435 0.110406
H15   H     H_    0.887234 0.100084 0.170499 0.108758
H16   H     H_    0.687275 0.245971 0.645632 0.271761
H17   H     H_    0.584342 0.123543 0.768544 0.139410
H18   H     H_    0.694476 0.072487 0.680290 0.145266
H19   H     H_    0.532059 0.000556 0.671961 0.164271
H20   H     H_    0.816951 0.695894 0.677789 0.119082
H21   H     H_    0.438489 0.711328 0.693645 0.104047
H22   H     H_    0.637271 0.745200 0.722737 0.087612
H23   H     H_    0.669537 0.434969 0.441044 0.118949
H24   H     H_    0.175256 0.307409 0.323666 0.164500
H25   H     H_    0.522748 0.345005 0.359364 0.098657
H26   H     H_    0.349465 0.249030 0.271319 0.107531
N1    N     N_R   0.748810 0.563010 0.557590 -0.230650
N2    N     N_R   0.250540 0.437620 0.443020 -0.238292
N3    N     N_2   0.139384 0.453882 0.938997 -0.502378
N4    N     N_2   0.629680 0.162528 0.621260 -0.535930
O1    O     O_R   0.025040 0.682470 0.528790 -0.498284
O2    O     O_R   0.194310 0.640150 0.490130 -0.526884
O3    O     O_R   0.903380 0.524130 0.659910 -0.499630
O4    O     O_R   0.072660 0.481800 0.621240 -0.514367
O5    O     O_R   0.805690 0.359850 0.509870 -0.520830
O6    O     O_R   0.974960 0.317530 0.471210 -0.450864
O7    O     O_R   0.927340 0.518200 0.378760 -0.493974
O8    O     O_R   0.096620 0.475870 0.340090 -0.506417
O9    O     O_3   0.932136 0.141386 0.314351 -0.561194

loop_
_geom_bond_atom_site_label_1
_geom_bond_atom_site_label_2
_ccdc_geom_bond_type
C15   C18   A    
C17   N2    A    
C33   H17   S    
C23   H4    S    
C12   C29   T    
C3    C23   A    
C2    C7    A    
C31   H11   S    
C10   H22   S    
C24   H20   S    
C36   C37   A    
C18   C19   A    
C7    N4    S    
C38   C39   A    
C9    C35   A    
Cu2   O4    S    
C9    C39   A    
C8    C23   A    
C16   O6    A    
C4    O4    A    
C16   C34   S    
C21   H2    S    
C31   N3    S    
C19   C20   A    
C37   H6    S    
C32   H14   S    
C4    O3    A    
C33   H18   S    
C18   C22   A    
C13   C14   A    
C27   C30   S    
C32   H13   S    
C1    O1    A    
C25   O7    A    
C1    C9    S    
C33   N4    S    
C10   C24   A    
C25   C26   S    
C22   H23   S    
C17   C21   A    
Cu1   O5    S    
C35   C36   A    
C37   C38   A    
C32   O9    S    
C2    C38   A    
C10   C19   A    
C6    C39   A    
C14   H25   S    
C8    C34   A    
H16   N4    S    
C22   N1    A    
C27   N3    S    
Cu1   Cu2   S    
C5    H3    S    
C26   C30   T    
C33   H19   S    
H8    N3    S    
C7    C34   A    
Cu1   O7    S    
C4    C12   S    
C31   H9    S    
Cu2   N2    S    
C13   H26   S    
C15   C17   A    
C28   C29   S    
Cu1   O1    S    
C16   O5    A    
C31   H10   S    
C3    C5    A    
C25   O8    A    
Cu2   O8    S    
C11   N2    A    
C1    O2    A    
C2    C3    A    
Cu2   O6    S    
C11   C13   A    
C5    C6    A    
C28   H1    S    
Cu1   O3    S    
C36   H7    S    
C20   H21   S    
C24   N1    A    
Cu2   O2    S    
C20   C21   A    
Cu1   N1    S    
C27   C28   D    
C8    O9    S    
C14   C15   A    
C6    H12   S    
C35   H5    S    
C32   H15   S    
C11   H24   S    
