data_mof_unit_63671.cif
_audit_creation_date              2012-12-10T19:15:22-0500
_audit_creation_method            fapswitch 2.2
_symmetry_space_group_name_H-M    P1
_symmetry_Int_Tables_number       1
_space_group_crystal_system       triclinic
_cell_length_a                    44.483439
_cell_length_b                    38.89801
_cell_length_c                    21.493704
_cell_angle_alpha                 90.432557
_cell_angle_beta                  119.180739
_cell_angle_gamma                 89.781414
_cell_volume                      32469.9530222

loop_
_atom_site_label
_atom_site_type_symbol
_atom_type_description
_atom_site_fract_x
_atom_site_fract_y
_atom_site_fract_z
_atom_type_partial_charge
C1    C     C_R   0.067237 0.000026 0.566868 0.885023
C2    C     C_R   0.932753 0.000036 0.433007 0.865838
C3    C     C_R   0.567236 0.500026 0.566868 0.885023
C4    C     C_R   0.432753 0.500036 0.433007 0.865838
C5    C     C_3   0.986528 0.965668 0.198926 -0.409494
C6    C     C_3   0.977440 0.969509 0.762963 -0.407917
C7    C     C_3   0.486528 0.465668 0.198926 -0.409494
C8    C     C_3   0.477440 0.469509 0.762963 -0.407917
C9    C     C_R   0.377233 0.973176 0.906949 0.145230
C10   C     C_R   0.622605 0.972676 0.092978 0.144488
C11   C     C_R   0.877233 0.473176 0.906949 0.145230
C12   C     C_R   0.122605 0.472676 0.092978 0.144488
C13   C     C_R   0.341405 0.973452 0.868743 -0.184835
C14   C     C_R   0.658434 0.972966 0.130702 -0.184866
C15   C     C_R   0.841405 0.473452 0.868743 -0.184835
C16   C     C_R   0.158434 0.472966 0.130702 -0.184866
C17   C     C_R   0.324000 0.999509 0.819325 0.067462
C18   C     C_R   0.675952 0.999472 0.179487 0.066802
C19   C     C_R   0.824000 0.499509 0.819325 0.067462
C20   C     C_R   0.175952 0.499472 0.179487 0.066802
C21   C     C_R   0.342529 0.025248 0.807561 -0.161546
C22   C     C_R   0.657552 0.025625 0.191207 -0.161281
C23   C     C_R   0.842529 0.525248 0.807561 -0.161547
C24   C     C_R   0.157552 0.525624 0.191207 -0.161281
C25   C     C_R   0.378272 0.024856 0.844761 -0.219697
C26   C     C_R   0.621803 0.025214 0.154521 -0.220332
C27   C     C_R   0.878272 0.524856 0.844761 -0.219696
C28   C     C_R   0.121803 0.525214 0.154521 -0.220332
C29   C     C_R   0.395692 0.999129 0.894878 -0.067184
C30   C     C_R   0.604276 0.999052 0.104959 -0.066047
C31   C     C_R   0.895692 0.499129 0.894878 -0.067184
C32   C     C_R   0.104276 0.499052 0.104959 -0.066047
C33   C     C_R   0.268501 0.029601 0.779272 -0.173637
C34   C     C_R   0.731336 0.029249 0.217486 -0.173661
C35   C     C_R   0.768501 0.529601 0.779272 -0.173637
C36   C     C_R   0.231336 0.529249 0.217486 -0.173661
C37   C     C_R   0.232723 0.029666 0.743328 -0.181447
C38   C     C_R   0.767111 0.029339 0.253035 -0.180749
C39   C     C_R   0.732723 0.529666 0.743328 -0.181446
C40   C     C_R   0.267111 0.529339 0.253035 -0.180749
C41   C     C_R   0.214500 0.000043 0.706963 0.104208
C42   C     C_R   0.785428 0.000109 0.290478 0.105831
C43   C     C_R   0.714500 0.500043 0.706963 0.104207
C44   C     C_R   0.285428 0.500109 0.290478 0.105831
C45   C     C_R   0.999233 0.999925 0.377791 0.858338
C46   C     C_R   0.998487 0.000280 0.619921 0.858261
C47   C     C_R   0.499233 0.499925 0.377791 0.858338
C48   C     C_R   0.498487 0.500280 0.619921 0.858261
C49   C     C_R   0.232602 0.970404 0.706916 -0.173015
C50   C     C_R   0.767419 0.970812 0.291839 -0.177225
C51   C     C_R   0.732602 0.470404 0.706916 -0.173015
C52   C     C_R   0.267419 0.470812 0.291839 -0.177225
C53   C     C_R   0.268382 0.970234 0.743634 -0.173681
C54   C     C_R   0.731644 0.970596 0.255479 -0.173654
C55   C     C_R   0.768382 0.470234 0.743634 -0.173681
C56   C     C_R   0.231644 0.470596 0.255479 -0.173653
C57   C     C_R   0.286423 0.999813 0.779980 0.113746
C58   C     C_R   0.713518 0.999807 0.218221 0.113918
C59   C     C_R   0.786423 0.499813 0.779980 0.113745
C60   C     C_R   0.213518 0.499807 0.218221 0.113918
C61   C     C_R   0.158926 0.970912 0.673812 -0.163970
C62   C     C_R   0.841137 0.970639 0.325431 -0.170333
C63   C     C_R   0.658926 0.470912 0.673812 -0.163969
C64   C     C_R   0.341137 0.470639 0.325431 -0.170333
C65   C     C_R   0.123169 0.970892 0.639762 -0.172420
C66   C     C_R   0.876904 0.970577 0.360226 -0.195375
C67   C     C_R   0.623169 0.470892 0.639762 -0.172421
C68   C     C_R   0.376904 0.470577 0.360226 -0.195375
C69   C     C_R   0.104760 0.000027 0.602549 -0.029066
C70   C     C_R   0.895204 0.000082 0.396544 -0.036964
C71   C     C_R   0.604760 0.500027 0.602549 -0.029066
C72   C     C_R   0.395204 0.500082 0.396544 -0.036964
C73   C     C_R   0.122417 0.029032 0.598916 -0.159645
C74   C     C_R   0.877398 0.029568 0.398211 -0.157030
C75   C     C_R   0.622416 0.529032 0.598916 -0.159645
C76   C     C_R   0.377398 0.529568 0.398211 -0.157030
C77   C     C_R   0.158162 0.028895 0.632170 -0.162405
C78   C     C_R   0.841641 0.029478 0.364269 -0.165296
C79   C     C_R   0.658162 0.528895 0.632170 -0.162405
C80   C     C_R   0.341641 0.529478 0.364269 -0.165296
C81   C     C_R   0.176694 0.999903 0.670214 0.112272
C82   C     C_R   0.823235 0.000055 0.327373 0.110600
C83   C     C_R   0.676694 0.499903 0.670214 0.112273
C84   C     C_R   0.323235 0.500055 0.327373 0.110600
C85   C     C_R   0.999994 0.067226 0.999899 0.863490
C86   C     C_R   0.499994 0.567226 0.999899 0.863490
C87   C     C_3   0.037993 0.006531 0.325149 0.108615
C88   C     C_3   0.984435 0.036338 0.701798 0.138451
C89   C     C_3   0.537993 0.506531 0.325149 0.108615
C90   C     C_3   0.484435 0.536338 0.701798 0.138451
C91   C     C_R   0.000183 0.000496 0.121596 0.854467
C92   C     C_R   0.999948 0.999270 0.878579 0.854777
C93   C     C_R   0.500183 0.500496 0.121596 0.854467
C94   C     C_R   0.499949 0.499270 0.878579 0.854777
C95   C     C_R   0.999999 0.932753 0.000082 0.860301
C96   C     C_R   0.499999 0.432753 0.000082 0.860301
C97   C     C_R   0.500004 0.932754 0.999784 0.928060
C98   C     C_R   0.000004 0.432754 0.999784 0.928060
C99   C     C_R   0.432996 0.999538 0.932826 0.888321
C100  C     C_R   0.566993 0.999544 0.067144 0.888579
C101  C     C_R   0.932996 0.499538 0.932826 0.888321
C102  C     C_R   0.066993 0.499544 0.067144 0.888579
C103  C     C_R   0.500009 0.067121 0.000223 0.846583
C104  C     C_R   0.000009 0.567121 0.000223 0.846583
C105  C     C_R   0.493875 0.877149 0.937494 -0.179927
C106  C     C_R   0.506172 0.877143 0.060540 -0.179466
C107  C     C_R   0.993875 0.377149 0.937494 -0.179927
C108  C     C_R   0.006172 0.377143 0.060540 -0.179466
C109  C     C_R   0.493676 0.841406 0.936537 0.161431
C110  C     C_R   0.506341 0.841402 0.060482 0.161307
C111  C     C_R   0.993676 0.341406 0.936537 0.161431
C112  C     C_R   0.006341 0.341402 0.060482 0.161307
C113  C     C_R   0.499983 0.823412 0.998242 -0.030916
C114  C     C_R   0.999983 0.323412 0.998242 -0.030916
C115  C     C_R   0.500016 0.895187 0.999266 -0.103333
C116  C     C_R   0.000016 0.395187 0.999266 -0.103333
C117  C     C_R   0.527731 0.768071 0.000193 -0.112097
C118  C     C_R   0.471960 0.768302 0.994950 -0.111584
C119  C     C_R   0.027731 0.268070 0.000193 -0.112097
C120  C     C_R   0.971960 0.268302 0.994950 -0.111584
C121  C     C_3   0.037858 0.005531 0.253060 -0.401141
C122  C     C_3   0.983331 0.033917 0.772477 -0.435357
C123  C     C_3   0.537858 0.505531 0.253060 -0.401141
C124  C     C_3   0.483331 0.533917 0.772477 -0.435357
C125  C     C_R   0.027668 0.232347 0.999838 -0.169545
C126  C     C_R   0.971990 0.232586 0.995216 -0.171102
C127  C     C_R   0.527668 0.732347 0.999838 -0.169545
C128  C     C_R   0.471990 0.732586 0.995216 -0.171102
C129  C     C_R   0.999840 0.214359 0.997593 0.098524
C130  C     C_R   0.499840 0.714359 0.997593 0.098524
C131  C     C_R   0.499872 0.786007 0.997684 0.143937
C132  C     C_R   0.999872 0.286007 0.997684 0.143937
C133  C     C_R   0.969660 0.158395 0.953849 -0.161610
C134  C     C_R   0.030203 0.158695 0.042816 -0.163093
C135  C     C_R   0.469660 0.658395 0.953849 -0.161610
C136  C     C_R   0.530203 0.658695 0.042816 -0.163093
C137  C     C_R   0.969647 0.122682 0.954737 -0.184319
C138  C     C_R   0.030270 0.122973 0.043240 -0.186933
C139  C     C_R   0.469648 0.622682 0.954737 -0.184319
C140  C     C_R   0.530270 0.622973 0.043240 -0.186933
C141  C     C_R   0.999968 0.104767 0.999349 -0.042757
C142  C     C_R   0.499968 0.604767 0.999349 -0.042757
C143  C     C_R   0.999912 0.176645 0.998025 0.116742
C144  C     C_R   0.499912 0.676645 0.998025 0.116741
C145  C     C_R   0.499980 0.122816 0.057362 -0.187284
C146  C     C_R   0.500015 0.122739 0.944439 -0.187383
C147  C     C_R   0.999980 0.622816 0.057361 -0.187284
C148  C     C_R   0.000016 0.622739 0.944440 -0.187384
C149  C     C_R   0.499934 0.158526 0.057696 -0.175623
C150  C     C_R   0.499950 0.158437 0.944805 -0.175950
C151  C     C_R   0.999934 0.658526 0.057696 -0.175624
C152  C     C_R   0.999950 0.658437 0.944805 -0.175949
C153  C     C_R   0.499888 0.176496 0.001395 0.113868
C154  C     C_R   0.999888 0.676496 0.001395 0.113868
C155  C     C_3   0.975845 0.028636 0.261288 -0.429722
C156  C     C_3   0.035568 0.994763 0.748352 -0.461697
C157  C     C_3   0.475845 0.528637 0.261288 -0.429723
C158  C     C_3   0.535568 0.494764 0.748352 -0.461697
C159  C     C_R   0.500008 0.104688 0.000700 -0.034043
C160  C     C_R   0.000008 0.604688 0.000700 -0.034043
C161  C     C_R   0.477498 0.231958 0.939519 -0.180656
C162  C     C_R   0.521954 0.232257 0.063808 -0.180204
C163  C     C_R   0.021954 0.732257 0.063808 -0.180203
C164  C     C_R   0.977498 0.731958 0.939519 -0.180655
C165  C     C_R   0.021969 0.767965 0.063823 -0.179902
C166  C     C_R   0.977486 0.767654 0.939556 -0.181519
C167  C     C_R   0.477486 0.267654 0.939556 -0.181519
C168  C     C_R   0.521969 0.267965 0.063823 -0.179903
C169  C     C_R   0.999749 0.785825 0.001679 0.103950
C170  C     C_R   0.499749 0.285825 0.001679 0.103950
C171  C     C_R   0.499755 0.214091 0.001617 0.104948
C172  C     C_R   0.999755 0.714091 0.001617 0.104948
C173  C     C_R   0.968631 0.841498 0.970478 -0.175338
C174  C     C_R   0.031114 0.841364 0.032167 -0.173859
C175  C     C_R   0.468631 0.341498 0.970478 -0.175337
C176  C     C_R   0.531114 0.341363 0.032167 -0.173858
C177  C     C_R   0.968682 0.877191 0.969967 -0.192467
C178  C     C_R   0.031191 0.877067 0.031650 -0.188996
C179  C     C_R   0.468682 0.377191 0.969967 -0.192466
C180  C     C_R   0.531191 0.377068 0.031650 -0.188996
C181  C     C_R   0.999967 0.895205 0.000515 -0.041227
C182  C     C_R   0.499967 0.395205 0.000515 -0.041227
C183  C     C_R   0.999837 0.823418 0.001538 0.113975
C184  C     C_R   0.499837 0.323418 0.001538 0.113975
C185  C     C_3   0.986797 0.965071 0.270540 -0.381599
C186  C     C_3   0.975568 0.971007 0.689800 -0.391856
C187  C     C_3   0.486797 0.465072 0.270540 -0.381599
C188  C     C_3   0.475568 0.471007 0.689800 -0.391856
C189  C     C_3   0.000280 0.000003 0.310627 0.090179
C190  C     C_3   0.998254 0.001034 0.688056 0.091229
C191  C     C_3   0.500279 0.500003 0.310627 0.090178
C192  C     C_3   0.498254 0.501034 0.688056 0.091228
C193  C     C_3   0.000579 0.000482 0.190081 0.121554
C194  C     C_3   0.999560 0.999692 0.810183 0.121269
C195  C     C_3   0.500579 0.500482 0.190081 0.121554
C196  C     C_3   0.499560 0.499692 0.810183 0.121269
C197  C     C_3   0.977518 0.029978 0.191746 -0.407866
C198  C     C_3   0.036666 0.996466 0.820677 -0.374245
C199  C     C_3   0.477518 0.529979 0.191746 -0.407867
C200  C     C_3   0.536666 0.496466 0.820677 -0.374245
H1    H     H_    0.959757 0.961574 0.154870 0.184463
H2    H     H_    0.988916 0.944606 0.789140 0.162464
H3    H     H_    0.459756 0.461574 0.154870 0.184463
H4    H     H_    0.488916 0.444605 0.789140 0.162464
H5    H     H_    0.948912 0.023372 0.249050 0.170784
H6    H     H_    0.044743 0.969054 0.741562 0.187361
H7    H     H_    0.448912 0.523372 0.249050 0.170784
H8    H     H_    0.544743 0.469054 0.741562 0.187361
H9    H     H_    0.950942 0.027830 0.145904 0.193540
H10   H     H_    0.049425 0.972881 0.851415 0.180044
H11   H     H_    0.450942 0.527830 0.145904 0.193541
H12   H     H_    0.549425 0.472881 0.851415 0.180044
H13   H     H_    0.327112 0.953473 0.877833 0.158067
H14   H     H_    0.672640 0.952669 0.121681 0.158069
H15   H     H_    0.827111 0.453473 0.877833 0.158067
H16   H     H_    0.172640 0.452669 0.121681 0.158069
H17   H     H_    0.329314 0.045348 0.769051 0.141550
H18   H     H_    0.670874 0.046075 0.229244 0.142003
H19   H     H_    0.829314 0.545348 0.769051 0.141551
H20   H     H_    0.170874 0.546075 0.229244 0.142003
H21   H     H_    0.392390 0.044809 0.835040 0.148916
H22   H     H_    0.607767 0.045502 0.164121 0.148310
H23   H     H_    0.892390 0.544809 0.835040 0.148916
H24   H     H_    0.107767 0.545502 0.164121 0.148310
H25   H     H_    0.282216 0.052520 0.807774 0.137773
H26   H     H_    0.717534 0.051866 0.188247 0.138077
H27   H     H_    0.782216 0.552520 0.807774 0.137773
H28   H     H_    0.217534 0.551866 0.188247 0.138077
H29   H     H_    0.219345 0.052643 0.745145 0.134540
H30   H     H_    0.780411 0.052026 0.250200 0.134164
H31   H     H_    0.719345 0.552643 0.745145 0.134540
H32   H     H_    0.280411 0.552026 0.250200 0.134164
H33   H     H_    0.219113 0.947453 0.678201 0.139866
H34   H     H_    0.780975 0.948190 0.321410 0.135548
H35   H     H_    0.719113 0.447453 0.678201 0.139866
H36   H     H_    0.280975 0.448190 0.321410 0.135548
H37   H     H_    0.282016 0.947173 0.743204 0.144304
H38   H     H_    0.718077 0.947816 0.256972 0.143332
H39   H     H_    0.782016 0.447173 0.743204 0.144304
H40   H     H_    0.218077 0.447816 0.256972 0.143332
H41   H     H_    0.172667 0.948462 0.703845 0.131478
H42   H     H_    0.827499 0.947841 0.296243 0.132180
H43   H     H_    0.672667 0.448462 0.703845 0.131479
H44   H     H_    0.327499 0.447840 0.296243 0.132180
H45   H     H_    0.109956 0.948310 0.643429 0.152604
H46   H     H_    0.890210 0.947637 0.357891 0.153358
H47   H     H_    0.609955 0.448310 0.643429 0.152604
H48   H     H_    0.390210 0.447637 0.357891 0.153358
H49   H     H_    0.108591 0.051611 0.569565 0.165183
H50   H     H_    0.891104 0.052510 0.426584 0.176835
H51   H     H_    0.608591 0.551611 0.569565 0.165184
H52   H     H_    0.391103 0.552510 0.426584 0.176835
H53   H     H_    0.171281 0.051329 0.627605 0.134871
H54   H     H_    0.828422 0.052281 0.367523 0.138186
H55   H     H_    0.671281 0.551329 0.627605 0.134871
H56   H     H_    0.328422 0.552281 0.367523 0.138186
H57   H     H_    0.488851 0.890759 0.889603 0.189092
H58   H     H_    0.511211 0.890746 0.108818 0.189257
H59   H     H_    0.988851 0.390759 0.889603 0.189092
H60   H     H_    0.011211 0.390746 0.108818 0.189257
H61   H     H_    0.549340 0.781774 0.002159 0.154642
H62   H     H_    0.450393 0.782184 0.993164 0.154519
H63   H     H_    0.049340 0.281774 0.002159 0.154642
H64   H     H_    0.950393 0.282184 0.993164 0.154519
H65   H     H_    0.049170 0.218801 0.000659 0.138128
H66   H     H_    0.950502 0.219239 0.994496 0.137049
H67   H     H_    0.549170 0.718801 0.000659 0.138128
H68   H     H_    0.450502 0.719239 0.994496 0.137049
H69   H     H_    0.946130 0.171727 0.918064 0.138305
H70   H     H_    0.053705 0.172280 0.078149 0.137011
H71   H     H_    0.446130 0.671727 0.918064 0.138305
H72   H     H_    0.553705 0.672280 0.078149 0.137011
H73   H     H_    0.054350 0.984058 0.252691 0.202848
H74   H     H_    0.956252 0.035306 0.761824 0.205501
H75   H     H_    0.554350 0.484058 0.252691 0.202849
H76   H     H_    0.456252 0.535306 0.761824 0.205501
H77   H     H_    0.946029 0.109121 0.919973 0.159642
H78   H     H_    0.053912 0.109644 0.078446 0.157750
H79   H     H_    0.446029 0.609121 0.919973 0.159642
H80   H     H_    0.553912 0.609644 0.078447 0.157750
H81   H     H_    0.499903 0.109468 0.101317 0.160140
H82   H     H_    0.500132 0.109340 0.900208 0.160256
H83   H     H_    0.999902 0.609468 0.101317 0.160140
H84   H     H_    0.000133 0.609340 0.900208 0.160256
H85   H     H_    0.499520 0.172116 0.101447 0.134028
H86   H     H_    0.500322 0.171955 0.901306 0.133764
H87   H     H_    0.999519 0.672116 0.101446 0.134028
H88   H     H_    0.000323 0.671955 0.901307 0.133764
H89   H     H_    0.459971 0.218299 0.891223 0.133772
H90   H     H_    0.539508 0.218824 0.112045 0.134519
H91   H     H_    0.039508 0.718824 0.112045 0.134519
H92   H     H_    0.959972 0.718299 0.891223 0.133772
H93   H     H_    0.039108 0.781638 0.112419 0.135561
H94   H     H_    0.960378 0.781072 0.890936 0.133421
H95   H     H_    0.460378 0.281072 0.890936 0.133421
H96   H     H_    0.539108 0.281638 0.112419 0.135561
H97   H     H_    0.944249 0.828007 0.947293 0.133291
H98   H     H_    0.055444 0.827752 0.055672 0.134035
H99   H     H_    0.444249 0.328007 0.947294 0.133290
H100  H     H_    0.555444 0.327752 0.055671 0.134035
H101  H     H_    0.944255 0.890623 0.945827 0.157907
H102  H     H_    0.055657 0.890409 0.055440 0.159105
H103  H     H_    0.444255 0.390623 0.945828 0.157907
H104  H     H_    0.555657 0.390409 0.055439 0.159105
H105  H     H_    0.049041 0.029493 0.244573 0.165423
H106  H     H_    0.996953 0.055866 0.809147 0.149407
H107  H     H_    0.549041 0.529493 0.244573 0.165423
H108  H     H_    0.496953 0.555866 0.809147 0.149407
H109  H     H_    0.982853 0.054341 0.287535 0.199104
H110  H     H_    0.053556 0.014115 0.746811 0.171591
H111  H     H_    0.482853 0.554341 0.287535 0.199104
H112  H     H_    0.553555 0.514116 0.746811 0.171591
H113  H     H_    0.988098 0.055219 0.187551 0.166628
H114  H     H_    0.052447 0.018980 0.851411 0.187472
H115  H     H_    0.488098 0.555219 0.187551 0.166628
H116  H     H_    0.552447 0.518980 0.851411 0.187472
H117  H     H_    0.960223 0.960138 0.260946 0.165502
H118  H     H_    0.984538 0.945878 0.679750 0.191273
H119  H     H_    0.460223 0.460138 0.260946 0.165502
H120  H     H_    0.484538 0.445878 0.679750 0.191273
H121  H     H_    0.003019 0.943276 0.302711 0.214610
H122  H     H_    0.948385 0.974166 0.647301 0.192016
H123  H     H_    0.503019 0.443276 0.302710 0.214610
H124  H     H_    0.448385 0.474166 0.647301 0.192016
H125  H     H_    0.002591 0.944192 0.196623 0.171561
H126  H     H_    0.950871 0.970714 0.755480 0.195298
H127  H     H_    0.502591 0.444192 0.196623 0.171561
H128  H     H_    0.450871 0.470714 0.755480 0.195298
O1    O     O_R   0.050910 0.028760 0.550880 -0.618171
O2    O     O_R   0.949090 0.028760 0.449120 -0.612853
O3    O     O_R   0.550910 0.528760 0.550880 -0.618171
O4    O     O_R   0.449090 0.528760 0.449120 -0.612853
O5    O     O_R   0.449110 0.999950 0.896830 -0.619791
O6    O     O_R   0.550890 0.999950 0.103170 -0.619538
O7    O     O_R   0.949110 0.499950 0.896830 -0.619791
O8    O     O_R   0.050890 0.499950 0.103170 -0.619538
O9    O     O_R   0.449110 0.000020 0.001380 -0.593979
O10   O     O_R   0.550890 0.000020 0.998620 -0.594364
O11   O     O_R   0.949110 0.500020 0.001380 -0.593979
O12   O     O_R   0.050890 0.500020 0.998620 -0.594364
O13   O     O_R   0.500000 0.050860 0.947620 -0.628088
O14   O     O_R   0.500000 0.050860 0.052380 -0.628251
O15   O     O_R   0.000000 0.550860 0.947620 -0.628088
O16   O     O_R   0.000000 0.550860 0.052380 -0.628251
O17   O     O_R   0.050940 0.971280 0.550860 -0.609485
O18   O     O_R   0.949060 0.971280 0.449140 -0.629531
O19   O     O_R   0.550940 0.471280 0.550860 -0.609485
O20   O     O_R   0.449060 0.471280 0.449140 -0.629531
O21   O     O_R   0.000010 0.028760 0.407400 -0.624325
O22   O     O_R   0.999990 0.028760 0.592600 -0.604007
O23   O     O_R   0.500010 0.528760 0.407400 -0.624325
O24   O     O_R   0.499990 0.528760 0.592600 -0.604008
O25   O     O_R   0.000040 0.971280 0.407380 -0.612246
O26   O     O_R   0.999960 0.971280 0.592620 -0.633645
O27   O     O_R   0.500040 0.471280 0.407380 -0.612246
O28   O     O_R   0.499960 0.471280 0.592620 -0.633645
O29   O     O_R   0.028770 0.050900 0.028770 -0.622394
O30   O     O_R   0.971230 0.050900 0.971230 -0.622462
O31   O     O_R   0.528770 0.550900 0.028770 -0.622394
O32   O     O_R   0.471230 0.550900 0.971230 -0.622462
O33   O     O_R   0.028750 1.000000 0.121310 -0.628036
O34   O     O_R   0.971250 0.000000 0.878690 -0.625767
O35   O     O_R   0.528750 0.500000 0.121310 -0.628036
O36   O     O_R   0.471250 0.500000 0.878690 -0.625767
O37   O     O_R   0.971270 0.000040 0.063860 -0.627592
O38   O     O_R   0.028730 0.000040 0.936140 -0.629404
O39   O     O_R   0.471270 0.500040 0.063860 -0.627592
O40   O     O_R   0.528730 0.500040 0.936140 -0.629404
O41   O     O_R   0.028750 0.949090 0.028660 -0.623978
O42   O     O_R   0.971250 0.949090 0.971340 -0.625964
O43   O     O_R   0.528750 0.449090 0.028660 -0.623978
O44   O     O_R   0.471250 0.449090 0.971340 -0.625964
O45   O     O_R   0.500050 0.949040 0.947810 -0.610588
O46   O     O_R   0.499950 0.949040 0.052190 -0.610161
O47   O     O_R   0.000050 0.449040 0.947810 -0.610588
O48   O     O_R   0.999950 0.449040 0.052190 -0.610161
Zn1   Zn    Zn3+2 0.000000 0.038400 0.500000 1.000053
Zn2   Zn    Zn3+2 0.500000 0.538400 0.500000 1.000053
Zn3   Zn    Zn3+2 0.000000 0.961640 0.500000 0.961403
Zn4   Zn    Zn3+2 0.500000 0.461640 0.500000 0.961403
Zn5   Zn    Zn3+2 0.038400 0.999990 0.038350 0.949287
Zn6   Zn    Zn3+2 0.961600 0.999990 0.961650 0.946676
Zn7   Zn    Zn3+2 0.538400 0.499990 0.038350 0.949287
Zn8   Zn    Zn3+2 0.461600 0.499990 0.961650 0.946676
Zn9   Zn    Zn3+2 0.500020 0.999940 0.930180 0.997570
Zn10  Zn    Zn3+2 0.499980 0.999940 0.069820 0.998052
Zn11  Zn    Zn3+2 0.000020 0.499940 0.930180 0.997570
Zn12  Zn    Zn3+2 0.999980 0.499940 0.069820 0.998052
C201  C     C_1   0.051384 0.040148 0.360537 0.192245
N1    N     N_1   0.061868 0.066414 0.388244 -0.198304
C202  C     C_1   0.006705 0.065754 0.707306 0.230240
N2    N     N_1   0.024115 0.088725 0.711699 -0.194585
C203  C     C_1   0.551384 0.540148 0.360537 0.192245
N3    N     N_1   0.561867 0.566414 0.388244 -0.198305
C204  C     C_1   0.506705 0.565754 0.707305 0.230241
N4    N     N_1   0.524115 0.588725 0.711699 -0.194585
I1    I     I_    0.401658 0.931805 0.978126 -0.349648
I2    I     I_    0.597955 0.930769 0.022443 -0.351150
I3    I     I_    0.901658 0.431805 0.978126 -0.349648
I4    I     I_    0.097955 0.430769 0.022443 -0.351150
I5    I     I_    0.074326 0.968920 0.396433 -0.406850
I6    I     I_    0.933482 0.048832 0.616035 -0.423861
I7    I     I_    0.574326 0.468920 0.396433 -0.406851
I8    I     I_    0.433482 0.548832 0.616035 -0.423861
I9    I     I_    0.482633 0.816227 0.839665 -0.345447
I10   I     I_    0.517381 0.816223 0.156674 -0.351548
I11   I     I_    0.982633 0.316227 0.839665 -0.345447
I12   I     I_    0.017381 0.316223 0.156674 -0.351548

loop_
_geom_bond_atom_site_label_1
_geom_bond_atom_site_label_2
_ccdc_geom_bond_type
C155  H109  S    
C133  C137  A    
C55   C59   A    
O3    Zn2   S    
C103  O13   A    
C46   O22   A    
C188  H120  S    
C113  C131  S    
C135  C139  A    
C127  H67   S    
C93   O39   A    
C94   C196  S    
C31   C101  S    
C139  H79   S    
C163  C165  A    
C33   H25   S    
O20   Zn4   S    
C139  C142  A    
O41   Zn5   S    
O7    Zn11  S    
O43   Zn7   S    
C61   H41   S    
C51   H35   S    
C148  C160  A    
C13   H13   S    
C89   I7    S    
C149  C153  A    
C64   C84   A    
C7    H3    S    
C118  C131  A    
C155  C189  S    
C134  C143  A    
C146  C150  A    
C11   C15   A    
C18   C58   S    
C162  C171  A    
C12   C16   A    
O31   Zn7   S    
C173  H97   S    
C70   C74   A    
C175  H99   S    
C40   H32   S    
C156  H6    S    
C73   H49   S    
C136  C140  A    
C1    O1    A    
C152  H88   S    
C101  O11   A    
C167  H95   S    
C122  C194  S    
C41   C49   A    
C180  C182  A    
C165  C169  A    
O26   Zn3   S    
C23   H19   S    
C133  C143  A    
C29   C99   S    
C27   C31   A    
C28   C32   A    
C54   H38   S    
C15   H15   S    
C19   C23   A    
O17   Zn3   S    
C126  C129  A    
C44   C84   S    
C17   C21   A    
C186  C190  S    
C88   C190  S    
C157  C191  S    
O46   Zn10  S    
C158  C192  S    
C10   C30   A    
C16   C20   A    
C135  H71   S    
C136  H72   S    
C163  C172  A    
C94   O36   A    
C64   H44   S    
C24   H20   S    
O19   Zn4   S    
C201  N1    T    
C35   H27   S    
O16   Zn12  S    
C85   C141  S    
C76   H52   S    
C6    C194  S    
C52   H36   S    
C66   H46   S    
C176  C184  A    
C180  H104  S    
C121  H105  S    
C80   H56   S    
C125  H65   S    
C27   H23   S    
C56   H40   S    
O14   Zn10  S    
C199  H115  S    
C155  H5    S    
C138  C141  A    
C151  H87   S    
C39   C43   A    
C112  I12   S    
C203  N3    T    
C6    C186  S    
C92   C194  S    
C2    O2    A    
C106  C115  A    
C178  H102  S    
C19   C59   S    
C122  H74   S    
C66   C70   A    
C49   C53   A    
C86   O31   A    
C51   C55   A    
C22   C26   A    
O22   Zn1   S    
C125  C129  A    
O25   Zn3   S    
O44   Zn8   S    
C34   C58   A    
C73   C77   A    
C75   C79   A    
C109  I9    S    
C185  H117  S    
O8    Zn12  S    
C43   C83   S    
C140  H80   S    
C187  H119  S    
C157  H7    S    
C145  H81   S    
C112  C114  A    
C90   C192  S    
C68   H48   S    
C37   H29   S    
C137  H77   S    
C64   C68   A    
C7    C187  S    
C89   C203  S    
C5    H1    S    
C145  C159  A    
C30   C100  S    
C85   O29   A    
C50   H34   S    
C6    H126  S    
C9    C13   A    
C87   I5    S    
C67   H47   S    
C149  H85   S    
C111  I11   S    
C26   H22   S    
C130  C144  S    
C44   C52   A    
C45   O25   A    
C93   O35   A    
C95   O41   A    
C147  C160  A    
C123  H75   S    
C195  C199  S    
C62   C66   A    
C77   H53   S    
C10   C14   A    
C53   H37   S    
C164  H92   S    
C95   C181  S    
C165  H93   S    
C187  H123  S    
C174  H98   S    
C4    O20   A    
C161  H89   S    
C61   C65   A    
C87   C201  S    
C158  C200  S    
O32   Zn8   S    
C28   H24   S    
C124  C196  S    
C54   C58   A    
C90   C204  S    
C98   O47   A    
C161  C167  A    
C42   C50   A    
C162  C168  A    
C26   C30   A    
C65   H45   S    
C7    H127  S    
C124  H108  S    
C97   C115  S    
C120  C132  A    
C97   O46   A    
C2    O18   A    
C21   C25   A    
C90   I8    S    
C18   C22   A    
C107  C111  A    
C105  C115  A    
C148  C152  A    
C146  H82   S    
C96   O43   A    
C185  C189  S    
C98   O48   A    
C134  H70   S    
O12   Zn11  S    
O1    Zn1   S    
O33   Zn5   S    
C188  C192  S    
C158  H8    S    
C170  C184  S    
O35   Zn7   S    
C61   C81   A    
C119  H63   S    
C194  C198  S    
C177  C181  A    
C147  C151  A    
C37   C41   A    
C198  H10   S    
C145  C149  A    
C107  C116  A    
C164  C172  A    
O38   Zn5   S    
C161  C171  A    
C40   C44   A    
O2    Zn1   S    
C185  H121  S    
C122  H106  S    
C126  H66   S    
C150  H86   S    
C12   I4    S    
C104  O15   A    
C188  H124  S    
O18   Zn3   S    
C5    C185  S    
C80   C84   A    
C8    C188  S    
C15   C19   A    
C50   C54   A    
C92   O34   A    
C34   H26   S    
O21   Zn1   S    
C106  C110  A    
O42   Zn6   S    
C120  C126  A    
C102  O8    A    
C14   H14   S    
C35   C59   A    
O15   Zn11  S    
C16   H16   S    
O40   Zn7   S    
C100  O6    A    
O13   Zn9   S    
C110  I10   S    
C150  C153  A    
C186  H118  S    
C69   C73   A    
C20   C60   S    
C157  H111  S    
C174  C178  A    
C155  C197  S    
C72   C76   A    
C179  C182  A    
C117  H61   S    
C91   O37   A    
C168  C170  A    
C62   C82   A    
C91   C193  S    
O48   Zn12  S    
C25   C29   A    
C103  O14   A    
C123  C195  S    
C158  H112  S    
C104  C160  S    
C75   H51   S    
C121  C193  S    
C4    O4    A    
C24   C28   A    
C87   C121  S    
C198  H114  S    
C101  O7    A    
O30   Zn6   S    
C11   I3    S    
C1    C69   S    
C56   C60   A    
C63   C83   A    
C68   C72   A    
O28   Zn4   S    
C35   C39   A    
C147  H83   S    
C8    H4    S    
C45   O21   A    
C128  H68   S    
O5    Zn9   S    
O36   Zn8   S    
O10   Zn9   S    
C117  C127  A    
C119  C125  A    
O23   Zn2   S    
C88   C122  S    
C47   O23   A    
C7    C195  S    
C4    C72   S    
C86   C142  S    
C5    C193  S    
C100  O10   A    
C166  H94   S    
C137  C141  A    
C105  H57   S    
C176  H100  S    
C90   C124  S    
C156  C198  S    
C96   C182  S    
C162  H90   S    
C128  C130  A    
C174  C183  A    
C204  N4    T    
C38   C42   A    
C129  C143  S    
C13   C17   A    
C3    O3    A    
O29   Zn5   S    
O4    Zn2   S    
C108  C116  A    
C46   O26   A    
C136  C144  A    
C79   C83   A    
C43   C51   A    
C105  C109  A    
C99   O5    A    
C65   C69   A    
C53   C57   A    
C8    C196  S    
C111  C114  A    
C67   C71   A    
C47   C191  S    
C48   O28   A    
C33   C37   A    
C48   C192  S    
C178  C181  A    
C108  C112  A    
C5    H125  S    
C173  C183  A    
C74   C78   A    
C1    O17   A    
C2    C70   S    
C163  H91   S    
C17   C57   S    
O27   Zn4   S    
C175  C184  A    
C156  C190  S    
C14   C18   A    
C3    C71   S    
C42   C82   S    
C196  C200  S    
C202  N2    T    
C38   H30   S    
C200  H12   S    
C107  H59   S    
C6    H2    S    
C197  H113  S    
C123  H107  S    
C151  C154  A    
C78   C82   A    
C200  H116  S    
C49   H33   S    
C48   O24   A    
C169  C183  S    
C98   C116  S    
C20   C24   A    
C88   C202  S    
C120  H64   S    
O47   Zn11  S    
C25   H21   S    
C77   C81   A    
O45   Zn9   S    
C187  C191  S    
C9    C29   A    
C86   O32   A    
C87   C189  S    
C22   H18   S    
C41   C81   S    
C36   H28   S    
C12   C32   A    
C92   O38   A    
C93   C195  S    
C118  C128  A    
C46   C190  S    
C117  C131  A    
C94   O40   A    
C74   H50   S    
C121  H73   S    
C62   H42   S    
C167  C170  A    
C97   O45   A    
C63   C67   A    
C168  H96   S    
C78   H54   S    
C36   C40   A    
C99   O9    A    
C9    I1    S    
C96   O44   A    
C175  C179  A    
C146  C159  A    
C89   C123  S    
C186  H122  S    
C85   O30   A    
C157  C199  S    
C39   H31   S    
C91   O33   A    
C176  C180  A    
C133  H69   S    
C118  H62   S    
C173  C177  A    
C63   H43   S    
C153  C171  S    
C177  H101  S    
C119  C132  A    
C89   C191  S    
C154  C172  S    
C179  H103  S    
C110  C113  A    
C102  O12   A    
C45   C189  S    
C135  C144  A    
C152  C154  A    
C23   C27   A    
C32   C102  S    
C108  H60   S    
C76   C80   A    
C95   O42   A    
C47   O27   A    
C104  O16   A    
C3    O19   A    
C10   I2    S    
C156  H110  S    
C33   C57   A    
C148  H84   S    
C34   C38   A    
C114  C132  S    
C36   C60   A    
C88   I6    S    
C134  C138  A    
C140  C142  A    
C109  C113  A    
O34   Zn6   S    
O24   Zn2   S    
C164  C166  A    
O6    Zn10  S    
C127  C130  A    
O11   Zn12  S    
C71   C75   A    
C124  H76   S    
C103  C159  S    
O9    Zn10  S    
C193  C197  S    
C199  H11   S    
C8    H128  S    
C197  H9    S    
C11   C31   A    
O37   Zn6   S    
C166  C169  A    
O39   Zn8   S    
C106  H58   S    
C79   H55   S    
C21   H17   S    
C55   H39   S    
C138  H78   S    
C52   C56   A    
