data_mof_unit_26413.cif
_audit_creation_date              2012-12-11T20:50:50-0500
_audit_creation_method            fapswitch 2.2
_symmetry_space_group_name_H-M    P1
_symmetry_Int_Tables_number       1
_space_group_crystal_system       triclinic
_cell_length_a                    30.491584
_cell_length_b                    33.852907
_cell_length_c                    8.395145
_cell_angle_alpha                 90.0
_cell_angle_beta                  90.053254
_cell_angle_gamma                 90.001429
_cell_volume                      8665.70634602

loop_
_atom_site_label
_atom_site_type_symbol
_atom_type_description
_atom_site_fract_x
_atom_site_fract_y
_atom_site_fract_z
_atom_type_partial_charge
Ba1   Ba    Ba6+2 0.999930 0.472870 0.844940 1.658341
Ba2   Ba    Ba6+2 0.999930 0.527130 0.344940 1.659744
Ba3   Ba    Ba6+2 0.499930 0.972870 0.844940 1.658385
Ba4   Ba    Ba6+2 0.499930 0.027130 0.344940 1.659784
C1    C     C_3   0.015021 0.277968 0.572726 -0.321996
C2    C     C_3   0.015130 0.722147 0.075741 -0.321392
C3    C     C_3   0.515180 0.777942 0.574280 -0.321384
C4    C     C_3   0.515215 0.222168 0.076767 -0.321104
C5    C     C_R   0.246285 0.696782 0.035527 -0.026739
C6    C     C_R   0.246478 0.303310 0.534012 -0.026767
C7    C     C_R   0.746289 0.196772 0.035664 -0.026731
C8    C     C_R   0.746484 0.803330 0.534238 -0.026756
C9    C     C_R   0.213676 0.668762 0.993874 0.590473
C10   C     C_R   0.213836 0.331306 0.492419 0.590534
C11   C     C_R   0.713682 0.168750 0.994008 0.590452
C12   C     C_R   0.713843 0.831328 0.492642 0.590503
C13   C     C_R   0.157783 0.718395 0.016586 0.588769
C14   C     C_R   0.157909 0.281779 0.517676 0.588996
C15   C     C_R   0.657797 0.218401 0.016375 0.588733
C16   C     C_R   0.657933 0.781767 0.517303 0.588933
C17   C     C_R   0.189531 0.747096 0.057729 -0.020046
C18   C     C_R   0.189684 0.253105 0.558817 -0.020157
C19   C     C_R   0.689542 0.247103 0.057532 -0.020039
C20   C     C_R   0.689707 0.753093 0.558465 -0.020137
C21   C     C_R   0.234024 0.736170 0.067515 -0.052811
C22   C     C_R   0.234213 0.263988 0.567260 -0.052727
C23   C     C_R   0.734030 0.236168 0.067491 -0.052811
C24   C     C_R   0.734226 0.763992 0.567208 -0.052730
C25   C     C_R   0.290913 0.686391 0.045676 -0.072600
C26   C     C_R   0.291142 0.313658 0.542878 -0.072598
C27   C     C_R   0.790912 0.186374 0.045972 -0.072597
C28   C     C_R   0.791139 0.813693 0.543381 -0.072599
C29   C     C_R   0.822657 0.214414 0.087491 -0.076672
C30   C     C_R   0.822915 0.785674 0.584840 -0.076661
C31   C     C_R   0.322659 0.714430 0.087196 -0.076685
C32   C     C_R   0.322919 0.285639 0.584338 -0.076666
C33   C     C_R   0.810861 0.253807 0.120311 -0.024988
C34   C     C_R   0.811123 0.746336 0.618760 -0.024766
C35   C     C_R   0.310862 0.753814 0.120171 -0.024968
C36   C     C_R   0.311121 0.246317 0.618526 -0.024756
C37   C     C_R   0.766351 0.264732 0.109960 -0.051989
C38   C     C_R   0.766579 0.735451 0.609614 -0.051954
C39   C     C_R   0.266348 0.764733 0.109977 -0.051983
C40   C     C_R   0.266568 0.235447 0.609653 -0.051946
C41   C     C_R   0.177717 0.786496 0.090206 -0.077491
C42   C     C_R   0.177863 0.213775 0.592605 -0.077440
C43   C     C_R   0.677730 0.286511 0.089851 -0.077507
C44   C     C_R   0.677892 0.713748 0.591983 -0.077465
C45   C     C_3   0.007463 0.313463 0.085980 0.328645
C46   C     C_3   0.007466 0.686568 0.586554 0.328158
C47   C     C_3   0.507458 0.813454 0.086366 0.328349
C48   C     C_3   0.507458 0.186569 0.586814 0.328031
C49   C     C_R   0.709421 0.314526 0.131456 -0.079040
C50   C     C_R   0.709612 0.685758 0.633542 -0.078319
C51   C     C_R   0.209411 0.814511 0.131792 -0.079041
C52   C     C_R   0.209585 0.185785 0.634133 -0.078317
C53   C     C_R   0.754000 0.304085 0.142294 -0.023146
C54   C     C_R   0.754225 0.696161 0.643113 -0.023878
C55   C     C_R   0.253995 0.804077 0.142463 -0.023153
C56   C     C_R   0.254208 0.196172 0.643414 -0.023887
C57   C     C_R   0.786421 0.332009 0.185863 0.580338
C58   C     C_R   0.786677 0.668255 0.686525 0.581248
C59   C     C_R   0.286419 0.832000 0.186011 0.580342
C60   C     C_R   0.286664 0.168266 0.686792 0.581252
C61   C     C_R   0.842521 0.282479 0.163428 0.591524
C62   C     C_R   0.842816 0.717679 0.661798 0.591572
C63   C     C_R   0.342524 0.782484 0.163291 0.591501
C64   C     C_R   0.342815 0.217662 0.661567 0.591573
C65   C     C_2   0.107773 0.656595 0.813275 -0.085252
C66   C     C_2   0.107790 0.343391 0.313350 -0.085530
C67   C     C_2   0.607799 0.156577 0.813197 -0.085099
C68   C     C_2   0.607825 0.843416 0.313232 -0.085320
C69   C     C_3   0.069522 0.632315 0.789422 -0.104773
C70   C     C_3   0.069530 0.367666 0.289473 -0.104444
C71   C     C_3   0.569541 0.132305 0.789376 -0.104986
C72   C     C_3   0.569554 0.867677 0.289406 -0.104814
C73   C     C_1   0.096750 0.588379 0.003058 0.030127
C74   C     C_1   0.096786 0.411640 0.502972 0.029765
C75   C     C_1   0.596754 0.088377 0.003052 0.030294
C76   C     C_1   0.596791 0.911643 0.502959 0.029985
C77   C     C_2   0.129744 0.614574 0.042278 -0.094705
C78   C     C_2   0.129865 0.385514 0.541940 -0.095100
C79   C     C_2   0.629739 0.114579 0.042305 -0.094571
C80   C     C_2   0.629857 0.885505 0.541974 -0.094922
C81   C     C_2   0.136488 0.650533 0.943111 0.229345
C82   C     C_2   0.136586 0.349535 0.442898 0.229760
C83   C     C_2   0.636499 0.150527 0.943085 0.229323
C84   C     C_2   0.636601 0.849542 0.442852 0.229714
C85   C     C_R   0.885547 0.344890 0.382066 -0.101381
C86   C     C_R   0.885873 0.655304 0.881244 -0.100261
C87   C     C_R   0.385570 0.844873 0.382012 -0.101281
C88   C     C_R   0.385885 0.155316 0.881204 -0.100215
C89   C     C_3   0.989472 0.276018 0.010151 -0.314597
C90   C     C_3   0.989399 0.724003 0.510933 -0.313690
C91   C     C_3   0.489322 0.776066 0.010569 -0.314041
C92   C     C_3   0.489315 0.223980 0.511233 -0.313269
C93   C     C_R   0.919035 0.374178 0.429507 -0.060967
C94   C     C_R   0.919167 0.625874 0.929163 -0.059089
C95   C     C_R   0.419068 0.874154 0.429434 -0.061599
C96   C     C_R   0.419188 0.125891 0.929106 -0.059559
C97   C     C_R   0.903692 0.411770 0.189780 0.047574
C98   C     C_R   0.903664 0.588220 0.689689 0.045223
C99   C     C_R   0.403697 0.911766 0.189771 0.047643
C100  C     C_R   0.403664 0.088222 0.689683 0.045262
C101  C     C_R   0.871024 0.383862 0.149576 -0.090939
C102  C     C_R   0.871231 0.616299 0.648896 -0.085723
C103  C     C_R   0.371023 0.883862 0.149584 -0.090948
C104  C     C_R   0.371223 0.116296 0.648911 -0.085735
C105  C     C_R   0.863042 0.349919 0.244554 0.232912
C106  C     C_R   0.863350 0.650288 0.743757 0.231927
C107  C     C_R   0.363049 0.849913 0.244539 0.233015
C108  C     C_R   0.363349 0.150289 0.743752 0.232065
C109  C     C_2   0.068165 0.596289 0.879179 -0.265902
C110  C     C_2   0.068153 0.403683 0.379288 -0.265860
C111  C     C_2   0.568183 0.096278 0.879119 -0.265903
C112  C     C_2   0.568179 0.903699 0.379195 -0.265862
C113  C     C_3   0.123562 0.473803 0.172895 0.296961
C114  C     C_3   0.123536 0.526211 0.672877 0.297138
C115  C     C_3   0.623560 0.973799 0.172843 0.297012
C116  C     C_3   0.623535 0.026215 0.672840 0.297166
C117  C     C_3   0.163846 0.447336 0.177307 -0.334857
C118  C     C_3   0.163821 0.552679 0.677442 -0.335265
C119  C     C_3   0.663846 0.947333 0.177250 -0.334972
C120  C     C_3   0.663820 0.052681 0.677405 -0.335332
C121  C     C_3   0.874653 0.526162 0.018024 0.295334
C122  C     C_3   0.874508 0.473493 0.521777 0.310602
C123  C     C_3   0.374660 0.026166 0.018043 0.295325
C124  C     C_3   0.374522 0.973486 0.521799 0.310593
C125  C     C_3   0.833147 0.551488 0.004106 -0.199108
C126  C     C_3   0.832771 0.450652 0.476805 -0.200794
C127  C     C_3   0.333159 0.051498 0.004143 -0.199089
C128  C     C_3   0.332793 0.950634 0.476821 -0.200804
C129  C     C_3   0.001753 0.321077 0.557844 0.348614
C130  C     C_3   0.001402 0.679218 0.058210 0.346205
C131  C     C_3   0.501578 0.820935 0.557814 0.347023
C132  C     C_3   0.501264 0.179329 0.058175 0.344982
C133  C     C_R   0.928745 0.406358 0.318850 -0.290059
C134  C     C_R   0.928508 0.593421 0.819411 -0.292677
C135  C     C_R   0.428765 0.906344 0.318800 -0.289974
C136  C     C_R   0.428520 0.093432 0.819371 -0.292617
H1    H     H_    0.031274 0.339872 0.574452 0.050991
H2    H     H_    0.030797 0.660143 0.072231 0.049076
H3    H     H_    0.531007 0.839933 0.572818 0.049774
H4    H     H_    0.530594 0.160132 0.071037 0.048261
H5    H     H_    0.188745 0.459863 0.259681 0.136239
H6    H     H_    0.188696 0.540150 0.759898 0.136247
H7    H     H_    0.688739 0.959854 0.259656 0.136274
H8    H     H_    0.688691 0.040157 0.759887 0.136271
H9    H     H_    0.154748 0.417393 0.219096 0.079658
H10   H     H_    0.154714 0.582621 0.719214 0.079365
H11   H     H_    0.654747 0.917386 0.218995 0.079547
H12   H     H_    0.654712 0.082627 0.719144 0.079286
H13   H     H_    0.178166 0.444825 0.056120 0.135346
H14   H     H_    0.178174 0.555193 0.556308 0.135330
H15   H     H_    0.678172 0.944832 0.056071 0.135324
H16   H     H_    0.678178 0.055188 0.556277 0.135318
H17   H     H_    0.888954 0.522818 0.897805 -0.008667
H18   H     H_    0.895424 0.475425 0.414314 -0.012053
H19   H     H_    0.388961 0.022825 0.897822 -0.008739
H20   H     H_    0.395446 0.975414 0.414352 -0.012089
H21   H     H_    0.898547 0.541307 0.097115 0.058799
H22   H     H_    0.892519 0.457243 0.615850 0.062429
H23   H     H_    0.398557 0.041305 0.097141 0.058914
H24   H     H_    0.392530 0.957246 0.615902 0.062595
H25   H     H_    0.811063 0.538676 0.912037 0.122881
H26   H     H_    0.820398 0.462349 0.361884 0.104196
H27   H     H_    0.311071 0.038692 0.912071 0.122863
H28   H     H_    0.320431 0.962311 0.361849 0.104150
H29   H     H_    0.842702 0.581163 0.960899 0.050748
H30   H     H_    0.840983 0.419128 0.457488 0.067949
H31   H     H_    0.342719 0.081173 0.960952 0.050828
H32   H     H_    0.341012 0.919108 0.457601 0.068018
H33   H     H_    0.988318 0.325244 0.435795 -0.084940
H34   H     H_    0.987542 0.675714 0.936463 -0.082905
H35   H     H_    0.487851 0.824692 0.435963 -0.083253
H36   H     H_    0.487199 0.176108 0.936630 -0.081628
H37   H     H_    0.035347 0.269350 0.468841 0.123884
H38   H     H_    0.035073 0.731122 0.971368 0.124051
H39   H     H_    0.535291 0.769140 0.470087 0.123798
H40   H     H_    0.535035 0.231273 0.972271 0.124017
H41   H     H_    0.034209 0.273382 0.683619 0.148251
H42   H     H_    0.034855 0.726040 0.185806 0.148748
H43   H     H_    0.534695 0.773791 0.684725 0.148833
H44   H     H_    0.535129 0.225772 0.186522 0.149150
H45   H     H_    0.970464 0.259102 0.099943 0.113982
H46   H     H_    0.970516 0.740944 0.600986 0.114420
H47   H     H_    0.470397 0.759132 0.100532 0.114008
H48   H     H_    0.470477 0.240926 0.601397 0.114432
H49   H     H_    0.698816 0.344476 0.155510 0.119293
H50   H     H_    0.699003 0.655857 0.658535 0.120281
H51   H     H_    0.198804 0.844453 0.155966 0.119295
H52   H     H_    0.198971 0.155896 0.659334 0.120281
H53   H     H_    0.143786 0.795848 0.083751 0.118562
H54   H     H_    0.143905 0.204460 0.587221 0.118715
H55   H     H_    0.643803 0.295869 0.083262 0.118554
H56   H     H_    0.643942 0.704419 0.586367 0.118706
H57   H     H_    0.856583 0.205062 0.094172 0.118967
H58   H     H_    0.856864 0.794997 0.590588 0.118859
H59   H     H_    0.356589 0.705083 0.093753 0.118952
H60   H     H_    0.356875 0.294951 0.589871 0.118840
H61   H     H_    0.878934 0.319823 0.458446 0.090602
H62   H     H_    0.879345 0.680422 0.957447 0.090138
H63   H     H_    0.378962 0.819802 0.458376 0.090543
H64   H     H_    0.379363 0.180438 0.957389 0.090046
H65   H     H_    0.301494 0.656436 0.021651 0.124099
H66   H     H_    0.301726 0.343563 0.517877 0.124047
H67   H     H_    0.801491 0.156411 0.022072 0.124105
H68   H     H_    0.801717 0.843612 0.518595 0.124056
H69   H     H_    0.150017 0.609560 0.146696 0.105136
H70   H     H_    0.150225 0.390592 0.646086 0.104716
H71   H     H_    0.649995 0.109576 0.146774 0.105148
H72   H     H_    0.650191 0.890567 0.646197 0.104750
H73   H     H_    0.111716 0.682844 0.740380 0.092870
H74   H     H_    0.111691 0.317095 0.240707 0.092396
H75   H     H_    0.611755 0.182815 0.740248 0.092928
H76   H     H_    0.611746 0.817137 0.240502 0.092500
H77   H     H_    0.851517 0.388570 0.043467 0.093235
H78   H     H_    0.851786 0.611655 0.542538 0.094302
H79   H     H_    0.351505 0.888577 0.043508 0.093149
H80   H     H_    0.351767 0.111646 0.542584 0.094169
H81   H     H_    0.953731 0.427621 0.350777 0.074627
H82   H     H_    0.953094 0.571870 0.852301 0.073393
H83   H     H_    0.453754 0.927605 0.350716 0.074623
H84   H     H_    0.453110 0.071884 0.852248 0.073389
H85   H     H_    0.985386 0.258885 0.575079 0.108575
H86   H     H_    0.985695 0.741430 0.081368 0.108298
H87   H     H_    0.485685 0.758697 0.578578 0.108427
H88   H     H_    0.485881 0.241543 0.083626 0.108175
H89   H     H_    0.039629 0.577558 0.863009 0.073037
H90   H     H_    0.039613 0.422407 0.363149 0.072845
H91   H     H_    0.539650 0.077545 0.862930 0.072987
H92   H     H_    0.539644 0.922427 0.363024 0.072780
H93   H     H_    0.979355 0.332689 0.120323 0.020255
H94   H     H_    0.979395 0.667340 0.621239 0.019192
H95   H     H_    0.479417 0.832705 0.121157 0.019682
H96   H     H_    0.479420 0.167325 0.621724 0.018845
H97   H     H_    0.025869 0.304187 0.193942 -0.034797
H98   H     H_    0.025963 0.695849 0.694301 -0.034490
H99   H     H_    0.525950 0.804121 0.194048 -0.034660
H100  H     H_    0.526002 0.195875 0.694430 -0.034510
H101  H     H_    0.967343 0.283355 0.909703 0.165795
H102  H     H_    0.967147 0.716650 0.410878 0.166051
H103  H     H_    0.467088 0.783479 0.910538 0.165925
H104  H     H_    0.467003 0.216594 0.411385 0.166140
H105  H     H_    0.016821 0.257213 0.966890 0.102265
H106  H     H_    0.016695 0.742794 0.467193 0.101753
H107  H     H_    0.516584 0.757247 0.966750 0.102071
H108  H     H_    0.516568 0.242782 0.467208 0.101616
H109  H     H_    0.110510 0.476849 0.295005 0.002207
H110  H     H_    0.110448 0.523167 0.794936 0.002242
H111  H     H_    0.610503 0.976837 0.294949 0.002170
H112  H     H_    0.610441 0.023177 0.794895 0.002204
H113  H     H_    0.098544 0.459840 0.095195 0.083162
H114  H     H_    0.098543 0.540174 0.595075 0.083187
H115  H     H_    0.598548 0.959838 0.095113 0.083112
H116  H     H_    0.598545 0.040176 0.595013 0.083158
N1    N     N_R   0.169922 0.679702 0.984469 -0.425765
N2    N     N_R   0.170052 0.320400 0.484254 -0.425813
N3    N     N_R   0.669932 0.179698 0.984437 -0.425773
N4    N     N_R   0.670067 0.820407 0.484190 -0.425814
N5    N     N_R   0.830145 0.321068 0.196505 -0.425440
N6    N     N_R   0.830440 0.679143 0.695845 -0.425960
N7    N     N_R   0.330147 0.821065 0.196503 -0.425448
N8    N     N_R   0.330435 0.179141 0.695854 -0.425973
O1    O     O_2   0.914200 0.445720 0.903420 -0.466974
O2    O     O_2   0.914200 0.554280 0.403420 -0.460503
O3    O     O_2   0.414200 0.945720 0.903420 -0.466921
O4    O     O_2   0.414200 0.054280 0.403420 -0.460458
O5    O     O_3   0.135697 0.489167 0.613568 -0.626747
O6    O     O_3   0.135706 0.510848 0.113533 -0.626686
O7    O     O_3   0.635696 0.989167 0.613567 -0.626741
O8    O     O_3   0.635706 0.010847 0.113530 -0.626683
O9    O     O_3   0.035466 0.333101 0.978650 -0.558913
O10   O     O_3   0.035372 0.666929 0.478892 -0.558907
O11   O     O_3   0.535395 0.833086 0.978797 -0.558773
O12   O     O_3   0.535327 0.166940 0.479000 -0.558806
O13   O     O_3   0.049930 0.518940 0.045960 -0.497086
O14   O     O_3   0.049930 0.481060 0.545960 -0.496955
O15   O     O_3   0.549930 0.018940 0.045960 -0.497101
O16   O     O_3   0.549930 0.981060 0.545960 -0.496967
O17   O     O_2   0.224317 0.634730 0.964542 -0.593107
O18   O     O_2   0.224468 0.365285 0.462059 -0.593038
O19   O     O_2   0.724320 0.134710 0.964819 -0.593112
O20   O     O_2   0.724470 0.865321 0.462527 -0.593051
O21   O     O_2   0.119166 0.727807 0.011218 -0.622366
O22   O     O_2   0.119266 0.272413 0.513481 -0.622053
O23   O     O_2   0.619183 0.227822 0.010831 -0.622413
O24   O     O_2   0.619298 0.772381 0.512806 -0.622166
O25   O     O_2   0.775655 0.365968 0.216135 -0.608460
O26   O     O_2   0.775908 0.634355 0.717830 -0.604206
O27   O     O_2   0.275654 0.865953 0.216399 -0.608452
O28   O     O_2   0.275892 0.134378 0.718295 -0.604190
O29   O     O_2   0.881184 0.273140 0.170743 -0.611750
O30   O     O_2   0.881499 0.726983 0.668201 -0.612154
O31   O     O_2   0.381189 0.773149 0.170490 -0.611848
O32   O     O_2   0.381505 0.226955 0.667764 -0.612221
O33   O     O_3   0.950020 0.480960 0.143730 -0.486395
O34   O     O_3   0.950020 0.519040 0.643730 -0.489770
O35   O     O_3   0.450020 0.980960 0.143730 -0.486415
O36   O     O_3   0.450020 0.019040 0.643730 -0.489788
O37   O     O_3   0.985090 0.412220 0.642040 -0.473072
O38   O     O_3   0.985090 0.587780 0.142040 -0.473528
O39   O     O_3   0.485090 0.912220 0.642040 -0.472902
O40   O     O_3   0.485090 0.087780 0.142040 -0.473398
O41   O     O_2   0.911288 0.380968 0.759570 -0.481132
O42   O     O_2   0.911104 0.618879 0.258772 -0.479368
O43   O     O_2   0.411260 0.881004 0.759406 -0.481082
O44   O     O_2   0.411082 0.118853 0.258648 -0.479312
O45   O     O_3   0.863738 0.489048 0.079154 -0.651247
O46   O     O_3   0.863416 0.511293 0.575735 -0.646256
O47   O     O_3   0.363740 0.989050 0.079149 -0.651269
O48   O     O_3   0.363419 0.011289 0.575711 -0.646275
O49   O     O_3   0.970649 0.329966 0.675801 -0.575283
O50   O     O_3   0.970545 0.670014 0.176627 -0.575032
O51   O     O_3   0.470638 0.829975 0.676138 -0.574842
O52   O     O_3   0.470533 0.170008 0.176862 -0.574708
O53   O     O_2   0.085560 0.445380 0.786390 -0.451337
O54   O     O_2   0.085560 0.554620 0.286390 -0.451441
O55   O     O_2   0.585560 0.945380 0.786390 -0.451367
O56   O     O_2   0.585560 0.054620 0.286390 -0.451458
O57   O     O_3   0.014550 0.412170 0.047860 -0.463799
O58   O     O_3   0.014550 0.587830 0.547860 -0.464066
O59   O     O_3   0.514550 0.912170 0.047860 -0.463703
O60   O     O_3   0.514550 0.087830 0.547860 -0.464018
O61   O     O_2   0.095553 0.388162 0.976111 -0.481681
O62   O     O_2   0.095511 0.611907 0.475906 -0.481748
O63   O     O_2   0.595522 0.888115 0.975902 -0.481649
O64   O     O_2   0.595492 0.111938 0.475764 -0.481722
P1    P     P_3+3 0.909970 0.458430 0.077330 0.978811
P2    P     P_3+3 0.909970 0.541570 0.577330 0.985548
P3    P     P_3+3 0.409970 0.958430 0.077330 0.978809
P4    P     P_3+3 0.409970 0.041570 0.577330 0.985535
P5    P     P_3+3 0.089830 0.458070 0.612460 0.994155
P6    P     P_3+3 0.089830 0.541930 0.112460 0.994174
P7    P     P_3+3 0.589830 0.958070 0.612460 0.994210
P8    P     P_3+3 0.589830 0.041930 0.112460 0.994212
P9    P     P_3+3 0.054851 0.375719 0.073866 0.968255
P10   P     P_3+3 0.054823 0.624300 0.573839 0.968075
P11   P     P_3+3 0.554838 0.875708 0.073827 0.968342
P12   P     P_3+3 0.554816 0.124307 0.573814 0.968136
P13   P     P_3+3 0.945607 0.625302 0.126434 0.974808
P14   P     P_3+3 0.945618 0.374696 0.626541 0.973881
P15   P     P_3+3 0.445609 0.125306 0.126420 0.974747
P16   P     P_3+3 0.445624 0.874690 0.626528 0.973772
C137  C     C_3   0.809060 0.556469 0.164138 -0.155551
C138  C     C_3   0.770936 0.527490 0.181323 -0.386152
H117  H     H_    0.744918 0.534540 0.093100 0.132761
H118  H     H_    0.781982 0.496671 0.161723 0.160904
H119  H     H_    0.756834 0.529859 0.302857 0.121891
H120  H     H_    0.832028 0.552769 0.265956 0.142683
H121  H     H_    0.795584 0.586932 0.171579 0.116789
C139  C     C_3   0.795587 0.453399 0.599877 -0.194698
C140  C     C_3   0.807592 0.434437 0.758924 -0.381184
H122  H     H_    0.819428 0.403730 0.740974 0.142648
H123  H     H_    0.833255 0.452085 0.819080 0.167189
H124  H     H_    0.778300 0.433704 0.837333 0.125178
H125  H     H_    0.786040 0.484716 0.619243 0.145072
H126  H     H_    0.766452 0.437806 0.550998 0.130225
C141  C     C_3   0.309074 0.056478 0.164180 -0.155516
C142  C     C_3   0.270954 0.027495 0.181385 -0.386154
H127  H     H_    0.244936 0.034538 0.093154 0.132774
H128  H     H_    0.282005 0.996677 0.161815 0.160912
H129  H     H_    0.256851 0.029869 0.302915 0.121866
H130  H     H_    0.332045 0.052783 0.265992 0.142702
H131  H     H_    0.295593 0.086940 0.171615 0.116821
C143  C     C_3   0.295594 0.953397 0.599829 -0.194658
C144  C     C_3   0.307584 0.934463 0.758946 -0.381140
H132  H     H_    0.319418 0.903751 0.741099 0.142700
H133  H     H_    0.333245 0.952119 0.819077 0.167196
H134  H     H_    0.278286 0.933747 0.837326 0.125117
H135  H     H_    0.286040 0.984716 0.619095 0.145056
H136  H     H_    0.266467 0.937792 0.550948 0.130256

loop_
_geom_bond_atom_site_label_1
_geom_bond_atom_site_label_2
_ccdc_geom_bond_type
C77   H69   S    
O48   P4    S    
C51   C55   A    
C74   C78   A    
C118  H14   S    
C38   C54   A    
Ba2   O13   S    
C126  C139  S    
O55   P7    D    
C127  H31   S    
C94   C134  S    
C43   H55   S    
C15   N3    Am   
C70   C110  A    
C100  P4    S    
O49   P14   S    
C47   H95   S    
C16   O24   D    
C5    C9    A    
C92   H104  S    
O42   P13   D    
C7    C11   A    
C8    C12   A    
Ba1   O53   S    
C66   C70   A    
Ba3   O55   S    
C130  O50   S    
C43   C49   A    
C114  O5    S    
Ba1   P1    S    
C45   O9    S    
C73   C109  A    
C140  H123  S    
C94   P13   S    
O5    P5    S    
O34   P2    S    
C5    C21   A    
C66   H74   S    
C116  H112  S    
Ba1   O34   S    
C45   H97   S    
C114  H110  S    
C83   N3    S    
C97   C133  D    
C118  H6    S    
C13   C17   A    
C100  C136  D    
C115  H115  S    
C51   H51   S    
C12   O20   D    
C15   C19   A    
C27   H67   S    
C4    H40   S    
Ba3   O15   S    
C7    C23   A    
C139  C140  S    
C46   O10   S    
C60   N8    Am   
Ba2   O38   S    
C89   H105  S    
C108  N8    S    
C103  H79   S    
C131  O51   S    
C101  H77   S    
Ba4   O16   S    
C99   P3    S    
C71   C111  A    
C121  O45   S    
C48   H96   S    
C135  H83   S    
C130  H34   S    
C46   C90   S    
C80   C84   S    
C63   N7    Am   
C53   C57   A    
C14   O22   D    
C115  C119  S    
C25   C31   A    
C55   C59   A    
Ba2   P2    S    
C26   C32   A    
C141  H131  S    
O39   P16   S    
C57   N5    Am   
C3    H87   S    
C1    H85   S    
C144  H134  S    
O9    P9    S    
C3    H43   S    
O6    P6    S    
C123  C127  S    
O61   P9    D    
C121  C125  S    
C141  C142  S    
C99   C103  A    
C128  H32   S    
C45   C89   S    
C129  H33   S    
C143  H135  S    
C47   C91   S    
C86   H62   S    
C132  H36   S    
C44   H56   S    
C139  H126  S    
C21   C39   A    
C4    H88   S    
C22   C40   A    
C1    C129  S    
C2    H42   S    
C40   C56   A    
C12   N4    Am   
C134  H82   S    
Ba2   O2    S    
C69   P10   S    
C124  H24   S    
C25   H65   S    
C114  C118  S    
C137  H120  S    
C9    N1    Am   
O51   P16   S    
C91   H107  S    
O46   P2    S    
C113  H113  S    
Ba3   O59   S    
C117  H9    S    
C33   C61   A    
C96   P15   S    
C141  H130  S    
C28   H68   S    
Ba4   O56   S    
C39   C55   A    
C131  H3    S    
C127  H27   S    
C112  H92   S    
C95   C135  S    
O1    P1    D    
C93   C133  S    
C142  H127  S    
O52   P15   S    
C42   H54   S    
C17   C41   A    
C74   P5    S    
C19   C43   A    
C20   C44   A    
C76   C112  A    
C6    C10   A    
C136  H84   S    
Ba2   O54   S    
C115  H111  S    
O58   P10   S    
Ba1   P5    S    
C30   H58   S    
C138  H118  S    
Ba3   P7    S    
O40   P15   S    
O64   P12   D    
C18   C22   A    
Ba2   O33   S    
C13   N1    Am   
Ba3   Ba4   S    
O50   P13   S    
C64   N8    Am   
C65   C81   A    
C138  H119  S    
C17   C21   A    
C50   H50   S    
C14   C18   A    
C103  C107  A    
O44   P15   D    
O45   P1    S    
C90   H46   S    
Ba2   O14   S    
C109  H89   S    
C113  C117  S    
C47   O11   S    
C60   O28   D    
C81   N1    S    
O4    P4    D    
C89   H101  S    
O2    P2    D    
C9    O17   D    
C67   H75   S    
C72   P11   S    
C33   C37   A    
C122  O46   S    
C48   H100  S    
C36   C40   A    
C41   C51   A    
C42   C52   A    
C128  C143  S    
C87   C95   S    
C49   H49   S    
C142  H129  S    
C77   C81   S    
C78   H70   S    
C54   C58   A    
C79   C83   S    
C52   H52   S    
Ba2   P6    S    
C4    C132  S    
C129  O49   S    
C76   C80   A    
C140  H122  S    
C91   H47   S    
C48   O12   S    
C119  H15   S    
C120  H8    S    
C124  H20   S    
C58   O26   D    
C117  H13   S    
C8    C24   A    
C118  H10   S    
C75   C111  A    
C102  C106  A    
C121  H17   S    
C122  C126  S    
C133  H81   S    
C69   C109  A    
Ba4   O40   S    
C46   H94   S    
C143  C144  S    
C82   N2    S    
C101  C105  A    
O7    P7    S    
C65   C69   A    
C88   H64   S    
O47   P3    S    
C2    H38   S    
O35   P3    S    
C74   C110  A    
C1    H41   S    
O63   P11   D    
C41   H53   S    
C119  H11   S    
Ba4   P4    S    
Ba3   O3    S    
C31   H59   S    
C75   P8    S    
C20   C24   A    
C65   H73   S    
C10   N2    Am   
C49   C53   A    
C88   C108  D    
C78   C82   S    
C29   C33   A    
C104  C108  A    
O8    P8    S    
O60   P12   S    
C107  N7    S    
C31   C35   A    
C130  H2    S    
C126  H26   S    
C73   C77   A    
C144  H133  S    
C90   H106  S    
C67   C83   A    
C102  H78   S    
O12   P12   S    
C71   P12   S    
C105  N5    S    
C143  H136  S    
C100  C104  A    
C140  H124  S    
C123  H23   S    
O41   P14   D    
O54   P6    D    
C121  H21   S    
C32   H60   S    
C59   N7    Am   
Ba1   O57   S    
C80   H72   S    
Ba4   O4    S    
Ba3   P3    S    
C129  H1    S    
C125  H25   S    
C37   C53   A    
Ba1   O14   S    
C132  H4    S    
C75   C79   A    
Ba3   O16   S    
C126  H30   S    
C2    H86   S    
O10   P10   S    
O62   P10   D    
Ba3   O36   S    
C14   N2    Am   
C84   N4    S    
O33   P1    S    
C104  H80   S    
C52   C56   A    
C36   C64   A    
C63   O31   D    
Ba4   O15   S    
C62   O30   D    
C47   H99   S    
C62   N6    Am   
C92   H108  S    
C87   H63   S    
C28   C30   A    
C89   H45   S    
C85   H61   S    
O59   P11   S    
C92   H48   S    
C11   O19   D    
C144  H132  S    
C68   H76   S    
C68   C72   A    
C58   N6    Am   
C142  H128  S    
C113  O6    S    
C97   P1    S    
C132  O52   S    
C46   H98   S    
C44   C50   A    
C115  O8    S    
C116  O7    S    
C125  H29   S    
C34   C38   A    
C70   P9    S    
C26   H66   S    
C85   C105  D    
C76   P7    S    
Ba1   Ba2   S    
C98   C134  D    
C87   C107  D    
O36   P4    S    
C6    C26   A    
C45   H93   S    
C96   C136  S    
C16   C20   A    
O53   P5    D    
Ba2   O58   S    
O13   P6    S    
C27   C29   A    
C98   C102  A    
Ba4   O35   S    
C19   C23   A    
O15   P8    S    
C114  H114  S    
C111  H91   S    
C5    C25   A    
O38   P13   S    
C4    H44   S    
C120  H12   S    
C7    C27   A    
C139  H125  S    
C8    C28   A    
C59   O27   D    
O56   P8    D    
Ba1   O37   S    
C10   O18   D    
O11   P11   S    
C124  C128  S    
Ba3   O39   S    
C68   C84   A    
C56   C60   A    
C122  H18   S    
C97   C101  A    
C34   C62   A    
C32   C36   A    
C35   C39   A    
C85   C93   S    
C131  H35   S    
C137  H121  S    
C116  H116  S    
C3    C131  S    
C99   C135  D    
C13   O21   D    
C23   C37   A    
O16   P7    S    
O57   P9    S    
C29   H57   S    
C15   O23   D    
Ba1   O13   S    
C98   P2    S    
C3    H39   S    
C73   P6    S    
C113  H109  S    
C1    H37   S    
C16   N4    Am   
C119  H7    S    
Ba4   P8    S    
C120  H16   S    
C117  H5    S    
C86   C106  D    
C66   C82   A    
C123  H19   S    
C11   N3    Am   
C88   C96   S    
C50   C54   A    
C18   C42   A    
C30   C34   A    
C35   C63   A    
C128  H28   S    
O14   P5    S    
O43   P16   D    
C110  H90   S    
C123  O47   S    
C124  O48   S    
O37   P14   S    
C90   H102  S    
C2    C130  S    
O3    P3    D    
C67   C71   A    
C6    C22   A    
C138  H117  S    
C57   O25   D    
C64   O32   D    
C24   C38   A    
C72   C112  A    
C48   C92   S    
C93   P14   S    
C106  N6    S    
C95   P16   S    
C61   O29   D    
Ba1   O1    S    
C127  C141  S    
Ba4   O60   S    
C125  C137  S    
C61   N5    Am   
C137  C138  S    
C122  H22   S    
C86   C94   S    
C79   H71   S    
C116  C120  S    
C91   H103  S    
