data_mof_unit_42032.cif
_audit_creation_date              2012-12-11T15:37:16-0500
_audit_creation_method            fapswitch 2.2
_symmetry_space_group_name_H-M    P1
_symmetry_Int_Tables_number       1
_space_group_crystal_system       monoclinic
_cell_length_a                    16.629364
_cell_length_b                    7.133248
_cell_length_c                    15.155341
_cell_angle_alpha                 90.0
_cell_angle_beta                  94.979239
_cell_angle_gamma                 90.0
_cell_volume                      1790.96311064

loop_
_atom_site_label
_atom_site_type_symbol
_atom_type_description
_atom_site_fract_x
_atom_site_fract_y
_atom_site_fract_z
_atom_type_partial_charge
O1    O     O_R   0.578230 0.505720 0.424270 -0.531902
O2    O     O_R   0.421770 0.005720 0.575730 -0.531902
O3    O     O_R   0.412470 0.173950 0.404530 -0.541617
O4    O     O_R   0.587530 0.673950 0.595470 -0.541617
C1    C     C_R   0.386272 0.344992 0.380587 0.674558
C2    C     C_R   0.613728 0.844992 0.619413 0.674561
O5    O     O_R   0.577030 0.175880 0.413670 -0.532390
O6    O     O_R   0.422970 0.675880 0.586330 -0.532390
O7    O     O_R   0.587510 0.007580 0.584940 -0.542590
O8    O     O_R   0.412490 0.507580 0.415060 -0.542590
C3    C     C_R   0.603283 0.344686 0.393267 0.709920
C4    C     C_R   0.396717 0.844686 0.606733 0.709920
O9    O     O_3   0.503240 0.339850 0.556180 -0.370118
O10   O     O_3   0.496760 0.839850 0.443820 -0.370118
V1    V     V_3+5 0.499400 0.064230 0.489580 1.395700
V2    V     V_3+5 0.500600 0.564230 0.510420 1.395700
C5    C     C_1   0.334172 0.854919 0.668994 -0.194824
C6    C     C_1   0.665828 0.354919 0.331006 -0.194824
C7    C     C_1   0.281510 0.865759 0.720375 0.003224
C8    C     C_1   0.718490 0.365759 0.279625 0.003224
C9    C     C_1   0.219264 0.879396 0.780580 0.004216
C10   C     C_1   0.780736 0.379396 0.219420 0.004216
C11   C     C_1   0.166481 0.890176 0.831811 -0.194653
C12   C     C_1   0.833519 0.390176 0.168189 -0.194654
C13   C     C_3   0.760998 0.703697 0.826846 -0.007737
C14   C     C_3   0.239003 0.203697 0.173154 -0.007738
H1    H     H_    0.805655 0.592008 0.820304 0.175046
H2    H     H_    0.194345 0.092008 0.179696 0.175046
C15   C     C_3   0.692320 0.679846 0.750345 -0.322195
C16   C     C_3   0.307681 0.179847 0.249654 -0.322196
H3    H     H_    0.634055 0.641833 0.776440 0.157679
H4    H     H_    0.365947 0.141838 0.223558 0.157681
H5    H     H_    0.707854 0.561099 0.707319 0.131465
H6    H     H_    0.292148 0.061098 0.292679 0.131465
H7    H     H_    0.770459 0.774747 0.601455 0.157800
H8    H     H_    0.229541 0.274742 0.398544 0.157800
C17   C     C_3   0.836165 0.902433 0.720359 -0.012926
C18   C     C_3   0.163835 0.402433 0.279641 -0.012927
C19   C     C_3   0.742772 0.050063 0.827522 -0.012255
C20   C     C_3   0.257227 0.550064 0.172478 -0.012256
C21   C     C_3   0.807689 0.892400 0.816878 0.075941
C22   C     C_3   0.192311 0.392400 0.183122 0.075941
H9    H     H_    0.720028 0.035815 0.893916 0.161858
H10   H     H_    0.279971 0.535817 0.106084 0.161859
C23   C     C_3   0.682386 0.859652 0.692705 0.036380
C24   C     C_3   0.317614 0.359652 0.307295 0.036380
C25   C     C_3   0.762567 0.890173 0.649453 -0.387677
C26   C     C_3   0.237433 0.390170 0.350547 -0.387676
C27   C     C_3   0.670315 0.031519 0.754086 0.038288
C28   C     C_3   0.329685 0.531520 0.245915 0.038288
H11   H     H_    0.669055 0.157467 0.710373 0.157384
H12   H     H_    0.330944 0.657468 0.289627 0.157384
H13   H     H_    0.866261 0.039430 0.712195 0.143724
H14   H     H_    0.133739 0.539430 0.287805 0.143724
H15   H     H_    0.758965 0.021918 0.609903 0.123890
H16   H     H_    0.241034 0.521914 0.390098 0.123890
O11   O     O_R   0.087480 0.241090 0.084980 -0.538984
O12   O     O_R   0.912520 0.741090 0.915020 -0.538984
O13   O     O_R   0.922960 0.569060 0.086330 -0.532784
O14   O     O_R   0.077040 0.069060 0.913670 -0.532785
C29   C     C_R   0.896301 0.400311 0.106232 0.713069
C30   C     C_R   0.103698 0.900312 0.893768 0.713069
O15   O     O_R   0.087520 0.570920 0.095480 -0.537021
O16   O     O_R   0.912480 0.070920 0.904520 -0.537022
O17   O     O_R   0.078240 0.739160 0.924260 -0.532084
O18   O     O_R   0.921760 0.239160 0.075740 -0.532084
C31   C     C_R   0.118629 0.403213 0.114247 0.678375
C32   C     C_R   0.881371 0.903213 0.885753 0.678374
O19   O     O_3   0.996740 0.404980 0.943840 -0.369438
O20   O     O_3   0.003260 0.904980 0.056160 -0.369438
V3    V     V_3+5 0.000600 0.680640 0.010420 1.393649
V4    V     V_3+5 0.999400 0.180640 0.989580 1.393649
C33   C     C_3   0.728635 0.677248 0.919517 -0.835863
H17   H     H_    0.712217 0.529948 0.931536 0.211683
H18   H     H_    0.774221 0.717543 0.973894 0.215271
H19   H     H_    0.673337 0.759797 0.926712 0.213814
C34   C     C_3   0.271364 0.177248 0.080482 -0.835862
H20   H     H_    0.287786 0.029948 0.068465 0.211683
H21   H     H_    0.225777 0.217534 0.026105 0.215273
H22   H     H_    0.326661 0.259802 0.073285 0.213811
C35   C     C_3   0.900459 0.755186 0.701189 -0.810939
H23   H     H_    0.875964 0.610577 0.701473 0.211576
H24   H     H_    0.921317 0.781229 0.634585 0.212951
H25   H     H_    0.954225 0.765208 0.749668 0.210101
C36   C     C_3   0.099541 0.255186 0.298811 -0.810940
H26   H     H_    0.124035 0.110577 0.298525 0.211576
H27   H     H_    0.078683 0.281229 0.365414 0.212951
H28   H     H_    0.045774 0.265210 0.250332 0.210100
C37   C     C_3   0.774474 0.249722 0.827892 -0.867828
H29   H     H_    0.811562 0.279100 0.772283 0.207725
H30   H     H_    0.721021 0.341214 0.820801 0.214102
H31   H     H_    0.807265 0.287539 0.892219 0.241253
C38   C     C_3   0.225526 0.749722 0.172108 -0.867828
H32   H     H_    0.188437 0.779100 0.227716 0.207726
H33   H     H_    0.278978 0.841215 0.179200 0.214101
H34   H     H_    0.192735 0.787540 0.107781 0.241254
C39   C     C_3   0.588251 0.033440 0.794642 -0.838645
H35   H     H_    0.537511 0.041522 0.742213 0.218462
H36   H     H_    0.579548 0.907349 0.835162 0.211497
H37   H     H_    0.584335 0.159031 0.837394 0.213869
C40   C     C_3   0.411748 0.533444 0.205359 -0.838645
H38   H     H_    0.462489 0.541510 0.257787 0.218461
H39   H     H_    0.420449 0.407361 0.164832 0.211497
H40   H     H_    0.415667 0.659043 0.162613 0.213869

loop_
_geom_bond_atom_site_label_1
_geom_bond_atom_site_label_2
_ccdc_geom_bond_type
C3    C6    S    
C38   H32   S    
C2    C23   S    
C33   H17   S    
O1    C3    A    
C20   C38   S    
H7    C25   S    
C39   H37   S    
C2    O7    A    
C39   H35   S    
C19   C21   S    
C36   H26   S    
O5    C3    A    
C40   H38   S    
O16   C32   A    
C7    C9    S    
C13   C33   S    
C18   C22   S    
O12   V3    S    
C36   H28   S    
O14   V4    S    
C15   H5    S    
O14   C30   A    
O19   V3    S    
C39   H36   S    
C29   O18   A    
C11   C30   S    
O18   V4    S    
C27   H11   S    
C4    C5    S    
C28   H12   S    
O20   V3    S    
C37   H30   S    
C18   C26   S    
C34   H20   S    
C17   H13   S    
C23   C25   S    
O2    C4    A    
C40   H39   S    
C33   H18   S    
C17   C35   S    
O11   C31   A    
C35   H24   S    
C35   H23   S    
C21   C32   S    
C24   C26   S    
C34   H21   S    
C13   C15   S    
O15   C31   A    
O13   C29   A    
C14   C34   S    
C16   H6    S    
C18   C36   S    
O4    C2    A    
C13   C21   S    
C19   H9    S    
O5    V1    S    
O17   V3    S    
C15   C23   S    
O4    V2    S    
O19   V4    S    
C18   H14   S    
C23   C27   S    
O6    C4    A    
O1    V2    S    
C37   H31   S    
O2    V1    S    
C12   C29   S    
O12   C32   A    
C19   C27   S    
C8    C10   S    
C14   C16   S    
C40   H40   S    
C9    C11   T    
C22   C31   S    
C33   H19   S    
C10   C12   T    
C17   C25   S    
C35   H25   S    
O3    V1    S    
C14   C22   S    
C25   H15   S    
C34   H22   S    
C26   H16   S    
C30   O17   A    
C16   C24   S    
O15   V3    S    
O3    C1    A    
C38   H34   S    
C1    C24   S    
C24   C28   S    
C14   H2    S    
O7    V1    S    
C1    O8    A    
C15   H3    S    
O8    V2    S    
C16   H4    S    
C38   H33   S    
C20   C28   S    
C20   C22   S    
C5    C7    T    
H8    C26   S    
C6    C8    T    
O16   V4    S    
O11   V4    S    
C17   C21   S    
C27   C39   S    
C36   H27   S    
C20   H10   S    
C28   C40   S    
O6    V2    S    
O9    V2    S    
O10   V1    S    
O20   V4    S    
C37   H29   S    
C19   C37   S    
O13   V3    S    
C13   H1    S    
