data_mof_unit_12239.cif
_audit_creation_date              2012-12-10T18:46:14-0500
_audit_creation_method            fapswitch 2.2
_symmetry_space_group_name_H-M    P1
_symmetry_Int_Tables_number       1
_space_group_crystal_system       triclinic
_cell_length_a                    9.918185
_cell_length_b                    10.835433
_cell_length_c                    13.616721
_cell_angle_alpha                 90.454785
_cell_angle_beta                  74.849905
_cell_angle_gamma                 91.161693
_cell_volume                      1412.20404865

loop_
_atom_site_label
_atom_site_type_symbol
_atom_type_description
_atom_site_fract_x
_atom_site_fract_y
_atom_site_fract_z
_atom_type_partial_charge
C1    C     C_R   0.506677 0.738548 0.485817 0.902399
C2    C     C_R   0.450935 0.446972 0.970537 -0.010102
C3    C     C_R   0.492579 0.451301 0.864222 -0.055647
C4    C     C_R   0.549460 0.485841 0.025061 0.004798
C5    C     C_R   0.693377 0.488933 0.972891 -0.027417
C6    C     C_R   0.733224 0.438417 0.874107 0.121009
C7    C     C_R   0.631003 0.415193 0.821412 0.211205
C8    C     C_R   0.509820 0.515701 0.129723 -0.031158
C9    C     C_R   0.752985 0.543918 0.130509 0.122701
C10   C     C_R   0.391724 0.437252 0.807965 -0.198094
C11   C     C_R   0.637662 0.939936 0.468199 0.167790
C12   C     C_R   0.426559 0.481294 0.699994 0.912565
C13   C     C_R   0.620393 0.060623 0.504254 -0.022849
C14   C     C_R   0.493864 0.122386 0.510412 -0.302637
C15   C     C_R   0.373628 0.052704 0.502973 0.181345
C16   C     C_R   0.393243 0.931775 0.465383 0.210742
C17   C     C_R   0.516135 0.871246 0.466832 -0.256725
C18   C     C_R   0.943172 0.410800 0.449639 0.224254
C19   C     C_R   0.083857 0.405339 0.456793 0.181901
C20   C     C_R   0.057177 0.591434 0.548430 -0.056616
C21   C     C_R   0.912475 0.590718 0.549504 -0.078518
C22   C     C_R   0.496168 0.258707 0.507248 0.872369
C23   C     C_R   0.573943 0.508775 0.298071 0.875245
C24   C     C_R   0.792362 0.531400 0.024093 -0.039051
C25   C     C_R   0.612523 0.522622 0.185083 -0.176105
C26   C     C_R   0.277349 0.356077 0.849667 0.174991
C27   C     C_R   0.246884 0.325058 0.953687 0.193531
C28   C     C_R   0.334774 0.368973 0.013730 0.118099
N1    N     N_R   0.142790 0.500030 0.500030 -0.121273
N2    N     N_R   0.857180 0.499940 0.500010 -0.132181
O1    O     O_R   0.385370 0.683250 0.500010 -0.602838
O2    O     O_R   0.614700 0.683220 0.500010 -0.627060
O3    O     O_R   0.328400 0.499990 0.653620 -0.637426
O4    O     O_R   0.557730 0.499960 0.653620 -0.603352
O5    O     O_R   0.385300 0.316780 0.499990 -0.618060
O6    O     O_R   0.614630 0.316750 0.499990 -0.592006
O7    O     O_R   0.442270 0.500040 0.346380 -0.615308
O8    O     O_R   0.671600 0.500010 0.346380 -0.573086
Zn1   Zn    Zn3+2 0.346870 0.500020 0.500000 0.968195
Zn2   Zn    Zn3+2 0.653130 0.499980 0.500000 0.987489
N3    N     N_2   0.852981 0.586188 0.182079 -0.280349
H1    H     H_    0.952390 0.554166 0.152114 0.225138
C29   C     C_3   0.854135 0.718004 0.197046 -0.747902
H2    H     H_    0.884579 0.766509 0.122682 0.236139
H3    H     H_    0.932245 0.741230 0.239537 0.234637
H4    H     H_    0.749443 0.749092 0.240772 0.234933
C30   C     C_1   0.726548 0.109377 0.549613 0.250896
N4    N     N_1   0.814553 0.143791 0.585001 -0.283177
N5    N     N_2   0.235044 0.099636 0.540914 -0.295271
H5    H     H_    0.228925 0.180139 0.581390 0.264449
C31   C     C_3   0.124310 0.017427 0.595551 -0.830989
H6    H     H_    0.164946 0.953975 0.643515 0.263571
H7    H     H_    0.073937 0.968401 0.542673 0.263152
H8    H     H_    0.040544 0.071438 0.647267 0.247351
N6    N     N_2   0.298111 0.872853 0.416605 -0.271705
H9    H     H_    0.212803 0.828036 0.462448 0.251298
C32   C     C_3   0.272614 0.935672 0.330286 -0.794109
H10   H     H_    0.198387 0.011196 0.356779 0.249239
H11   H     H_    0.226078 0.869393 0.285285 0.245866
H12   H     H_    0.371922 0.973071 0.280378 0.240498
N7    N     N_2   0.889961 0.322667 0.391033 -0.243108
H13   H     H_    0.896710 0.233144 0.411892 0.215797
C33   C     C_3   0.938599 0.336019 0.282101 -0.773180
H14   H     H_    0.847450 0.345872 0.250307 0.266993
H15   H     H_    0.993581 0.251581 0.247901 0.207055
H16   H     H_    0.011319 0.416399 0.260141 0.240559
N8    N     N_2   0.153955 0.292334 0.435613 -0.279222
H17   H     H_    0.089930 0.216384 0.458867 0.222242
C34   C     C_3   0.244569 0.277512 0.335417 -0.658095
H18   H     H_    0.198427 0.206671 0.294392 0.187456
H19   H     H_    0.347277 0.243593 0.339892 0.256261
H20   H     H_    0.260265 0.365673 0.293613 0.263786
C35   C     C_1   0.107600 0.671980 0.616216 0.224886
N9    N     N_1   0.147176 0.733046 0.673284 -0.209825
C36   C     C_1   0.821279 0.681523 0.608979 0.258274
N10   N     N_1   0.749190 0.754451 0.657509 -0.193270
N11   N     N_2   0.867916 0.387559 0.837292 -0.324845
H21   H     H_    0.868876 0.292988 0.828257 0.237526
C37   C     C_3   0.959083 0.452399 0.753464 -0.745885
H22   H     H_    0.974172 0.396914 0.682723 0.211835
H23   H     H_    0.061621 0.468592 0.769104 0.275539
H24   H     H_    0.916264 0.543902 0.744420 0.238164
C38   C     C_1   0.931372 0.572685 0.969021 0.201497
N12   N     N_1   0.042523 0.607283 0.927043 -0.208596
C39   C     C_1   0.369129 0.557823 0.174955 0.225357
N13   N     N_1   0.257139 0.592296 0.210522 -0.238681
N14   N     N_2   0.217342 0.280294 0.785191 -0.292435
H25   H     H_    0.217120 0.314053 0.715132 0.235208
C40   C     C_3   0.249681 0.149780 0.782627 -0.759665
H26   H     H_    0.151884 0.094366 0.792714 0.259968
H27   H     H_    0.300492 0.122756 0.842616 0.242408
H28   H     H_    0.324081 0.126057 0.709630 0.220507
N15   N     N_2   0.329878 0.307270 0.105902 -0.310798
H29   H     H_    0.229674 0.284310 0.145268 0.228451
C41   C     C_3   0.425470 0.205133 0.094572 -0.830060
H30   H     H_    0.535130 0.237456 0.063202 0.259228
H31   H     H_    0.400045 0.133199 0.043332 0.229316
H32   H     H_    0.418185 0.162457 0.169372 0.238183
N16   N     N_2   0.142375 0.232316 0.992208 -0.291991
H33   H     H_    0.168612 0.162865 0.034585 0.224828
C42   C     C_3   0.003313 0.277330 0.032368 -0.801951
H34   H     H_    0.934596 0.203803 0.076652 0.230990
H35   H     H_    0.960408 0.303570 0.969328 0.284197
H36   H     H_    0.005074 0.358972 0.081139 0.230095
N17   N     N_2   0.654395 0.321597 0.745629 -0.275964
H37   H     H_    0.748249 0.328186 0.691484 0.256521
C43   C     C_3   0.612849 0.198154 0.784429 -0.783550
H38   H     H_    0.706170 0.144366 0.786390 0.238188
H39   H     H_    0.556120 0.150630 0.734658 0.248021
H40   H     H_    0.542007 0.199358 0.862548 0.237646
N18   N     N_2   0.775565 0.889555 0.432532 -0.275321
H41   H     H_    0.779999 0.803440 0.400344 0.258464
C44   C     C_3   0.883948 0.969078 0.370065 -0.844060
H42   H     H_    0.840037 0.033079 0.323482 0.249605
H43   H     H_    0.964880 0.913697 0.317843 0.229188
H44   H     H_    0.939746 0.020750 0.418211 0.249479

loop_
_geom_bond_atom_site_label_1
_geom_bond_atom_site_label_2
_ccdc_geom_bond_type
N14   H25   S    
C33   H15   S    
N15   H29   S    
C43   H39   S    
C35   N9    T    
C2    C4    A    
C41   H30   S    
C4    C8    A    
C41   H32   S    
C9    C25   A    
C39   N13   T    
C22   O5    A    
N17   C43   S    
C27   N16   S    
C26   C27   A    
C42   H34   S    
O4    Zn2   S    
C24   C38   S    
C8    C39   S    
C3    C7    A    
C5    C6    A    
C32   H11   S    
C15   C16   A    
C1    O1    A    
N7    C33   S    
C18   C19   A    
N3    H1    S    
C34   H19   S    
C18   N7    S    
C38   N12   T    
C26   N14   S    
N5    C31   S    
C43   H38   S    
C7    N17   S    
C19   N8    S    
C18   N2    A    
C40   H27   S    
C44   H44   S    
C10   C26   A    
O2    Zn2   S    
C33   H16   S    
N15   C41   S    
C13   C14   A    
C8    C25   A    
N3    C29   S    
N7    H13   S    
C20   N1    A    
N11   C37   S    
C33   H14   S    
C11   N18   S    
C31   H6    S    
O6    Zn2   S    
C37   H23   S    
C16   C17   A    
C6    N11   S    
N11   H21   S    
C1    O2    A    
N8    H17   S    
C28   N15   S    
C31   H7    S    
C34   H20   S    
O5    Zn1   S    
C36   N10   T    
C30   N4    T    
N1    Zn1   S    
N6    H9    S    
N2    Zn2   S    
N18   C44   S    
O3    Zn1   S    
C40   H28   S    
C29   H3    S    
C10   C12   S    
N16   C42   S    
C42   H36   S    
N6    C32   S    
C29   H2    S    
C43   H40   S    
C12   O4    A    
C19   N1    A    
C13   C30   S    
C44   H42   S    
C21   N2    A    
C11   C17   A    
N18   H41   S    
C9    N3    S    
C4    C5    A    
C32   H12   S    
C37   H24   S    
C41   H31   S    
C9    C24   A    
C6    C7    A    
C23   O8    A    
C22   O6    A    
N17   H37   S    
C21   C36   S    
C1    C17   S    
N16   H33   S    
C31   H8    S    
C14   C22   S    
N14   C40   S    
C2    C3    A    
C12   O3    A    
C16   N6    S    
O7    Zn1   S    
C3    C10   A    
C23   O7    A    
O8    Zn2   S    
C11   C13   A    
C32   H10   S    
C5    C24   A    
O1    Zn1   S    
C20   C35   S    
C15   N5    S    
C34   H18   S    
C29   H4    S    
C37   H22   S    
C23   C25   S    
C20   C21   A    
C42   H35   S    
N5    H5    S    
C27   C28   A    
C14   C15   A    
C2    C28   A    
N8    C34   S    
C40   H26   S    
C44   H43   S    
