data_mof_unit_60752.cif
_audit_creation_date              2012-12-10T20:50:05-0500
_audit_creation_method            fapswitch 2.2
_symmetry_space_group_name_H-M    P1
_symmetry_Int_Tables_number       1
_space_group_crystal_system       triclinic
_cell_length_a                    19.204421
_cell_length_b                    19.221464
_cell_length_c                    19.199874
_cell_angle_alpha                 94.763803
_cell_angle_beta                  90.096096
_cell_angle_gamma                 85.253815
_cell_volume                      7038.58748705

loop_
_atom_site_label
_atom_site_type_symbol
_atom_type_description
_atom_site_fract_x
_atom_site_fract_y
_atom_site_fract_z
_atom_type_partial_charge
C1    C     C_R   0.492696 0.492468 0.310669 0.508388
C2    C     C_R   0.122823 0.576136 0.489448 -0.107552
C3    C     C_R   0.506975 0.512475 0.766084 0.029780
C4    C     C_R   0.506982 0.507520 0.689309 0.510064
C5    C     C_R   0.475315 0.462391 0.801566 -0.150647
C6    C     C_R   0.472899 0.467737 0.874206 -0.091488
C7    C     C_R   0.502148 0.523644 0.912903 0.224754
C8    C     C_R   0.532847 0.574098 0.877452 -0.109775
C9    C     C_R   0.535964 0.568311 0.804531 -0.146140
C10   C     C_R   0.465057 0.542637 0.126300 -0.090694
C11   C     C_R   0.463497 0.545991 0.199174 -0.150931
C12   C     C_R   0.912959 0.476367 0.494920 0.224748
C13   C     C_R   0.493067 0.481174 0.087589 0.224346
C14   C     C_R   0.490581 0.488508 0.234091 0.030877
C15   C     C_R   0.517348 0.427043 0.195255 -0.144761
C16   C     C_R   0.491993 0.689846 0.508405 0.508486
C17   C     C_R   0.517641 0.423262 0.122568 -0.109310
C18   C     C_R   0.512269 0.233215 0.491238 0.028895
C19   C     C_R   0.464393 0.200716 0.530124 -0.152779
C20   C     C_R   0.469317 0.128225 0.531143 -0.091697
C21   C     C_R   0.522555 0.086555 0.493074 0.225043
C22   C     C_R   0.570733 0.119105 0.454941 -0.111791
C23   C     C_R   0.877552 0.423173 0.459981 -0.110366
C24   C     C_R   0.565450 0.191869 0.453477 -0.148343
C25   C     C_R   0.546334 0.873794 0.517180 -0.094921
C26   C     C_R   0.548860 0.801149 0.517583 -0.165534
C27   C     C_R   0.481628 0.913261 0.512216 0.210119
C28   C     C_R   0.507558 0.310035 0.492259 0.508459
C29   C     C_R   0.487241 0.766729 0.512161 0.020005
C30   C     C_R   0.422157 0.806450 0.508904 -0.036126
C31   C     C_R   0.420066 0.879280 0.509616 -0.112428
C32   C     C_R   0.310742 0.508197 0.507880 0.511701
C33   C     C_R   0.689384 0.491857 0.492308 0.509096
C34   C     C_R   0.804640 0.428612 0.457636 -0.147057
C35   C     C_R   0.766149 0.486955 0.491607 0.029613
C36   C     C_R   0.801579 0.539885 0.527427 -0.151628
C37   C     C_R   0.874208 0.534835 0.529104 -0.091534
C38   C     C_1   0.356749 0.774201 0.506829 0.217400
C39   C     C_R   0.126259 0.459665 0.529847 -0.091135
C40   C     C_R   0.199106 0.456414 0.531310 -0.152613
C41   C     C_R   0.087691 0.519571 0.507992 0.223633
C42   C     C_R   0.234171 0.512382 0.510207 0.029958
C43   C     C_R   0.195504 0.572361 0.489578 -0.138301
H1    H     H_    0.227986 0.409745 0.547586 0.132497
H2    H     H_    0.594766 0.898932 0.520965 0.140520
H3    H     H_    0.612197 0.087870 0.425863 0.121158
H4    H     H_    0.100197 0.415788 0.546072 0.136992
H5    H     H_    0.603390 0.215747 0.423527 0.136136
H6    H     H_    0.431799 0.105041 0.562210 0.138109
H7    H     H_    0.370242 0.909967 0.507289 0.124927
H8    H     H_    0.423058 0.231315 0.559992 0.137068
H9    H     H_    0.906630 0.377670 0.434020 0.122332
H10   H     H_    0.778439 0.386756 0.430244 0.136257
H11   H     H_    0.221477 0.616497 0.473782 0.160853
H12   H     H_    0.444141 0.587651 0.100318 0.138287
H13   H     H_    0.899911 0.576273 0.557777 0.138435
H14   H     H_    0.093674 0.622829 0.473574 0.127595
H15   H     H_    0.773164 0.585268 0.554355 0.137021
H16   H     H_    0.442397 0.593812 0.228174 0.137077
H17   H     H_    0.554969 0.617654 0.906500 0.123408
H18   H     H_    0.560029 0.608018 0.778291 0.138871
H19   H     H_    0.537854 0.381753 0.221095 0.136532
H20   H     H_    0.447524 0.428563 0.899969 0.138123
H21   H     H_    0.538334 0.375440 0.093289 0.122799
H22   H     H_    0.452230 0.419019 0.773188 0.138121
H23   H     H_    0.599175 0.771602 0.520553 0.130450
N1    N     N_2   0.987101 0.468940 0.495831 -0.246513
N2    N     N_2   0.013753 0.525899 0.505944 -0.249271
N3    N     N_2   0.500509 0.531161 0.987053 -0.245898
N4    N     N_2   0.495577 0.474728 0.013645 -0.250109
N5    N     N_2   0.529689 0.012366 0.492709 -0.245729
N6    N     N_2   0.475688 0.987191 0.511665 -0.248476
N7    N     N_1   0.304353 0.748391 0.505196 -0.302812
O1    O     O_3   0.500000 0.500000 0.500000 -0.437228
O2    O     O_R   0.340900 0.545940 0.467290 -0.535080
O3    O     O_R   0.655960 0.450920 0.450930 -0.545015
O4    O     O_R   0.347180 0.467040 0.545670 -0.544573
O5    O     O_R   0.655970 0.536100 0.536110 -0.545866
O6    O     O_R   0.536480 0.656330 0.545680 -0.545705
O7    O     O_R   0.545300 0.340270 0.450920 -0.547620
O8    O     O_R   0.451550 0.536740 0.347440 -0.541414
O9    O     O_R   0.466670 0.466660 0.655960 -0.544763
O10   O     O_R   0.536460 0.451300 0.340640 -0.545362
O11   O     O_R   0.545320 0.545300 0.655970 -0.543512
O12   O     O_R   0.451560 0.656600 0.467300 -0.527890
O13   O     O_R   0.466660 0.346810 0.536100 -0.547241
Zn1   Zn    Zn3+2 0.558430 0.558420 0.558430 0.938365
Zn2   Zn    Zn3+2 0.437090 0.558800 0.446440 0.958364
Zn3   Zn    Zn3+2 0.446060 0.446060 0.558420 0.937056
Zn4   Zn    Zn3+2 0.558420 0.436720 0.436720 0.934914

loop_
_geom_bond_atom_site_label_1
_geom_bond_atom_site_label_2
_ccdc_geom_bond_type
O5    Zn1   S    
C35   C36   A    
O11   Zn1   S    
C32   O2    A    
O6    Zn1   S    
C2    H14   S    
C7    C8    A    
C39   C41   A    
C12   C23   A    
O4    Zn3   S    
C29   C30   A    
O9    Zn3   S    
C21   N5    S    
C9    H18   S    
O1    Zn3   S    
C36   C37   A    
C18   C19   A    
C36   H15   S    
C17   H21   S    
C5    C6    A    
C11   C14   A    
C33   O5    A    
C13   N4    S    
C2    C41   A    
C1    O8    A    
C30   C38   S    
C34   C35   A    
C12   C37   A    
C43   H11   S    
C32   O4    A    
C37   H13   S    
C19   C20   A    
C8    C9    A    
O1    Zn1   S    
C40   C42   A    
C21   C22   A    
C11   H16   S    
C41   N2    S    
C12   N1    S    
C27   C31   A    
N1    N2    D    
C26   H23   S    
C18   C28   S    
C5    H22   S    
C39   C40   A    
C16   C29   S    
O13   Zn3   S    
C24   H5    S    
C6    H20   S    
C20   H6    S    
C3    C9    A    
C33   O3    A    
C4    O11   A    
C2    C43   A    
C23   C34   A    
C10   H12   S    
C34   H10   S    
C22   H3    S    
C28   O13   A    
C16   O12   A    
C18   C24   A    
C1    O10   A    
C42   C43   A    
C31   H7    S    
C3    C4    S    
C25   H2    S    
C39   H4    S    
O12   Zn2   S    
C15   C17   A    
O10   Zn4   S    
C3    C5    A    
C10   C13   A    
C7    N3    S    
C6    C7    A    
C25   C27   A    
C13   C17   A    
C16   O6    A    
O1    Zn4   S    
C25   C26   A    
N5    N6    D    
C8    H17   S    
C23   H9    S    
C30   C31   A    
C33   C35   S    
C15   H19   S    
C22   C24   A    
O7    Zn4   S    
N3    N4    D    
C28   O7    A    
O8    Zn2   S    
C10   C11   A    
C19   H8    S    
O2    Zn2   S    
C40   H1    S    
C4    O9    A    
C20   C21   A    
C26   C29   A    
C32   C42   S    
C14   C15   A    
C1    C14   S    
O1    Zn2   S    
C27   N6    S    
O3    Zn4   S    
C38   N7    T    
