data_mof_unit_15622.cif
_audit_creation_date              2012-12-10T20:50:10-0500
_audit_creation_method            fapswitch 2.2
_symmetry_space_group_name_H-M    P1
_symmetry_Int_Tables_number       1
_space_group_crystal_system       triclinic
_cell_length_a                    19.227396
_cell_length_b                    8.924857
_cell_length_c                    8.093821
_cell_angle_alpha                 89.999034
_cell_angle_beta                  89.997736
_cell_angle_gamma                 89.964573
_cell_volume                      1388.91366018

loop_
_atom_site_label
_atom_site_type_symbol
_atom_type_description
_atom_site_fract_x
_atom_site_fract_y
_atom_site_fract_z
_atom_type_partial_charge
C1    C     C_R   0.499991 0.217958 0.499997 0.931684
C2    C     C_R   0.255792 0.408545 0.370917 0.333321
C3    C     C_R   0.177837 0.577113 0.601456 0.400639
C4    C     C_R   0.815659 0.574085 0.347091 0.410470
C5    C     C_R   0.822144 0.422686 0.601417 0.400496
C6    C     C_R   0.184357 0.425692 0.347156 0.410508
C7    C     C_R   0.145110 0.505130 0.466109 -0.378630
C8    C     C_R   0.854888 0.494630 0.466060 -0.378499
C9    C     C_R   0.289333 0.489392 0.498175 -0.395952
C10   C     C_R   0.710670 0.510527 0.498148 -0.395946
C11   C     C_R   0.930174 0.496773 0.455638 0.470728
C12   C     C_R   0.500008 0.782042 0.499996 0.931690
C13   C     C_R   0.069825 0.502977 0.455657 0.470779
C14   C     C_R   0.365128 0.497600 0.500067 0.956812
C15   C     C_R   0.634872 0.502394 0.500060 0.956829
C16   C     C_1   0.499995 0.065198 0.499987 -0.142647
C17   C     C_1   0.500005 0.934802 0.499984 -0.142647
C18   C     C_R   0.250328 0.572429 0.613631 0.324238
C19   C     C_R   0.744228 0.591307 0.370855 0.333379
C20   C     C_R   0.749655 0.427460 0.613611 0.324241
H1    H     H_    0.304614 0.582899 0.810226 0.374800
H2    H     H_    0.668941 0.731948 0.330279 0.335343
H3    H     H_    0.695391 0.417101 0.810250 0.374800
H4    H     H_    0.331110 0.267967 0.330376 0.335320
H5    H     H_    0.075624 0.885075 0.771151 0.388121
H6    H     H_    0.902211 0.869185 0.113024 0.394519
H7    H     H_    0.924343 0.114657 0.771005 0.388246
H8    H     H_    0.098758 0.129751 0.112405 0.394661
N1    N     N_1   0.500000 0.500000 0.073640 -0.003965
N2    N     N_1   0.500000 0.500000 0.926360 -0.011124
N3    N     N_R   0.035661 0.370264 0.454805 -0.073695
N4    N     N_R   0.964339 0.629485 0.454788 -0.074107
N5    N     N_R   0.966714 0.367154 0.453222 -0.059179
N6    N     N_R   0.033285 0.632595 0.453225 -0.059428
O1    O     O_R   0.500000 0.285350 0.636850 -0.606423
O2    O     O_3   0.708512 0.688382 0.268262 -0.653794
O3    O     O_3   0.717075 0.344060 0.733671 -0.660004
O4    O     O_3   0.291531 0.311480 0.268353 -0.653933
O5    O     O_2   0.064486 0.585836 0.799200 -0.220928
O6    O     O_2   0.170967 0.692091 0.913252 -0.191412
O7    O     O_3   0.106599 0.842236 0.685487 -0.498343
O8    O     O_2   0.917687 0.567798 0.115466 -0.218556
O9    O     O_2   0.803825 0.659011 0.027154 -0.208369
O10   O     O_3   0.878635 0.831920 0.213829 -0.489953
O11   O     O_2   0.935483 0.413850 0.799172 -0.220903
O12   O     O_R   0.500000 0.714650 0.363150 -0.618700
O13   O     O_2   0.828983 0.307629 0.913186 -0.191085
O14   O     O_3   0.893342 0.157503 0.685393 -0.498183
O15   O     O_2   0.082333 0.431821 0.115504 -0.217919
O16   O     O_2   0.196228 0.340737 0.027254 -0.209067
O17   O     O_3   0.121435 0.167776 0.213960 -0.490304
O18   O     O_R   0.500000 0.714650 0.636850 -0.606437
O19   O     O_R   0.500000 0.285350 0.363150 -0.618695
O20   O     O_R   0.398140 0.500000 0.636920 -0.613344
O21   O     O_R   0.601860 0.500000 0.363080 -0.597200
O22   O     O_R   0.601860 0.500000 0.636920 -0.613275
O23   O     O_R   0.398140 0.500000 0.363080 -0.597178
O24   O     O_3   0.282887 0.655893 0.733661 -0.660051
S1    S     S_3+6 0.129168 0.672397 0.757797 0.131968
S2    S     S_3+6 0.854729 0.655548 0.168143 0.135203
S3    S     S_3+6 0.870791 0.327337 0.757742 0.132206
S4    S     S_3+6 0.145310 0.344162 0.168226 0.135080
Zn1   Zn    Zn3+2 0.500000 0.500000 0.682780 1.044342
Zn2   Zn    Zn3+2 0.500000 0.500000 0.317220 1.049450

loop_
_geom_bond_atom_site_label_1
_geom_bond_atom_site_label_2
_ccdc_geom_bond_type
C12   C17   S    
O13   S3    D    
C5    C8    A    
H4    O4    S    
C9    C14   S    
N3    N5    A    
N4    N6    A    
C6    C7    A    
N1    N2    T    
H2    O2    S    
C2    O4    S    
C11   N5    A    
C10   C19   A    
C4    C8    A    
O5    S1    D    
O21   Zn2   S    
C6    S4    S    
O1    Zn1   S    
O22   Zn1   S    
C5    S3    S    
H1    O24   S    
O6    S1    D    
H5    O7    S    
N2    Zn1   S    
C15   O22   A    
C20   O3    S    
C4    C19   A    
O7    S1    S    
O14   S3    S    
C2    C6    A    
O17   S4    S    
O9    S2    D    
O10   S2    S    
C8    C11   S    
O11   S3    D    
C14   O20   A    
C15   O21   A    
C11   N4    A    
C3    C7    A    
C10   C15   S    
H7    O14   S    
O16   S4    D    
H8    O17   S    
C5    C20   A    
N1    Zn2   S    
O20   Zn1   S    
O12   Zn2   S    
H6    O10   S    
C9    C18   A    
C7    C13   S    
C1    O1    A    
C3    C18   A    
C12   O12   A    
O8    S2    D    
C1    C16   S    
C14   O23   A    
C1    O19   A    
C16   C17   T    
C13   N6    A    
O15   S4    D    
C12   O18   A    
C19   O2    S    
H3    O3    S    
C2    C9    A    
O19   Zn2   S    
C13   N3    A    
C18   O24   S    
C10   C20   A    
O23   Zn2   S    
C4    S2    S    
O18   Zn1   S    
C3    S1    S    
