data_mof_unit_49256.cif
_audit_creation_date              2012-12-10T19:10:25-0500
_audit_creation_method            fapswitch 2.2
_symmetry_space_group_name_H-M    P1
_symmetry_Int_Tables_number       1
_space_group_crystal_system       triclinic
_cell_length_a                    10.629655
_cell_length_b                    9.752284
_cell_length_c                    15.72939
_cell_angle_alpha                 89.77475
_cell_angle_beta                  89.412817
_cell_angle_gamma                 89.7549
_cell_volume                      1630.44940722

loop_
_atom_site_label
_atom_site_type_symbol
_atom_type_description
_atom_site_fract_x
_atom_site_fract_y
_atom_site_fract_z
_atom_type_partial_charge
C1    C     C_R   0.257684 0.499894 0.500467 0.833264
C2    C     C_3   0.607734 0.600349 0.951496 -0.048313
C3    C     C_3   0.605448 0.589236 0.051402 -0.512518
C4    C     C_1   0.498902 0.501645 0.825401 -0.041443
C5    C     C_1   0.494069 0.501431 0.174491 -0.029717
C6    C     C_1   0.497124 0.500853 0.249695 -0.112479
C7    C     C_3   0.069981 0.583806 0.576425 -0.413434
C8    C     C_3   0.071852 0.349283 0.508444 -0.386716
C9    C     C_3   0.925844 0.579486 0.578206 -0.377085
C10   C     C_3   0.929005 0.348646 0.506483 -0.403918
C11   C     C_3   0.073237 0.562271 0.416390 -0.391132
C12   C     C_3   0.121125 0.498842 0.500491 0.174844
C13   C     C_3   0.878627 0.498127 0.500524 0.177317
C14   C     C_R   0.499954 0.500242 0.338366 0.906619
C15   C     C_3   0.928755 0.564945 0.417318 -0.403181
C16   C     C_3   0.403059 0.079728 0.558314 0.462837
C17   C     C_3   0.401197 0.916179 0.557666 0.437657
C18   C     C_3   0.469849 0.081930 0.412738 -0.370879
C19   C     C_3   0.472028 0.919596 0.412494 -0.378624
C20   C     C_3   0.625261 0.080349 0.519151 -0.304919
C21   C     C_3   0.623563 0.918674 0.523309 -0.273832
C22   C     C_R   0.742379 0.499463 0.500255 0.824124
C23   C     C_R   0.499753 0.499812 0.661562 0.907907
C24   C     C_3   0.369135 0.571251 0.047555 -0.164338
C25   C     C_3   0.512960 0.353308 0.048212 -0.160740
C26   C     C_3   0.510980 0.355304 0.949925 -0.441379
C27   C     C_3   0.369221 0.559378 0.948929 -0.449539
C28   C     C_1   0.499137 0.499809 0.750207 -0.121478
C29   C     C_3   0.491851 0.501875 0.082824 0.113762
C30   C     C_3   0.498979 0.505247 0.916970 0.144550
H1    H     H_    0.294781 0.489065 0.926183 0.230558
H2    H     H_    0.431173 0.293691 0.925494 0.199632
H3    H     H_    0.888265 0.686253 0.577410 0.177339
H4    H     H_    0.897573 0.287974 0.450772 0.176128
H5    H     H_    0.109290 0.668578 0.408129 0.177525
H6    H     H_    0.107886 0.500854 0.361369 0.173789
H7    H     H_    0.895342 0.673025 0.412353 0.174252
H8    H     H_    0.893008 0.508768 0.361069 0.162711
H9    H     H_    0.309975 0.108196 0.531325 0.027462
H10   H     H_    0.308288 0.883314 0.531810 0.010466
H11   H     H_    0.376182 0.119751 0.391826 0.162307
H12   H     H_    0.380230 0.880312 0.389803 0.167102
H13   H     H_    0.695078 0.112439 0.469792 0.164015
H14   H     H_    0.698425 0.878335 0.480164 0.159455
H15   H     H_    0.661805 0.125827 0.578283 0.157759
H16   H     H_    0.648935 0.881836 0.587808 0.188994
H17   H     H_    0.538485 0.120571 0.364535 0.216327
H18   H     H_    0.544036 0.883439 0.365805 0.204516
H19   H     H_    0.609394 0.320610 0.067023 0.184119
H20   H     H_    0.374769 0.682668 0.062348 0.154870
H21   H     H_    0.596592 0.304344 0.923918 0.211400
H22   H     H_    0.347315 0.661273 0.920452 0.174247
H23   H     H_    0.602532 0.690872 0.083024 0.219805
H24   H     H_    0.694017 0.542610 0.075649 0.207016
H25   H     H_    0.099931 0.692453 0.569610 0.167681
H26   H     H_    0.108626 0.285194 0.455144 0.173013
H27   H     H_    0.107404 0.543098 0.637412 0.164211
H28   H     H_    0.104236 0.302049 0.569053 0.186124
H29   H     H_    0.892581 0.530114 0.638255 0.179727
H30   H     H_    0.892256 0.297318 0.565014 0.171172
N1    N     N_3   0.499750 0.138610 0.498180 -0.081045
N2    N     N_3   0.499750 0.861390 0.498180 -0.076814
O1    O     O_R   0.314910 0.616040 0.499980 -0.634852
O2    O     O_R   0.314910 0.383960 0.499980 -0.618343
O3    O     O_R   0.500120 0.616090 0.377110 -0.622730
O4    O     O_R   0.500120 0.383910 0.377110 -0.617428
O5    O     O_R   0.685320 0.616040 0.499960 -0.637024
O6    O     O_R   0.685320 0.383960 0.499960 -0.639085
O7    O     O_R   0.500110 0.615990 0.622830 -0.536276
O8    O     O_R   0.500110 0.384010 0.622830 -0.581962
Zn1   Zn    Zn3+2 0.500150 0.654960 0.499960 0.954135
Zn2   Zn    Zn3+2 0.500150 0.345040 0.499960 0.947182
O9    O     O_3   0.397637 0.146618 0.639018 -0.592682
C31   C     C_3   0.487228 0.106797 0.700696 -0.172301
H31   H     H_    0.539877 0.197501 0.722548 0.159677
H32   H     H_    0.557101 0.029698 0.680570 0.158696
H33   H     H_    0.436308 0.066202 0.757224 0.171313
O10   O     O_3   0.417632 0.859202 0.639826 -0.580421
C32   C     C_3   0.301613 0.841303 0.682870 -0.278177
H34   H     H_    0.236678 0.930117 0.674489 0.149061
H35   H     H_    0.320129 0.830230 0.751843 0.195757
H36   H     H_    0.256985 0.745243 0.661679 0.164032
C33   C     C_2   0.246658 0.525070 0.089764 0.975756
O11   O     O_2   0.163110 0.471912 0.048510 -0.582643
O12   O     O_R   0.226872 0.550223 0.176338 -0.829747
H37   H     H_    0.141805 0.516959 0.197365 0.337557
C34   C     C_2   0.425410 0.246304 0.085999 0.930499
O13   O     O_2   0.316307 0.237888 0.062900 -0.590235
O14   O     O_R   0.471461 0.155011 0.147100 -0.803748
H38   H     H_    0.405206 0.088051 0.167995 0.345929
C35   C     C_2   0.585076 0.749497 0.921663 0.905915
O15   O     O_2   0.564051 0.841808 0.972392 -0.636918
O16   O     O_R   0.587473 0.780249 0.834654 -0.768106
H39   H     H_    0.571747 0.880962 0.822588 0.334996
C36   C     C_2   0.737500 0.553098 0.918558 0.878978
O17   O     O_2   0.797318 0.622978 0.867632 -0.598271
O18   O     O_R   0.789912 0.429958 0.947728 -0.816488
H40   H     H_    0.875754 0.410378 0.921717 0.364877

loop_
_geom_bond_atom_site_label_1
_geom_bond_atom_site_label_2
_ccdc_geom_bond_type
C34   O13   D    
C26   H2    S    
O16   H39   S    
O9    C31   S    
C23   O7    A    
C36   O17   D    
C24   C27   S    
C7    H25   S    
C18   H17   S    
C8    H26   S    
O18   H40   S    
O12   H37   S    
C31   H32   S    
C11   H6    S    
C24   C33   S    
C5    C6    T    
C3    H24   S    
C6    C14   S    
C19   N2    S    
C25   C34   S    
C25   C29   S    
C3    C29   S    
C18   C19   S    
C20   N1    S    
O7    Zn1   S    
C9    C13   S    
C24   C29   S    
C15   H7    S    
C8    H28   S    
C11   C15   S    
O4    Zn2   S    
C16   C17   S    
C31   H33   S    
C13   C22   S    
C20   H15   S    
C19   H12   S    
C8    C12   S    
C27   C30   S    
C9    H3    S    
C23   O8    A    
C1    C12   S    
C1    O1    A    
C4    C28   T    
C5    C29   S    
C24   H20   S    
C7    C12   S    
C31   H31   S    
C27   H1    S    
C16   O9    S    
C18   H11   S    
C35   O15   D    
C32   H35   S    
C19   H18   S    
C25   C26   S    
O3    Zn1   S    
C9    H29   S    
C17   H10   S    
C10   H30   S    
C15   H8    S    
C17   N2    S    
C35   O16   S    
C21   H14   S    
C33   O11   D    
O6    Zn2   S    
C14   O4    A    
C10   H4    S    
C23   C28   S    
C22   O6    A    
C21   N2    S    
N1    Zn2   S    
C33   O12   S    
O1    Zn1   S    
C26   C30   S    
C13   C15   S    
C16   N1    S    
C1    O2    A    
C20   H13   S    
C27   H22   S    
C21   H16   S    
C7    C9    S    
C2    C36   S    
O10   C32   S    
C10   C13   S    
C32   H36   S    
C11   C12   S    
C36   O18   S    
C18   N1    S    
C2    C30   S    
C11   H5    S    
C2    C3    S    
C26   H21   S    
C3    H23   S    
C17   O10   S    
C14   O3    A    
N2    Zn1   S    
O5    Zn1   S    
O2    Zn2   S    
C2    C35   S    
C25   H19   S    
C22   O5    A    
C16   H9    S    
C32   H34   S    
C20   C21   S    
C8    C10   S    
C34   O14   S    
O8    Zn2   S    
O14   H38   S    
C7    H27   S    
C4    C30   S    
