data_mof_unit_45873.cif
_audit_creation_date              2012-12-10T21:06:55-0500
_audit_creation_method            fapswitch 2.2
_symmetry_space_group_name_H-M    P1
_symmetry_Int_Tables_number       1
_space_group_crystal_system       triclinic
_cell_length_a                    10.648967
_cell_length_b                    15.804085
_cell_length_c                    15.060191
_cell_angle_alpha                 90.662357
_cell_angle_beta                  90.068211
_cell_angle_gamma                 89.511411
_cell_volume                      2534.32465019

loop_
_atom_site_label
_atom_site_type_symbol
_atom_type_description
_atom_site_fract_x
_atom_site_fract_y
_atom_site_fract_z
_atom_type_partial_charge
C1    C     C_R   0.500161 0.338914 0.499451 0.916580
C2    C     C_R   0.499839 0.661086 0.500549 0.916565
C3    C     C_R   0.872364 0.497232 0.500533 -0.003677
C4    C     C_R   0.127633 0.502780 0.499469 -0.003803
C5    C     C_R   0.939510 0.441979 0.555897 0.081283
C6    C     C_R   0.060485 0.558022 0.444094 0.081306
C7    C     C_R   0.482172 0.956637 0.579398 -0.202060
C8    C     C_R   0.517902 0.043361 0.420602 -0.202281
C9    C     C_R   0.509483 0.913059 0.500579 0.108866
C10   C     C_R   0.490589 0.086939 0.499422 0.108791
C11   C     C_R   0.528512 0.955609 0.420179 0.009975
C12   C     C_R   0.471572 0.044388 0.579823 0.010074
C13   C     C_1   0.506717 0.824101 0.502224 -0.029661
C14   C     C_1   0.493329 0.175897 0.497774 -0.029757
C15   C     C_1   0.496804 0.250689 0.498096 -0.156683
C16   C     C_1   0.503219 0.749310 0.501903 -0.156680
C17   C     C_R   0.481650 0.425478 0.951094 -0.221391
C18   C     C_R   0.518369 0.574521 0.048906 -0.221599
C19   C     C_R   0.498121 0.501462 0.905017 0.045888
C20   C     C_R   0.501896 0.498537 0.094983 0.045935
C21   C     C_R   0.516393 0.577036 0.954894 0.039961
C22   C     C_R   0.483627 0.422963 0.045106 0.040077
C23   C     C_R   0.259706 0.502452 0.499865 0.891899
C24   C     C_R   0.740293 0.497553 0.500135 0.891927
C25   C     C_1   0.499269 0.500224 0.807094 0.098048
C26   C     C_1   0.500740 0.499777 0.192906 0.098209
C27   C     C_R   0.185645 0.772786 0.374907 -0.036190
C28   C     C_R   0.814409 0.227114 0.624791 -0.036279
C29   C     C_R   0.130919 0.707934 0.426028 -0.113215
C30   C     C_R   0.869104 0.292043 0.573761 -0.113256
C31   C     C_R   0.121746 0.624451 0.390220 -0.088625
C32   C     C_R   0.878251 0.375485 0.609682 -0.088672
C33   C     C_R   0.164340 0.606725 0.302246 0.025983
C34   C     C_R   0.835643 0.393098 0.697677 0.025972
C35   C     C_R   0.219991 0.671913 0.254062 -0.200125
C36   C     C_R   0.780030 0.327835 0.745772 -0.200050
C37   C     C_R   0.230226 0.753165 0.289563 -0.194544
C38   C     C_R   0.769833 0.246621 0.710163 -0.194531
C39   C     C_R   0.931571 0.554492 0.445181 -0.186617
C40   C     C_R   0.068424 0.445522 0.554826 -0.186742
H1    H     H_    0.273698 0.801276 0.249558 0.179162
H2    H     H_    0.726391 0.198450 0.750106 0.179191
H3    H     H_    0.468726 0.367291 0.913452 0.134947
H4    H     H_    0.531292 0.632708 0.086549 0.134964
H5    H     H_    0.255218 0.660585 0.187513 0.186965
H6    H     H_    0.744798 0.339072 0.812334 0.186985
H7    H     H_    0.877265 0.597637 0.404385 0.137909
H8    H     H_    0.122728 0.402371 0.595615 0.137955
H9    H     H_    0.465783 0.921941 0.640001 0.146571
H10   H     H_    0.534291 0.078057 0.360000 0.146636
N1    N     N_1   0.499960 0.500020 0.270550 -0.086925
N2    N     N_1   0.500040 0.499980 0.729450 -0.086949
O1    O     O_R   0.500000 0.378020 0.573650 -0.618122
O2    O     O_R   0.500000 0.621980 0.426350 -0.618123
O3    O     O_R   0.500060 0.378020 0.426320 -0.597924
O4    O     O_R   0.499940 0.621980 0.573680 -0.597926
O5    O     O_R   0.316730 0.500010 0.573660 -0.609686
O6    O     O_R   0.683270 0.499990 0.426340 -0.609672
O7    O     O_R   0.316790 0.500010 0.426330 -0.615021
O8    O     O_R   0.683210 0.499990 0.573670 -0.614931
Zn1   Zn    Zn3+2 0.499960 0.500000 0.598370 1.004906
Zn2   Zn    Zn3+2 0.500040 0.500000 0.401630 1.004902
C41   C     C_2   0.199316 0.861308 0.408622 0.936593
O9    O     O_2   0.204065 0.919734 0.356196 -0.647290
O10   O     O_R   0.209130 0.878364 0.499672 -0.786897
H11   H     H_    0.217217 0.941032 0.513463 0.354856
C42   C     C_2   0.800766 0.138630 0.590954 0.936548
O11   O     O_2   0.795960 0.080138 0.643300 -0.647239
O12   O     O_R   0.791034 0.121682 0.499878 -0.786914
H12   H     H_    0.782972 0.059028 0.485998 0.354866
C43   C     C_2   0.075577 0.727875 0.514333 0.970119
O13   O     O_2   0.110139 0.688999 0.579833 -0.604445
O14   O     O_R   0.982824 0.790671 0.522025 -0.788079
H13   H     H_    0.951785 0.798300 0.585248 0.357837
C44   C     C_2   0.924445 0.272223 0.485426 0.970276
O15   O     O_2   0.889804 0.311143 0.419978 -0.604351
O16   O     O_R   0.017293 0.209495 0.477649 -0.788055
H14   H     H_    0.048329 0.201954 0.414415 0.357832
C45   C     C_2   0.151562 0.522110 0.257522 0.920748
O17   O     O_2   0.098833 0.463674 0.294154 -0.599815
O18   O     O_R   0.199844 0.509358 0.171968 -0.829991
H15   H     H_    0.186801 0.449572 0.148799 0.348678
C46   C     C_2   0.848381 0.477665 0.742511 0.920621
O19   O     O_2   0.900902 0.536205 0.705892 -0.599792
O20   O     O_R   0.800304 0.490248 0.828150 -0.829975
H16   H     H_    0.813288 0.550017 0.851386 0.348661
C47   C     C_R   0.441445 0.089851 0.664295 0.112937
C48   C     C_R   0.512073 0.074068 0.741384 -0.153599
C49   C     C_R   0.485258 0.117781 0.820473 -0.151937
C50   C     C_R   0.387338 0.177133 0.823515 -0.113504
C51   C     C_R   0.315381 0.192420 0.747656 -0.116328
C52   C     C_R   0.341682 0.148731 0.668486 -0.128028
H17   H     H_    0.588974 0.028838 0.739973 0.162283
H18   H     H_    0.540737 0.105848 0.879350 0.140728
H19   H     H_    0.366906 0.211006 0.884716 0.126059
H20   H     H_    0.238997 0.238017 0.750216 0.136609
H21   H     H_    0.284067 0.160687 0.610582 0.152902
C53   C     C_R   0.558668 0.910145 0.335711 0.112845
C54   C     C_R   0.658417 0.851253 0.331543 -0.128022
C55   C     C_R   0.684745 0.807561 0.252380 -0.116281
C56   C     C_R   0.612830 0.822857 0.176504 -0.113580
C57   C     C_R   0.514926 0.882223 0.179522 -0.151894
C58   C     C_R   0.488085 0.925939 0.258605 -0.153380
H22   H     H_    0.716002 0.839289 0.389461 0.152956
H23   H     H_    0.761117 0.761953 0.249840 0.136623
H24   H     H_    0.633282 0.788981 0.115308 0.126057
H25   H     H_    0.459481 0.894165 0.120631 0.140735
H26   H     H_    0.411201 0.971182 0.259994 0.162329
C59   C     C_R   0.465486 0.340558 0.089445 0.097359
C60   C     C_R   0.553486 0.310665 0.151653 -0.125957
C61   C     C_R   0.535018 0.233353 0.193765 -0.109578
C62   C     C_R   0.429482 0.184866 0.173515 -0.108761
C63   C     C_R   0.342315 0.213542 0.111039 -0.117656
C64   C     C_R   0.360088 0.291006 0.069083 -0.176557
H27   H     H_    0.636569 0.346986 0.167293 0.142336
H28   H     H_    0.602695 0.210936 0.241955 0.152354
H29   H     H_    0.415357 0.125045 0.206106 0.124702
H30   H     H_    0.260717 0.175845 0.095281 0.141062
H31   H     H_    0.291113 0.312733 0.021400 0.131705
C65   C     C_R   0.534536 0.659442 0.910557 0.097329
C66   C     C_R   0.446533 0.689339 0.848353 -0.125970
C67   C     C_R   0.464999 0.766653 0.806246 -0.109584
C68   C     C_R   0.570536 0.815139 0.826497 -0.108759
C69   C     C_R   0.657707 0.786458 0.888968 -0.117620
C70   C     C_R   0.639936 0.708991 0.930919 -0.176444
H32   H     H_    0.363449 0.653019 0.832713 0.142313
H33   H     H_    0.397320 0.789074 0.758060 0.152316
H34   H     H_    0.584658 0.874963 0.793910 0.124691
H35   H     H_    0.739306 0.824155 0.904727 0.141031
H36   H     H_    0.708912 0.687261 0.978599 0.131667

loop_
_geom_bond_atom_site_label_1
_geom_bond_atom_site_label_2
_ccdc_geom_bond_type
O6    Zn2   S    
C47   C48   A    
C41   O10   S    
C56   C57   A    
C27   C29   A    
C18   C21   A    
O14   H13   S    
C61   C62   A    
O18   H15   S    
C50   C51   A    
C50   H19   S    
O16   H14   S    
C23   O7    A    
C55   H23   S    
C11   C53   S    
C19   C21   A    
C38   H2    S    
C21   C65   S    
N2    Zn1   S    
C62   H29   S    
C53   C58   A    
O3    Zn2   S    
C49   H18   S    
C23   O5    A    
C67   H33   S    
C1    O1    A    
C60   C61   A    
C9    C13   S    
C17   C19   A    
C51   H20   S    
O1    Zn1   S    
C70   H36   S    
C46   O19   D    
C31   C33   A    
C36   H6    S    
C61   H28   S    
C1    C15   S    
C2    C16   S    
C18   C20   A    
C64   H31   S    
C5    C32   S    
C6    C31   S    
C3    C39   A    
C47   C52   A    
C3    C24   S    
O12   H12   S    
N1    Zn2   S    
C62   C63   A    
C52   H21   S    
C7    C12   A    
C42   O11   D    
C4    C40   A    
C68   C69   A    
C28   C42   S    
C45   O17   D    
C7    H9    S    
C4    C6    A    
C10   C14   S    
C49   C50   A    
C51   C52   A    
C45   O18   S    
C4    C23   S    
C65   C70   A    
C33   C45   S    
O2    Zn2   S    
O20   H16   S    
C41   O9    D    
O8    Zn1   S    
C42   O12   S    
C32   C34   A    
C44   O15   D    
C17   H3    S    
C18   H4    S    
C44   O16   S    
C54   C55   A    
C28   C38   A    
C24   O8    A    
C22   C59   S    
C57   H25   S    
O4    Zn1   S    
C9    C11   A    
C66   C67   A    
C58   H26   S    
C10   C12   A    
C59   C64   A    
C24   O6    A    
C46   O20   S    
C20   C22   A    
C53   C54   A    
C2    O2    A    
C5    C40   A    
C34   C46   S    
C35   H5    S    
C8    H10   S    
C65   C66   A    
C39   H7    S    
C63   C64   A    
C56   H24   S    
C40   H8    S    
C48   H17   S    
O7    Zn2   S    
C12   C47   S    
C35   C37   A    
C14   C15   T    
C3    C5    A    
O5    Zn1   S    
C17   C22   A    
C36   C38   A    
C1    O3    A    
C25   N2    T    
C43   O13   D    
C29   C31   A    
C2    O4    A    
C59   C60   A    
C30   C32   A    
C30   C44   S    
C68   H34   S    
C20   C26   S    
C27   C37   A    
C8    C11   A    
C28   C30   A    
C55   C56   A    
C33   C35   A    
C69   H35   S    
C54   H22   S    
C34   C36   A    
C37   H1    S    
C57   C58   A    
C19   C25   S    
C63   H30   S    
C7    C9    A    
C66   H32   S    
C48   C49   A    
C8    C10   A    
O10   H11   S    
C13   C16   T    
C43   O14   S    
C6    C39   A    
C27   C41   S    
C67   C68   A    
C26   N1    T    
C60   H27   S    
C69   C70   A    
C29   C43   S    
