data_mof_unit_14125.cif
_audit_creation_date              2012-12-10T19:05:56-0500
_audit_creation_method            fapswitch 2.2
_symmetry_space_group_name_H-M    P1
_symmetry_Int_Tables_number       1
_space_group_crystal_system       triclinic
_cell_length_a                    19.364794
_cell_length_b                    10.786686
_cell_length_c                    9.590081
_cell_angle_alpha                 90.60245
_cell_angle_beta                  89.79301
_cell_angle_gamma                 91.86999
_cell_volume                      2002.00664057

loop_
_atom_site_label
_atom_site_type_symbol
_atom_type_description
_atom_site_fract_x
_atom_site_fract_y
_atom_site_fract_z
_atom_type_partial_charge
C1    C     C_R   0.499216 0.262645 0.499578 0.796464
C2    C     C_R   0.854781 0.489904 0.520930 -0.056520
C3    C     C_R   0.531255 0.066493 0.601184 0.138458
C4    C     C_R   0.367264 0.502594 0.500086 0.759452
C5    C     C_R   0.495046 0.129323 0.500816 -0.146115
C6    C     C_R   0.449626 0.062990 0.412015 -0.148511
C7    C     C_R   0.446802 0.932552 0.412697 -0.033585
C8    C     C_R   0.491785 0.870386 0.503172 -0.188510
C9    C     C_R   0.530091 0.938957 0.601749 0.128091
C10   C     C_3   0.605561 0.935960 0.633567 -0.460049
C11   C     C_3   0.606530 0.076531 0.633487 -0.433622
C12   C     C_R   0.290615 0.506943 0.503318 -0.175554
C13   C     C_R   0.548054 0.569277 0.073819 0.181376
C14   C     C_R   0.458602 0.418271 0.073601 0.027948
C15   C     C_R   0.454870 0.425036 0.924987 0.038920
C16   C     C_R   0.497973 0.737264 0.500569 0.781131
C17   C     C_R   0.549039 0.567082 0.927010 0.227738
C18   C     C_3   0.562880 0.703688 0.921154 -0.451697
C19   C     C_3   0.560169 0.706483 0.080300 -0.251740
C20   C     C_R   0.632704 0.497740 0.499507 0.779024
C21   C     C_R   0.258712 0.524637 0.634132 -0.099212
C22   C     C_R   0.186723 0.520115 0.649762 -0.017794
C23   C     C_R   0.930571 0.489669 0.530796 0.437936
C24   C     C_R   0.145543 0.496577 0.531164 -0.065030
C25   C     C_R   0.176378 0.480631 0.400522 -0.083306
C26   C     C_R   0.248211 0.488891 0.383544 -0.036053
C27   C     C_2   0.396545 0.864260 0.320951 0.393484
C28   C     C_2   0.420501 0.314995 0.144155 0.487981
C29   C     C_2   0.397067 0.357679 0.852767 0.488217
C30   C     C_2   0.627048 0.742449 0.152029 0.481750
C31   C     C_2   0.155660 0.535197 0.790745 0.454919
C32   C     C_2   0.275468 0.482726 0.239001 0.412894
C33   C     C_2   0.843279 0.527531 0.784122 0.438345
C34   C     C_R   0.070047 0.492311 0.537717 0.370014
C35   C     C_2   0.715541 0.443708 0.243026 0.456579
C36   C     C_2   0.866296 0.443433 0.264725 0.485522
C37   C     C_R   0.814301 0.511890 0.641160 0.001595
C38   C     C_R   0.742775 0.515365 0.628469 -0.246345
C39   C     C_R   0.709356 0.493252 0.500649 -0.145642
C40   C     C_R   0.749442 0.468333 0.379657 -0.026258
C41   C     C_R   0.822548 0.467433 0.389958 -0.063067
Cu1   Cu    Cu3+1 0.500000 0.499980 0.640670 0.948416
Cu2   Cu    Cu3+1 0.500000 0.500020 0.359330 0.918317
H1    H     H_    0.519893 0.753932 0.873311 0.212541
H2    H     H_    0.614585 0.724119 0.874852 0.212889
H3    H     H_    0.634796 0.715775 0.259399 0.083973
H4    H     H_    0.100586 0.520395 0.806920 0.105337
H5    H     H_    0.515062 0.755830 0.122849 0.173126
H6    H     H_    0.143586 0.466371 0.309857 0.189141
H7    H     H_    0.319828 0.539372 0.207228 0.096598
H8    H     H_    0.812440 0.569555 0.865591 0.112716
H9    H     H_    0.712597 0.533969 0.721392 0.165334
H10   H     H_    0.674748 0.372743 0.233755 0.081693
H11   H     H_    0.915284 0.493775 0.251527 0.074876
H12   H     H_    0.290234 0.541282 0.725848 0.218263
H13   H     H_    0.416462 0.112860 0.343311 0.206644
H14   H     H_    0.385266 0.766128 0.335161 0.071597
H15   H     H_    0.615770 0.898296 0.738238 0.213848
H16   H     H_    0.636108 0.895073 0.547114 0.198538
H17   H     H_    0.616476 0.118691 0.738070 0.218208
H18   H     H_    0.637690 0.117901 0.547006 0.198012
H19   H     H_    0.393344 0.327643 0.240782 0.099215
H20   H     H_    0.404865 0.302885 0.760108 0.104757
N1    N     N_R   0.034048 0.390444 0.490890 -0.189258
N2    N     N_R   0.965396 0.388865 0.488273 -0.205565
N3    N     N_R   0.966623 0.591905 0.576926 -0.180895
N4    N     N_R   0.035322 0.593153 0.580465 -0.213692
N5    N     N_R   0.500440 0.500930 0.147930 -0.253300
N6    N     N_R   0.500440 0.500890 0.852020 -0.238010
O1    O     O_R   0.500000 0.319640 0.618810 -0.600270
O2    O     O_2   0.419525 0.210803 0.092890 -0.534153
O3    O     O_2   0.338324 0.362473 0.898778 -0.507035
O4    O     O_2   0.672095 0.804171 0.093021 -0.521448
O5    O     O_2   0.191398 0.563935 0.891419 -0.485546
O6    O     O_2   0.246672 0.416565 0.151366 -0.451865
O7    O     O_2   0.899865 0.489532 0.814853 -0.495617
O8    O     O_2   0.732203 0.504037 0.140533 -0.536162
O9    O     O_2   0.849527 0.364147 0.178415 -0.481687
O10   O     O_R   0.500010 0.319680 0.381230 -0.593227
O11   O     O_R   0.400140 0.499970 0.618830 -0.588473
O12   O     O_R   0.400150 0.500010 0.381250 -0.634701
O13   O     O_R   0.499990 0.680320 0.618770 -0.564551
O14   O     O_R   0.500000 0.680360 0.381190 -0.610559
O15   O     O_R   0.599850 0.499990 0.618750 -0.562594
O16   O     O_R   0.599860 0.500030 0.381170 -0.604360
O17   O     O_2   0.366186 0.917484 0.228863 -0.490296

loop_
_geom_bond_atom_site_label_1
_geom_bond_atom_site_label_2
_ccdc_geom_bond_type
C29   H20   S    
C26   C32   S    
C35   H10   S    
Cu2   O14   S    
Cu1   O13   S    
C32   O6    D    
C7    C8    A    
Cu1   O11   S    
C1    C5    S    
C23   N3    A    
C10   H15   S    
C4    O11   A    
C5    C6    A    
C38   H9    S    
C2    C41   A    
Cu2   O10   S    
Cu1   O1    S    
C7    C27   S    
C18   C19   S    
C4    O12   A    
Cu2   N5    S    
C4    C12   S    
C9    C10   S    
C29   O3    D    
N3    N4    A    
C8    C16   S    
C36   H11   S    
C31   H4    S    
C21   C22   A    
C36   C41   S    
C34   N1    A    
C15   C29   S    
C25   H6    S    
C15   N6    A    
C22   C31   S    
C13   C19   S    
Cu2   O16   S    
Cu1   O15   S    
C24   C25   A    
C27   H14   S    
C39   C40   A    
C21   H12   S    
C20   C39   S    
C19   H5    S    
C8    C9    A    
C31   O5    D    
C11   H18   S    
C25   C26   A    
C12   C21   A    
C35   O8    D    
C16   O14   A    
C33   C37   S    
C12   C26   A    
C27   O17   D    
C37   C38   A    
C3    C9    A    
C18   H1    S    
C33   O7    D    
C20   O16   A    
C16   O13   A    
C17   C18   S    
C32   H7    S    
C40   C41   A    
C20   O15   A    
C1    O10   A    
C22   C24   A    
C28   O2    D    
Cu1   Cu2   S    
C11   H17   S    
C18   H2    S    
C30   O4    D    
C17   N6    A    
C30   H3    S    
C6    H13   S    
C3    C5    A    
C34   N4    A    
C6    C7    A    
C33   H8    S    
C1    O1    A    
C13   C17   A    
N1    N2    A    
C23   N2    A    
C10   H16   S    
C36   O9    D    
C2    C37   A    
C38   C39   A    
Cu2   O12   S    
C35   C40   S    
Cu1   N6    S    
C24   C34   S    
C3    C11   S    
C10   C11   S    
C2    C23   S    
C14   N5    A    
C14   C15   A    
C14   C28   S    
C19   C30   S    
C13   N5    A    
C28   H19   S    
