data_mof_unit_67353.cif
_audit_creation_date              2013-03-05T16:08:11-0500
_audit_creation_method            fapswitch 2.2
_symmetry_space_group_name_H-M    P1
_symmetry_Int_Tables_number       1
_space_group_crystal_system       triclinic
_cell_length_a                    19.828121
_cell_length_b                    23.007653
_cell_length_c                    8.758681
_cell_angle_alpha                 90.063359
_cell_angle_beta                  102.999785
_cell_angle_gamma                 89.862316
_cell_volume                      3893.27938769

loop_
_atom_site_label
_atom_site_type_symbol
_atom_site_description
_atom_site_fract_x
_atom_site_fract_y
_atom_site_fract_z
_atom_type_partial_charge
P1    P     P_3+3 0.853370 0.434890 0.996520 0.610455
P2    P     P_3+3 0.853370 0.565110 0.496520 0.552863
P3    P     P_3+3 0.353370 0.934890 0.996520 0.613024
P4    P     P_3+3 0.353370 0.065110 0.496520 0.555052
O1    O     O_2   0.860260 0.414960 0.826400 -0.300907
O2    O     O_2   0.860260 0.585040 0.326400 -0.377252
O3    O     O_2   0.360260 0.914960 0.826400 -0.301121
O4    O     O_2   0.360260 0.085040 0.326400 -0.375541
O5    O     O_3   0.918600 0.470180 0.098890 -0.366682
O6    O     O_3   0.918600 0.529820 0.598890 -0.356747
O7    O     O_3   0.418600 0.970180 0.098890 -0.365884
O8    O     O_3   0.418600 0.029820 0.598890 -0.358041
O9    O     O_3   0.975750 0.362410 0.628650 -0.363381
O10   O     O_3   0.975750 0.637590 0.128650 -0.395137
O11   O     O_3   0.475750 0.862410 0.628650 -0.362987
O12   O     O_3   0.475750 0.137590 0.128650 -0.395514
O13   O     O_2   0.868055 0.305668 0.679881 -0.400636
O14   O     O_2   0.864771 0.692792 0.175717 -0.358670
O15   O     O_2   0.368117 0.805712 0.679857 -0.400244
O16   O     O_2   0.365791 0.193741 0.178989 -0.350181
O17   O     O_3   0.764721 0.460042 0.964473 -0.508817
O18   O     O_3   0.763373 0.542247 0.451794 -0.576438
O19   O     O_3   0.264710 0.960430 0.964314 -0.503581
O20   O     O_3   0.263443 0.041897 0.451836 -0.576633
O21   O     O_3   0.962778 0.239014 0.618244 -0.572083
O22   O     O_3   0.958519 0.760542 0.114794 -0.588841
O23   O     O_3   0.462835 0.738987 0.618959 -0.572220
O24   O     O_3   0.458638 0.260488 0.110548 -0.595566
H1    H     H_    0.055340 0.277606 0.727240 0.122181
H2    H     H_    0.046352 0.720784 0.245470 0.141721
H3    H     H_    0.555597 0.777369 0.727299 0.122287
H4    H     H_    0.544848 0.219682 0.246392 0.140951
C1    C     C_3   0.071169 0.189475 0.662114 0.155062
C2    C     C_3   0.067642 0.807960 0.190468 0.168099
C3    C     C_3   0.570859 0.689065 0.662375 0.156615
C4    C     C_3   0.566891 0.307319 0.199811 0.161566
H5    H     H_    0.126878 0.196885 0.666756 0.072624
H6    H     H_    0.124156 0.799110 0.214721 0.100468
H7    H     H_    0.626627 0.696233 0.667177 0.073501
H8    H     H_    0.623589 0.299796 0.220082 0.104681
H9    H     H_    0.067799 0.173434 0.780413 0.159723
H10   H     H_    0.055586 0.823390 0.301914 0.121859
H11   H     H_    0.567328 0.673049 0.780582 0.160790
H12   H     H_    0.555200 0.319146 0.314496 0.116469
P5    P     P_3+3 0.146350 0.434230 0.693140 0.464985
P6    P     P_3+3 0.146350 0.565770 0.193140 0.450793
P7    P     P_3+3 0.646350 0.934230 0.693140 0.466495
P8    P     P_3+3 0.646350 0.065770 0.193140 0.454645
P9    P     P_3+3 0.089823 0.311806 0.120866 0.465908
P10   P     P_3+3 0.092499 0.686541 0.621306 0.480264
P11   P     P_3+3 0.589735 0.811785 0.121311 0.463148
P12   P     P_3+3 0.591546 0.187370 0.620858 0.480595
O25   O     O_2   0.139400 0.414340 0.863230 -0.361598
O26   O     O_2   0.139400 0.585660 0.363230 -0.359776
O27   O     O_2   0.639400 0.914340 0.863230 -0.355551
O28   O     O_2   0.639400 0.085660 0.363230 -0.366488
O29   O     O_3   0.023740 0.362300 0.060930 -0.312133
O30   O     O_3   0.023740 0.637700 0.560930 -0.343010
O31   O     O_3   0.523740 0.862300 0.060930 -0.311071
O32   O     O_3   0.523740 0.137700 0.560930 -0.336701
O33   O     O_2   0.135469 0.318664 0.000631 -0.377306
O34   O     O_2   0.133055 0.683451 0.490256 -0.359044
O35   O     O_2   0.635575 0.818701 0.001488 -0.383051
O36   O     O_2   0.632304 0.184465 0.490071 -0.361210
O37   O     O_3   0.221353 0.476476 0.729055 -0.558262
O38   O     O_3   0.219338 0.520991 0.235613 -0.573669
O39   O     O_3   0.721040 0.977019 0.728717 -0.556846
O40   O     O_3   0.719072 0.020486 0.234494 -0.554630
O41   O     O_3   0.046320 0.246424 0.064808 -0.528041
O42   O     O_3   0.050347 0.754010 0.587613 -0.540774
O43   O     O_3   0.546231 0.746430 0.064836 -0.526855
O44   O     O_3   0.548038 0.254368 0.586853 -0.544837
C5    C     C_3   0.018724 0.225883 0.189491 0.198800
C6    C     C_3   0.020361 0.765936 0.715815 0.151314
C7    C     C_3   0.518617 0.725748 0.189373 0.197422
C8    C     C_3   0.515870 0.264505 0.712526 0.191824
H13   H     H_    0.986525 0.259637 0.230347 -0.001141
H14   H     H_    0.994508 0.727184 0.751558 0.064285
H15   H     H_    0.486232 0.759387 0.230080 -0.001446
H16   H     H_    0.489305 0.225130 0.742055 0.060136
H17   H     H_    0.061674 0.213298 0.288850 0.069468
H18   H     H_    0.061466 0.780234 0.816469 0.045617
H19   H     H_    0.561546 0.713264 0.288882 0.070877
H20   H     H_    0.555898 0.277686 0.816623 0.024105
C9    C     C_3   0.974102 0.171350 0.137789 0.899114
C10   C     C_3   0.964908 0.813968 0.678516 0.829323
C11   C     C_3   0.474280 0.671064 0.137492 0.896361
C12   C     C_3   0.460737 0.312802 0.677987 0.847680
C13   C     C_3   0.202830 0.466194 0.284046 0.345270
C14   C     C_3   0.209554 0.528780 0.797532 0.351529
C15   C     C_3   0.702280 0.966266 0.286191 0.378858
C16   C     C_3   0.708219 0.029817 0.793777 0.372113
H21   H     H_    0.174583 0.470809 0.379246 0.097237
H22   H     H_    0.190080 0.520582 0.904946 0.106868
H23   H     H_    0.676766 0.971963 0.385701 0.091075
H24   H     H_    0.688520 0.022089 0.901090 0.122081
H25   H     H_    0.171159 0.441954 0.183213 0.118910
H26   H     H_    0.172343 0.554900 0.710168 0.081073
H27   H     H_    0.668066 0.942046 0.188964 0.110943
H28   H     H_    0.670608 0.055115 0.705070 0.073749
C17   C     C_3   0.270178 0.432845 0.348968 -0.718955
C18   C     C_3   0.277983 0.561442 0.845178 -0.698150
C19   C     C_3   0.769421 0.932065 0.345386 -0.726519
C20   C     C_3   0.776044 0.063548 0.840976 -0.689666
H29   H     H_    0.291627 0.448084 0.470279 0.225960
H30   H     H_    0.318851 0.532242 0.911746 0.187829
H31   H     H_    0.800939 0.955699 0.446813 0.218776
H32   H     H_    0.817796 0.035197 0.907064 0.195361
H33   H     H_    0.259744 0.385681 0.354215 0.142775
H34   H     H_    0.272641 0.598098 0.923926 0.172827
H35   H     H_    0.757880 0.888600 0.386632 0.148914
H36   H     H_    0.770203 0.099909 0.920088 0.169714
Ba1   Ba    Ba6+2 0.999900 0.457470 0.844900 1.618434
Ba2   Ba    Ba6+2 0.999900 0.542530 0.344900 1.637946
Ba3   Ba    Ba6+2 0.499900 0.957470 0.844900 1.619257
Ba4   Ba    Ba6+2 0.499900 0.042530 0.344900 1.640090
C21   C     C_3   0.732568 0.516132 0.934960 0.194716
C22   C     C_3   0.728175 0.487195 0.437391 0.107292
C23   C     C_3   0.232856 0.016749 0.935645 0.191377
C24   C     C_3   0.228331 0.986753 0.437165 0.106815
C25   C     C_3   0.652033 0.507115 0.908220 -0.716524
C26   C     C_3   0.651050 0.498959 0.446153 -0.801536
C27   C     C_3   0.152376 0.008337 0.910672 -0.700154
C28   C     C_3   0.151156 0.998365 0.445581 -0.798287
H37   H     H_    0.623095 0.545339 0.850015 0.183387
H38   H     H_    0.623690 0.456671 0.444883 0.236455
H39   H     H_    0.123878 0.047911 0.859896 0.186185
H40   H     H_    0.124020 0.956030 0.446426 0.238284
H41   H     H_    0.635938 0.503817 0.020226 0.230767
H42   H     H_    0.648557 0.520156 0.557110 0.226470
H43   H     H_    0.137472 0.002549 0.023287 0.230108
H44   H     H_    0.148883 0.020299 0.555642 0.226597
O45   O     O_3   0.081330 0.529680 0.090830 -0.412004
O46   O     O_3   0.081330 0.470320 0.590830 -0.431940
O47   O     O_3   0.581330 0.029680 0.090830 -0.412725
O48   O     O_3   0.581330 0.970320 0.590830 -0.434767
P13   P     P_3+3 0.915677 0.694597 0.065767 0.442853
P14   P     P_3+3 0.918043 0.304230 0.567592 0.470041
P15   P     P_3+3 0.415517 0.194506 0.066019 0.442184
P16   P     P_3+3 0.418178 0.804175 0.567748 0.470806
C29   C     C_3   0.033656 0.247684 0.628812 0.251951
C30   C     C_3   0.030132 0.750835 0.144758 0.205900
C31   C     C_3   0.533695 0.747430 0.629062 0.249518
C32   C     C_3   0.530219 0.250501 0.146986 0.219225
H45   H     H_    0.042946 0.265812 0.517817 0.024518
H46   H     H_    0.045665 0.732393 0.040565 0.051349
H47   H     H_    0.542933 0.765413 0.517871 0.025711
H48   H     H_    0.547685 0.233047 0.044153 0.047959
H49   H     H_    0.973670 0.146969 0.247050 0.021437
H50   H     H_    0.953714 0.825316 0.794097 -0.016439
H51   H     H_    0.473855 0.646616 0.246655 0.026681
H52   H     H_    0.446157 0.319577 0.792693 -0.018977
C33   C     C_R   0.151501 0.683901 0.826169 0.213187
C34   C     C_R   0.144047 0.312574 0.329547 0.115466
C35   C     C_R   0.650358 0.184733 0.826060 0.210805
C36   C     C_R   0.643742 0.812446 0.330222 0.111781
C37   C     C_R   0.198436 0.729065 0.895130 -0.097840
C38   C     C_R   0.194273 0.268909 0.394826 -0.108172
C39   C     C_R   0.697550 0.229719 0.894939 -0.097140
C40   C     C_R   0.693991 0.768778 0.395455 -0.107408
C41   C     C_R   0.795886 0.317376 0.038465 -0.036382
C42   C     C_R   0.796203 0.682972 0.535254 -0.105749
C43   C     C_R   0.295905 0.817277 0.038793 -0.039629
C44   C     C_R   0.296405 0.183095 0.534984 -0.083873
C45   C     C_R   0.759478 0.320856 0.884930 -0.090355
C46   C     C_R   0.759963 0.679533 0.381436 -0.148088
C47   C     C_R   0.259398 0.820713 0.885293 -0.080955
C48   C     C_R   0.260346 0.179749 0.381028 -0.136559
C49   C     C_R   0.214350 0.778124 0.811049 -0.160275
C50   C     C_R   0.211892 0.220435 0.308995 -0.176774
C51   C     C_R   0.713673 0.278744 0.810940 -0.157874
C52   C     C_R   0.711602 0.720312 0.309487 -0.172993
C53   C     C_R   0.846719 0.360544 0.101173 0.216967
C54   C     C_R   0.845881 0.638902 0.599977 0.214320
C55   C     C_R   0.346684 0.860520 0.101352 0.215821
C56   C     C_R   0.345728 0.138838 0.600118 0.224204
H53   H     H_    0.770148 0.355086 0.814467 0.217460
H54   H     H_    0.770030 0.644833 0.310825 0.252334
H55   H     H_    0.269976 0.854975 0.814781 0.217828
H56   H     H_    0.270496 0.145119 0.310480 0.249490
C57   C     C_R   0.882176 0.352602 0.258790 -0.370294
C58   C     C_R   0.879250 0.645522 0.758659 -0.451451
C59   C     C_R   0.382279 0.852546 0.258911 -0.369699
C60   C     C_R   0.378552 0.145159 0.759240 -0.456848
C61   C     C_R   0.169302 0.633281 0.083071 0.179567
C62   C     C_R   0.164897 0.364733 0.585013 0.209185
C63   C     C_R   0.668778 0.133577 0.082725 0.179230
C64   C     C_R   0.664693 0.864602 0.585704 0.207427
C65   C     C_R   0.219352 0.676442 0.149677 -0.055351
C66   C     C_R   0.216516 0.322260 0.648856 -0.074142
C67   C     C_R   0.718652 0.176877 0.149358 -0.054530
C68   C     C_R   0.716316 0.822126 0.649696 -0.057789
C69   C     C_R   0.233003 0.724758 0.057593 0.060181
C70   C     C_R   0.230299 0.274012 0.556157 0.062261
C71   C     C_R   0.732361 0.225195 0.057301 0.059138
C72   C     C_R   0.730049 0.773867 0.556819 0.055819
C73   C     C_R   0.259684 0.670890 0.302530 -0.061582
C74   C     C_R   0.257219 0.327907 0.801215 -0.112404
C75   C     C_R   0.758674 0.171500 0.302506 -0.068831
C76   C     C_R   0.757141 0.827780 0.802156 -0.125718
C77   C     C_R   0.808989 0.212621 0.367581 -0.046122
C78   C     C_R   0.807724 0.786818 0.866489 -0.121380
C79   C     C_R   0.310129 0.711973 0.367196 -0.046062
C80   C     C_R   0.307561 0.286828 0.866185 -0.109045
C81   C     C_R   0.820335 0.262542 0.284816 -0.010049
C82   C     C_R   0.818645 0.736626 0.783559 0.044864
C83   C     C_R   0.320952 0.762179 0.284817 -0.012861
C84   C     C_R   0.318446 0.236564 0.783512 0.022102
C85   C     C_R   0.782671 0.268592 0.127405 0.070803
C86   C     C_R   0.781393 0.730940 0.625612 0.100298
C87   C     C_R   0.283085 0.768305 0.127637 0.068755
C88   C     C_R   0.281529 0.231033 0.625250 0.101284
C89   C     C_R   0.869227 0.305865 0.353479 0.104363
C90   C     C_R   0.866904 0.692796 0.852339 0.151775
C91   C     C_R   0.369542 0.805696 0.353557 0.104215
C92   C     C_R   0.366216 0.192455 0.852892 0.150008
C93   C     C_R   0.143147 0.636364 0.919985 -0.474714
C94   C     C_R   0.133147 0.359362 0.425506 -0.439123
C95   C     C_R   0.642200 0.137015 0.919667 -0.473276
C96   C     C_R   0.632738 0.859168 0.426322 -0.447699
H57   H     H_    0.838537 0.205051 0.485194 0.197870
H58   H     H_    0.836380 0.794248 0.985092 0.190175
H59   H     H_    0.339928 0.704253 0.484530 0.198478
H60   H     H_    0.336028 0.294217 0.984971 0.189790
H61   H     H_    0.253890 0.633646 0.372710 0.187093
H62   H     H_    0.250445 0.364378 0.872701 0.225879
H63   H     H_    0.752664 0.134342 0.372601 0.186459
H64   H     H_    0.750454 0.864074 0.874617 0.198775
H65   H     H_    0.116637 0.599491 0.860838 0.151846
H66   H     H_    0.104118 0.395740 0.371104 0.200961
H67   H     H_    0.616008 0.100146 0.859940 0.149777
H68   H     H_    0.604042 0.895735 0.371952 0.201267
C97   C     C_2   0.322457 0.441746 0.250565 1.166984
O49   O     O_2   0.377007 0.466504 0.305466 -0.690089
O50   O     O_R   0.307651 0.422891 0.095325 -0.822701
H69   H     H_    0.345791 0.432574 0.039550 0.286740
C98   C     C_2   0.299729 0.584310 0.703706 1.087211
O51   O     O_2   0.293455 0.636031 0.672708 -0.677358
O52   O     O_R   0.327975 0.546552 0.609604 -0.804042
H70   H     H_    0.341643 0.567108 0.518873 0.308123
C99   C     C_2   0.811842 0.924005 0.224457 1.123444
O53   O     O_2   0.866780 0.897896 0.260216 -0.717685
O54   O     O_R   0.789658 0.946222 0.073296 -0.779138
H71   H     H_    0.824179 0.938390 0.006058 0.290596
C100  C     C_2   0.797414 0.087097 0.700061 1.082534
O55   O     O_2   0.790160 0.138787 0.669647 -0.675240
O56   O     O_R   0.826893 0.050092 0.606477 -0.818169
H72   H     H_    0.840987 0.071150 0.517029 0.291969
C101  C     C_2   0.746758 0.545220 0.796105 0.882574
O57   O     O_2   0.798933 0.532602 0.754565 -0.601965
O58   O     O_R   0.707447 0.593836 0.734820 -0.842399
H73   H     H_    0.722515 0.611447 0.643431 0.324101
C102  C     C_2   0.727804 0.456574 0.287426 0.959943
O59   O     O_2   0.678324 0.427685 0.220222 -0.590983
O60   O     O_R   0.789645 0.449722 0.246031 -0.772271
H74   H     H_    0.822264 0.482865 0.279621 0.325427
C103  C     C_2   0.246551 0.045648 0.796113 0.879198
O61   O     O_2   0.298367 0.032727 0.753573 -0.602552
O62   O     O_R   0.207039 0.094110 0.734275 -0.841966
H75   H     H_    0.221501 0.111268 0.641474 0.322827
C104  C     C_2   0.228212 0.956067 0.287383 0.959600
O63   O     O_2   0.179078 0.926700 0.220497 -0.594173
O64   O     O_R   0.290097 0.949699 0.246024 -0.773043
H76   H     H_    0.322446 0.983013 0.279557 0.325694
C105  C     C_2   0.752715 0.560195 0.063775 0.943798
O65   O     O_2   0.716857 0.567812 0.157476 -0.611660
O66   O     O_R   0.802010 0.601742 0.056056 -0.731568
H77   H     H_    0.842402 0.584086 0.022078 0.314355
C106  C     C_2   0.757864 0.443069 0.558555 1.050334
O67   O     O_2   0.728318 0.432339 0.662398 -0.653631
O68   O     O_R   0.807478 0.404492 0.531197 -0.716952
H78   H     H_    0.786425 0.364376 0.517853 0.302362
C107  C     C_2   0.253240 0.060695 0.064683 0.941353
O69   O     O_2   0.217918 0.067660 0.159750 -0.612380
O70   O     O_R   0.301588 0.102930 0.055865 -0.732715
H79   H     H_    0.341876 0.085804 0.020533 0.312013
C108  C     C_2   0.257950 0.942744 0.558689 1.054771
O71   O     O_2   0.228371 0.932184 0.662616 -0.649358
O72   O     O_R   0.307503 0.904062 0.531554 -0.717140
H80   H     H_    0.286229 0.864038 0.517024 0.299836
C109  C     C_2   0.624079 0.452739 0.824763 1.295884
O73   O     O_2   0.584090 0.455672 0.697250 -0.677076
O74   O     O_R   0.639887 0.399155 0.898393 -0.676751
H81   H     H_    0.613693 0.366133 0.835801 0.352164
C110  C     C_2   0.608634 0.535783 0.318306 1.284024
O75   O     O_2   0.564222 0.512784 0.218008 -0.678620
O76   O     O_R   0.614945 0.596034 0.318034 -0.695764
H82   H     H_    0.650352 0.611126 0.410591 0.319315
C111  C     C_2   0.122775 0.956019 0.819815 1.271164
O77   O     O_2   0.080094 0.961811 0.696877 -0.697468
O78   O     O_R   0.139916 0.900893 0.882498 -0.673859
H83   H     H_    0.113006 0.869283 0.815416 0.355391
C112  C     C_2   0.108334 0.034443 0.316576 1.272447
O79   O     O_2   0.064027 0.010826 0.217235 -0.686949
O80   O     O_R   0.114077 0.094732 0.314475 -0.693880
H84   H     H_    0.149690 0.110325 0.406035 0.319544
O81   O     O_3   0.046021 0.149736 0.539127 -0.603879
C113  C     C_3   0.001402 0.108594 0.583728 -0.106158
H85   H     H_    0.956530 0.129750 0.617723 0.150657
H86   H     H_    0.029684 0.080817 0.680538 0.144270
H87   H     H_    0.980909 0.079773 0.482386 0.139140
O82   O     O_3   0.051913 0.848735 0.066636 -0.589321
C114  C     C_3   0.001274 0.888836 0.090608 0.024078
H88   H     H_    0.013395 0.907665 0.210672 0.172329
H89   H     H_    0.949297 0.868469 0.065217 0.139627
H90   H     H_    0.999655 0.925508 0.008071 0.122530
O83   O     O_3   0.545516 0.649396 0.539314 -0.605503
C115  C     C_3   0.500287 0.608638 0.583293 -0.105758
H91   H     H_    0.455284 0.630144 0.615729 0.151098
H92   H     H_    0.527915 0.580902 0.680920 0.135659
H93   H     H_    0.480027 0.579693 0.482083 0.159385
O84   O     O_3   0.548277 0.350604 0.083045 -0.576676
C116  C     C_3   0.500708 0.390298 0.123388 0.019293
H94   H     H_    0.519618 0.408489 0.243070 0.166235
H95   H     H_    0.449369 0.369690 0.113395 0.110391
H96   H     H_    0.494055 0.427331 0.040780 0.134858
C117  C     C_2   0.196266 0.786048 0.640811 1.103666
O85   O     O_2   0.228395 0.759297 0.560251 -0.631072
O86   O     O_R   0.152682 0.831700 0.576623 -0.767372
H97   H     H_    0.157304 0.841773 0.467158 0.295750
C118  C     C_2   0.186894 0.208207 0.140841 1.180619
O87   O     O_2   0.144249 0.169991 0.098217 -0.555523
O88   O     O_R   0.221289 0.232106 0.034350 -0.771424
H98   H     H_    0.202705 0.216868 0.924327 0.313155
C119  C     C_2   0.693558 0.288060 0.641286 1.100261
O89   O     O_2   0.725029 0.262841 0.556467 -0.632050
O90   O     O_R   0.649150 0.333922 0.582909 -0.761727
H99   H     H_    0.653403 0.346093 0.474602 0.297211
C120  C     C_2   0.686818 0.708253 0.141178 1.181518
O91   O     O_2   0.644148 0.670107 0.097979 -0.552821
O92   O     O_R   0.721422 0.732233 0.035180 -0.773504
H100  H     H_    0.702932 0.717116 0.924987 0.313410
C121  C     C_2   0.933341 0.394639 0.329209 1.113986
O93   O     O_2   0.990615 0.391565 0.304888 -0.682289
O94   O     O_R   0.918483 0.436029 0.430750 -0.713197
H101  H     H_    0.962535 0.454331 0.489723 0.385208
C122  C     C_2   0.933699 0.605787 0.827415 1.139104
O95   O     O_2   0.921803 0.559402 0.882772 -0.562504
O96   O     O_R   0.000119 0.625150 0.848131 -0.846868
H102  H     H_    0.028309 0.602381 0.936361 0.336155
C123  C     C_2   0.433328 0.894702 0.329299 1.113379
O97   O     O_2   0.490494 0.891996 0.304219 -0.680935
O98   O     O_R   0.418434 0.935925 0.431229 -0.713202
H103  H     H_    0.462466 0.954344 0.489910 0.385135
C124  C     C_2   0.432897 0.105319 0.828001 1.137817
O99   O     O_2   0.420947 0.058930 0.883271 -0.563509
O100  O     O_R   0.499370 0.124396 0.847714 -0.845719
H104  H     H_    0.527645 0.101294 0.935052 0.336703
O101  O     O_3   0.904058 0.185399 0.068735 -0.734835
C125  C     C_3   0.898119 0.216816 0.928380 -0.065564
H105  H     H_    0.926679 0.196145 0.847530 0.197259
H106  H     H_    0.915171 0.262407 0.953516 0.165828
H107  H     H_    0.842985 0.217886 0.867058 0.194911
O102  O     O_3   0.901913 0.793694 0.583117 -0.725075
C126  C     C_3   0.908549 0.778274 0.431599 0.054883
H108  H     H_    0.927747 0.732934 0.432841 0.169850
H109  H     H_    0.942595 0.807829 0.382905 0.194189
H110  H     H_    0.856495 0.780436 0.352146 0.169906
O103  O     O_3   0.404187 0.684851 0.068074 -0.733598
C127  C     C_3   0.398247 0.716577 0.928208 -0.060882
H111  H     H_    0.427245 0.696333 0.847627 0.197913
H112  H     H_    0.414837 0.762241 0.954057 0.163623
H113  H     H_    0.343180 0.717370 0.866287 0.194976
O104  O     O_3   0.399568 0.294872 0.570422 -0.711648
C128  C     C_3   0.407032 0.293772 0.414212 -0.032899
H114  H     H_    0.438396 0.255759 0.395283 0.206278
H115  H     H_    0.428770 0.334572 0.377958 0.142834
H116  H     H_    0.354846 0.288855 0.336614 0.163716
O105  O     O_3   0.005014 0.135947 0.039225 -0.577250
C129  C     C_3   0.965906 0.085068 0.994502 -0.089940
H117  H     H_    0.948077 0.064516 0.093470 0.134804
H118  H     H_    0.998475 0.053175 0.948736 0.160243
H119  H     H_    0.921149 0.094788 0.897574 0.110402
O106  O     O_3   0.989410 0.863824 0.613413 -0.607840
C130  C     C_3   0.944348 0.911240 0.618538 -0.008009
H120  H     H_    0.955416 0.930736 0.737362 0.087287
H121  H     H_    0.888841 0.899018 0.585413 0.138995
H122  H     H_    0.953016 0.944924 0.534504 0.184803
O107  O     O_3   0.505539 0.635791 0.039281 -0.577811
C131  C     C_3   0.466380 0.585070 0.992743 -0.086322
H123  H     H_    0.446496 0.564960 0.089664 0.148309
H124  H     H_    0.499651 0.552754 0.950556 0.159690
H125  H     H_    0.423058 0.594877 0.892491 0.108249
O108  O     O_3   0.487676 0.365197 0.631641 -0.610830
C132  C     C_3   0.443685 0.411978 0.649984 -0.061863
H126  H     H_    0.453215 0.425213 0.774598 0.092867
H127  H     H_    0.388015 0.401540 0.606865 0.131590
H128  H     H_    0.455216 0.449713 0.581759 0.216765

loop_
_geom_bond_atom_site_label_1
_geom_bond_atom_site_label_2
_geom_bond_distance
_ccdc_geom_bond_type
C4    O84   1.415843 S    
P7    O48   1.622133 S    
C30   H46   1.110266 S    
P8    O47   1.624290 S    
O78   H83   1.009314 S    
C2    H10   1.113465 S    
C20   H32   1.108393 S    
C122  O95   1.217977 D    
C10   O106  1.416226 S    
C121  O93   1.203525 D    
C37   C69   1.437228 A    
O5    Ba2   2.907686 S    
C71   C85   1.448074 A    
C69   C87   1.447646 A    
Ba3   O48   3.044113 S    
O68   H78   1.009698 S    
O18   C22   1.439287 S    
O17   C21   1.435718 S    
C37   C49   1.422690 A    
C58   C122  1.438037 S    
C80   C84   1.405547 A    
P2    O18   1.817717 S    
O23   C31   1.401773 S    
O24   C32   1.401407 S    
P4    O8    1.615816 S    
C115  H93   1.109266 S    
C49   C117  1.464522 S    
C40   C72   1.437992 A    
C22   C106  1.490611 S    
C1    O81   1.415388 S    
C82   C90   1.425773 A    
P9    O41   1.749857 S    
C100  O55   1.220092 D    
C11   O107  1.420784 S    
P11   O43   1.749965 S    
C5    H17   1.110128 S    
O25   Ba1   2.906670 S    
O38   C13   1.393627 S    
C59   C91   1.417873 A    
C10   O102  1.417164 S    
O20   C24   1.440323 S    
O88   H98   1.013626 S    
C44   C48   1.379027 A    
C114  H89   1.109128 S    
P6    Ba2   3.497211 S    
C42   C86   1.425366 A    
C48   H56   1.054154 S    
C62   C66   1.433229 A    
O14   P13   1.544512 D    
P12   O44   1.757302 S    
C114  H88   1.112247 S    
O10   P13   1.772391 S    
P15   C92   1.903021 S    
C84   C88   1.420228 A    
O28   Ba4   2.911084 S    
C36   C96   1.411073 A    
O6    Ba1   2.905978 S    
C39   C51   1.423061 A    
C2    O82   1.415055 S    
C106  O68   1.383597 S    
C74   C80   1.398062 A    
O11   Ba3   2.861476 S    
C4    H12   1.113841 S    
C113  H85   1.110829 S    
C55   C59   1.413491 A    
C65   C73   1.402290 A    
C56   C60   1.406787 A    
O1    Ba1   2.908594 S    
C15   C19   1.531559 S    
C130  H120  1.108681 S    
C34   C38   1.438159 A    
C23   C27   1.573561 S    
C4    C32   1.517759 S    
C110  O76   1.392227 S    
C128  H114  1.105713 S    
P2    Ba2   3.493131 S    
C44   C88   1.424757 A    
C98   O51   1.220677 D    
O26   Ba2   2.911084 S    
O39   C16   1.388220 S    
C68   C76   1.403269 A    
P10   O42   1.754733 S    
C125  H105  1.107573 S    
H4    C32   1.109835 S    
P3    O7    1.617942 S    
O4    Ba4   2.904237 S    
C70   C88   1.447699 A    
O94   H101  1.002679 S    
O81   C113  1.411260 S    
C76   C78   1.397853 A    
C24   C104  1.488655 S    
O103  C127  1.408574 S    
C5    H13   1.112902 S    
P3    Ba3   3.495642 S    
C99   O54   1.395021 S    
C7    H15   1.112872 S    
C41   C45   1.378100 A    
C74   H62   1.072518 S    
C131  H123  1.114677 S    
C132  H127  1.110079 S    
C45   C51   1.386244 A    
P14   C89   1.907504 S    
C46   C52   1.386369 A    
O101  C125  1.408545 S    
C45   H53   1.051909 S    
C77   H57   1.078491 S    
O22   P13   1.746045 S    
C43   C55   1.434997 A    
C54   C58   1.406749 A    
C129  H117  1.113342 S    
C47   C49   1.386477 A    
Ba4   O47   3.042879 S    
C39   C71   1.438029 A    
C62   C94   1.402741 A    
P1    C53   1.960202 S    
C101  O57   1.206066 D    
O16   P15   1.546122 D    
C10   H50   1.114679 S    
O19   C23   1.437497 S    
C104  O63   1.222450 D    
C116  H95   1.109440 S    
Ba3   Ba4   4.798702 S    
C16   H24   1.110629 S    
P9    O29   1.739740 S    
O84   C116  1.411973 S    
C28   H44   1.097428 S    
C103  O61   1.205532 D    
C22   C26   1.571145 S    
C119  O90   1.394402 S    
O106  C130  1.415551 S    
C14   C18   1.526194 S    
P12   O32   1.754328 S    
C3    H11   1.116322 S    
C97   O49   1.222283 D    
C33   C93   1.401061 A    
P8    Ba4   3.497211 S    
P5    O25   1.594360 D    
C108  O71   1.213646 D    
C83   C87   1.419073 A    
C120  O92   1.388044 S    
O24   P15   1.744317 S    
C25   C109  1.491897 S    
C127  H111  1.107364 S    
C115  H92   1.107829 S    
C123  O98   1.378117 S    
C35   C39   1.435327 A    
C36   C40   1.438375 A    
C128  H116  1.108785 S    
C20   H36   1.108054 S    
C16   C20   1.528392 S    
C38   C50   1.430186 A    
O29   Ba1   2.863556 S    
C1    C29   1.526563 S    
C25   H37   1.108829 S    
C112  O79   1.217162 D    
C22   C102  1.488391 S    
C82   C86   1.420160 A    
C27   H39   1.109728 S    
O72   H80   1.009738 S    
H1    C29   1.111463 S    
C111  O77   1.217862 D    
Ba2   O46   2.904701 S    
C51   C119  1.465169 S    
O41   C5    1.409460 S    
C105  O66   1.381330 S    
C5    C9    1.544635 S    
C131  H125  1.104526 S    
C7    C11   1.544866 S    
C126  H109  1.110111 S    
C118  O87   1.219956 D    
P5    O37   1.746767 S    
O32   Ba4   2.862093 S    
C130  H122  1.109371 S    
C18   C98   1.497007 S    
C8    H16   1.108665 S    
C95   H67   1.068565 S    
C59   C123  1.438051 S    
C57   C121  1.437692 S    
O66   H77   1.000211 S    
C61   C65   1.433267 A    
C29   H45   1.111227 S    
C109  O74   1.393910 S    
C64   C68   1.433597 A    
O9    P14   1.765649 S    
O8    Ba3   2.905978 S    
C108  O72   1.383608 S    
C72   C86   1.447562 A    
C24   C108  1.490419 S    
Ba3   O47   2.906413 S    
C48   C50   1.386227 A    
C60   C124  1.438256 S    
C107  O70   1.380997 S    
C13   H21   1.108981 S    
C67   C71   1.435918 A    
C15   H23   1.109306 S    
C65   C69   1.435668 A    
O102  C126  1.407718 S    
O74   H81   1.010156 S    
O30   Ba2   2.862093 S    
C77   C81   1.404190 A    
Ba1   O45   2.906413 S    
C15   H27   1.112110 S    
C127  H113  1.104605 S    
C21   C105  1.502308 S    
O62   H75   1.002417 S    
C47   H55   1.052128 S    
P13   C90   1.902138 S    
O52   H70   1.013397 S    
C28   C112  1.501249 S    
C8    H20   1.108234 S    
O107  C131  1.411285 S    
H3    C31   1.111509 S    
P12   C35   1.910703 S    
P7    Ba3   3.494629 S    
C38   C70   1.437599 A    
P1    Ba1   3.495642 S    
P1    O1    1.593383 D    
C68   C72   1.436984 A    
C26   C110  1.501326 S    
P6    O38   1.745193 S    
P3    O3    1.593383 D    
C3    O83   1.415487 S    
C52   C120  1.471550 S    
P4    O20   1.818785 S    
C60   C92   1.415543 A    
P10   C33   1.909828 S    
C17   H33   1.108104 S    
O54   H71   1.014089 S    
C19   H35   1.105465 S    
C76   H64   1.074174 S    
C117  O86   1.394436 S    
C94   H66   1.064917 S    
P16   C91   1.907036 S    
C42   C46   1.379196 A    
O50   H69   1.013621 S    
C35   C95   1.402211 A    
C46   H54   1.055170 S    
C124  O100  1.363786 S    
C32   H48   1.109623 S    
C28   H40   1.114720 S    
C64   C96   1.402821 A    
C81   C89   1.426903 A    
C12   O108  1.415989 S    
C106  O67   1.213393 D    
C19   C99   1.504444 S    
C113  H86   1.107890 S    
C6    H18   1.107754 S    
O12   Ba4   2.862919 S    
C122  O96   1.364188 S    
C14   H22   1.110841 S    
C114  H90   1.107379 S    
C121  O94   1.378137 S    
O37   C14   1.386649 S    
P9    O33   1.543678 D    
O83   C115  1.411471 S    
P10   O30   1.755792 S    
P9    C34   1.900780 S    
P1    O5    1.617942 S    
P8    C63   1.940887 S    
O58   H73   1.001530 S    
P12   O36   1.544623 D    
O100  H104  0.994247 S    
C21   C101  1.470658 S    
C125  H107  1.104507 S    
C41   C85   1.424946 A    
C1    H5    1.109756 S    
C113  H87   1.109248 S    
C50   C118  1.471501 S    
C3    H7    1.109795 S    
O92   H100  1.013694 S    
C110  O75   1.216692 D    
C41   C53   1.434769 A    
O96   H102  0.994590 S    
P6    O26   1.593222 D    
C83   C91   1.426710 A    
C79   H59   1.078666 S    
P8    O40   1.747710 S    
C125  H106  1.109407 S    
O7    Ba4   2.907686 S    
P3    C55   1.961578 S    
C23   C103  1.470154 S    
Ba1   O46   3.044113 S    
C100  O56   1.396431 S    
C17   C97   1.504214 S    
C12   O104  1.419961 S    
C18   H34   1.108783 S    
O80   H84   1.008104 S    
C66   C74   1.401639 A    
C131  H124  1.109624 S    
O11   P16   1.764845 S    
P11   O35   1.543729 D    
C2    C30   1.520023 S    
C27   H43   1.099818 S    
C132  H126  1.107452 S    
C9    O101  1.421099 S    
P4    Ba4   3.493131 S    
O21   C29   1.402227 S    
C25   H41   1.100532 S    
C129  H118  1.108894 S    
Ba4   O48   2.904701 S    
H2    C30   1.110059 S    
C1    H9    1.116418 S    
O90   H99   1.010997 S    
O10   Ba2   2.862919 S    
P6    O45   1.624290 S    
C7    H19   1.110090 S    
C116  H94   1.112447 S    
C102  O59   1.221998 D    
O27   Ba3   2.906670 S    
C44   C56   1.436736 A    
P6    C61   1.937341 S    
C33   C37   1.435621 A    
C119  O89   1.218120 D    
C27   C111  1.489235 S    
C129  H119  1.104003 S    
O86   H97   1.010692 S    
P5    Ba1   3.494629 S    
P4    C56   1.944486 S    
C75   C77   1.401001 A    
C75   H63   1.075437 S    
C3    C31   1.526675 S    
C73   H61   1.076434 S    
O98   H103  1.002699 S    
P1    O17   1.810204 S    
C120  O91   1.219877 D    
C78   H58   1.079681 S    
P3    O19   1.813169 S    
P4    O4    1.594521 D    
O108  C132  1.415365 S    
C127  H112  1.109455 S    
C63   C95   1.408930 A    
C123  O97   1.203574 D    
O104  C128  1.409076 S    
C31   H47   1.111172 S    
P5    O46   1.622133 S    
C61   C93   1.407530 A    
C11   O103  1.421271 S    
C13   C17   1.532888 S    
C67   C75   1.401905 A    
C99   O53   1.220390 D    
C128  H115  1.109939 S    
P5    C62   1.933729 S    
O40   C15   1.393970 S    
O3    Ba3   2.908594 S    
C21   C25   1.575128 S    
O42   C6    1.410160 S    
C93   H65   1.069140 S    
Ba1   Ba2   4.798702 S    
O2    Ba2   2.904237 S    
C126  H108  1.108815 S    
O15   P16   1.545633 D    
C118  O88   1.387990 S    
C18   H30   1.110664 S    
O13   P14   1.545689 D    
C34   C94   1.410851 A    
C105  O65   1.212998 D    
C8    C12   1.538667 S    
C6    H14   1.109368 S    
C132  H128  1.107565 S    
C9    O105  1.420751 S    
C84   C92   1.426244 A    
C11   H51   1.111515 S    
C80   H60   1.079728 S    
C12   H52   1.116841 S    
P2    O2    1.594521 D    
P7    O39   1.748777 S    
C104  O64   1.362852 S    
C130  H121  1.110039 S    
C17   H29   1.108765 S    
P11   C36   1.900934 S    
C101  O58   1.398470 S    
C96   H68   1.065375 S    
C4    H8    1.111148 S    
C102  O60   1.363386 S    
C43   C87   1.425482 A    
C116  H96   1.106684 S    
C109  O73   1.217420 D    
C79   C83   1.404865 A    
C13   H25   1.111959 S    
C103  O62   1.398770 S    
C26   H38   1.113931 S    
C43   C47   1.378381 A    
C23   C107  1.502328 S    
C81   C85   1.419375 A    
C107  O69   1.212868 D    
O44   C8    1.409748 S    
C6    C10   1.539573 S    
C97   O50   1.393865 S    
O70   H79   0.999314 S    
C98   O52   1.396936 S    
O76   H82   1.007548 S    
P10   O34   1.544030 D    
O12   P15   1.772415 S    
P11   O31   1.739393 S    
O60   H74   1.001297 S    
P2    O6    1.615816 S    
C115  H91   1.110593 S    
C16   H28   1.112122 S    
P7    O27   1.594360 D    
O105  C129  1.411295 S    
P8    O28   1.593222 D    
O82   C114  1.411900 S    
C2    H6    1.110934 S    
C63   C67   1.433476 A    
C57   C89   1.417440 A    
O56   H72   1.013214 S    
C42   C54   1.436988 A    
O23   P16   1.746739 S    
C19   H31   1.107341 S    
O64   H76   1.001156 S    
O21   P14   1.747285 S    
P7    C64   1.931818 S    
C112  O80   1.392524 S    
P2    C54   1.944627 S    
O43   C7    1.409653 S    
C111  O78   1.393239 S    
Ba2   O45   3.042879 S    
C14   H26   1.111738 S    
C73   C79   1.401139 A    
C53   C57   1.413079 A    
C117  O85   1.217338 D    
C9    H49   1.111514 S    
C66   C70   1.436158 A    
C126  H110  1.108486 S    
O31   Ba3   2.863556 S    
C20   C100  1.494762 S    
C78   C82   1.405606 A    
C58   C90   1.415387 A    
C40   C52   1.430687 A    
C124  O99   1.218017 D    
O22   C30   1.402123 S    
C26   H42   1.097827 S    
O9    Ba1   2.861476 S    
C24   C28   1.570718 S    
