data_mof_unit_42649.cif
_audit_creation_date              2012-12-11T15:41:16-0500
_audit_creation_method            fapswitch 2.2
_symmetry_space_group_name_H-M    P1
_symmetry_Int_Tables_number       1
_space_group_crystal_system       triclinic
_cell_length_a                    19.414975
_cell_length_b                    11.074432
_cell_length_c                    18.770768
_cell_angle_alpha                 89.994892
_cell_angle_beta                  90.388637
_cell_angle_gamma                 90.14105
_cell_volume                      4035.79437339

loop_
_atom_site_label
_atom_site_type_symbol
_atom_type_description
_atom_site_fract_x
_atom_site_fract_y
_atom_site_fract_z
_atom_type_partial_charge
C1    C     C_R   0.725675 0.958051 0.854183 0.548760
C2    C     C_R   0.312337 0.404528 0.030795 0.018546
C3    C     C_R   0.762742 0.856676 0.356292 0.538282
C4    C     C_2   0.498880 0.172201 0.920608 -0.128467
C5    C     C_2   0.500387 0.173311 0.079034 -0.122756
C6    C     C_2   0.998881 0.672200 0.920609 -0.128470
C7    C     C_2   0.000388 0.673310 0.079035 -0.122749
C8    C     C_2   0.492521 0.075829 0.038025 -0.178334
C9    C     C_2   0.509693 0.076429 0.962421 -0.174675
C10   C     C_2   0.992524 0.575827 0.038025 -0.178341
C11   C     C_2   0.009695 0.576428 0.962421 -0.174673
C12   C     C_R   0.761899 0.426355 0.072484 0.018479
C13   C     C_R   0.188195 0.889043 0.971471 0.019019
C14   C     C_R   0.238906 0.423848 0.927534 0.009493
C15   C     C_R   0.261899 0.926355 0.072484 0.018471
C16   C     C_R   0.738907 0.923849 0.927534 0.009502
C17   C     C_3   0.614314 0.417168 0.345543 -0.261617
C18   C     C_3   0.392388 0.477090 0.654331 -0.262693
C19   C     C_3   0.114314 0.917166 0.345543 -0.261616
C20   C     C_3   0.892388 0.977090 0.654331 -0.262693
C21   C     C_3   0.918659 0.348487 0.907679 -0.281439
C22   C     C_3   0.079725 0.330664 0.087036 -0.284477
C23   C     C_3   0.418659 0.848485 0.907680 -0.281455
C24   C     C_R   0.812335 0.904527 0.030796 0.018549
C25   C     C_3   0.579726 0.830684 0.087036 -0.284470
C26   C     C_3   0.563256 0.580825 0.895113 -0.024632
C27   C     C_3   0.570154 0.694133 0.850302 -0.341721
C28   C     C_3   0.424082 0.651271 0.086452 -0.015455
C29   C     C_3   0.443485 0.615927 0.162481 -0.358358
C30   C     C_3   0.063243 0.080826 0.895127 -0.024632
C31   C     C_3   0.070143 0.194113 0.850298 -0.341726
C32   C     C_3   0.924097 0.151242 0.086453 -0.015400
C33   C     C_3   0.943381 0.116061 0.162543 -0.358332
C34   C     C_3   0.494914 0.890497 0.589561 -0.268162
C35   C     C_R   0.810017 0.422388 0.953072 0.105608
C36   C     C_3   0.566873 0.922983 0.351354 -0.269120
C37   C     C_3   0.994914 0.390499 0.589562 -0.268161
C38   C     C_3   0.066867 0.422982 0.351352 -0.269121
C39   C     C_R   0.188873 0.413133 0.046139 0.110444
C40   C     C_R   0.310017 0.922386 0.953072 0.105603
C41   C     C_R   0.688874 0.913152 0.046141 0.110444
C42   C     C_R   0.818371 0.433104 0.026319 -0.115086
C43   C     C_R   0.181476 0.417982 0.972602 -0.106741
C44   C     C_R   0.318370 0.933105 0.026319 -0.115118
C45   C     C_R   0.274346 0.958154 0.146007 0.548571
C46   C     C_R   0.681476 0.918003 0.972604 -0.106740
C47   C     C_3   0.631386 0.469694 0.052864 -0.233134
C48   C     C_3   0.365645 0.495020 0.950394 -0.240411
C49   C     C_3   0.131385 0.969691 0.052862 -0.233151
C50   C     C_3   0.865657 0.994972 0.950387 -0.240395
C51   C     C_3   0.620452 0.453650 0.973220 0.149474
C52   C     C_3   0.374723 0.484337 0.030654 0.154263
C53   C     C_3   0.120451 0.953642 0.973219 0.149471
C54   C     C_3   0.874728 0.984320 0.030649 0.154218
C55   C     C_R   0.743974 0.404448 0.924911 0.085698
C56   C     C_R   0.225674 0.458053 0.854183 0.548769
C57   C     C_R   0.254978 0.408284 0.075944 0.084662
C58   C     C_R   0.243974 0.904445 0.924912 0.085700
C59   C     C_R   0.754978 0.908294 0.075946 0.084656
C60   C     C_R   0.515220 0.166009 0.416497 0.008708
C61   C     C_R   0.553266 0.166915 0.560748 0.006861
C62   C     C_R   0.015220 0.666009 0.416497 0.008707
C63   C     C_R   0.053267 0.666915 0.560748 0.006859
C64   C     C_R   0.526176 0.272503 0.453411 -0.006164
C65   C     C_R   0.546561 0.273120 0.523143 -0.024534
C66   C     C_R   0.026176 0.772503 0.453411 -0.006164
C67   C     C_R   0.774346 0.458154 0.146007 0.548565
C68   C     C_R   0.046562 0.773120 0.523143 -0.024534
C69   C     C_R   0.548138 0.054956 0.523412 0.112159
C70   C     C_R   0.531548 0.055028 0.449470 0.119400
C71   C     C_R   0.048138 0.554956 0.523412 0.112162
C72   C     C_R   0.031548 0.555028 0.449470 0.119404
C73   C     C_R   0.530365 0.178210 0.850436 0.559356
C74   C     C_R   0.469411 0.178438 0.149426 0.546396
C75   C     C_R   0.030365 0.678210 0.850437 0.559352
C76   C     C_R   0.969412 0.678438 0.149427 0.546411
C77   C     C_3   0.473458 0.367848 0.465158 -0.260992
C78   C     C_R   0.696957 0.402231 0.044342 -0.048514
C79   C     C_3   0.496207 0.368768 0.540506 -0.269079
C80   C     C_3   0.973458 0.867848 0.465158 -0.260992
C81   C     C_3   0.996207 0.868768 0.540506 -0.269079
C82   C     C_R   0.753981 0.411642 0.421388 0.029417
C83   C     C_R   0.255069 0.401719 0.583252 0.036804
C84   C     C_R   0.253981 0.911643 0.421388 0.029417
C85   C     C_R   0.755069 0.901719 0.583252 0.036804
C86   C     C_R   0.810186 0.378981 0.463285 0.020231
C87   C     C_R   0.205027 0.342390 0.544511 0.007918
C88   C     C_R   0.310186 0.878982 0.463285 0.020227
C89   C     C_R   0.304489 0.414634 0.957583 -0.049899
C90   C     C_R   0.705027 0.842390 0.544511 0.007918
C91   C     C_R   0.804548 0.369353 0.536010 -0.012672
C92   C     C_R   0.203987 0.341158 0.471250 -0.007572
C93   C     C_R   0.304548 0.869355 0.536011 -0.012673
C94   C     C_R   0.703987 0.841158 0.471250 -0.007572
C95   C     C_R   0.686398 0.430510 0.529013 -0.152030
C96   C     C_R   0.309948 0.451374 0.470076 -0.168566
C97   C     C_R   0.186398 0.930510 0.529013 -0.152029
C98   C     C_R   0.809948 0.951373 0.470076 -0.168566
C99   C     C_R   0.689831 0.434004 0.453709 0.107665
C100  C     C_R   0.196957 0.902228 0.044342 -0.048513
C101  C     C_R   0.312484 0.450397 0.546219 0.105569
C102  C     C_R   0.189831 0.934005 0.453709 0.107665
C103  C     C_R   0.812485 0.950397 0.546219 0.105569
C104  C     C_3   0.846767 0.261847 0.456637 -0.279038
C105  C     C_3   0.185105 0.213744 0.550823 -0.293490
C106  C     C_3   0.346767 0.761849 0.456637 -0.279035
C107  C     C_3   0.685105 0.713744 0.550823 -0.293490
C108  C     C_3   0.835942 0.247917 0.535017 -0.253703
C109  C     C_3   0.182211 0.212825 0.470627 -0.243900
C110  C     C_3   0.335943 0.747918 0.535017 -0.253705
C111  C     C_R   0.804489 0.914616 0.957582 -0.049879
C112  C     C_3   0.682211 0.712825 0.470627 -0.243898
C113  C     C_R   0.744207 0.397435 0.570688 -0.027607
C114  C     C_R   0.256108 0.393649 0.431691 -0.018099
C115  C     C_R   0.244207 0.897436 0.570688 -0.027606
C116  C     C_R   0.756108 0.893648 0.431692 -0.018101
C117  C     C_R   0.737084 0.361572 0.852818 0.585821
C118  C     C_R   0.262553 0.363046 0.147622 0.580197
C119  C     C_R   0.237084 0.861572 0.852818 0.585821
C120  C     C_R   0.762552 0.863049 0.147623 0.580194
C121  C     C_R   0.729549 0.952105 0.649934 0.546002
C122  C     C_R   0.688195 0.389047 0.971470 0.019016
C123  C     C_R   0.272082 0.954005 0.351096 0.545786
C124  C     C_R   0.229549 0.452105 0.649934 0.546004
C125  C     C_R   0.772082 0.454005 0.351096 0.545783
C126  C     C_R   0.563379 0.179316 0.637629 0.584402
C127  C     C_R   0.472214 0.175647 0.353199 0.553801
C128  C     C_R   0.063379 0.679316 0.637629 0.584401
C129  C     C_R   0.972214 0.675647 0.353199 0.553808
C130  C     C_R   0.737236 0.356894 0.644404 0.545137
C131  C     C_R   0.262742 0.356677 0.356292 0.538278
C132  C     C_R   0.237236 0.856894 0.644404 0.545137
Cr1   Cr    Cr6+3 0.769260 0.163750 0.750730 0.979956
Cr2   Cr    Cr6+3 0.385810 0.322400 0.252290 0.981343
Cr3   Cr    Cr6+3 0.114190 0.822400 0.747710 0.980004
Cr4   Cr    Cr6+3 0.885810 0.822400 0.252290 0.981289
Cr5   Cr    Cr6+3 0.230740 0.163750 0.249270 0.986571
Cr6   Cr    Cr6+3 0.269260 0.663750 0.750730 0.979954
Cr7   Cr    Cr6+3 0.730740 0.663750 0.249270 0.986569
Cr8   Cr    Cr6+3 0.612640 0.009910 0.748780 0.990762
Cr9   Cr    Cr6+3 0.387360 0.009910 0.251220 0.998234
Cr10  Cr    Cr6+3 0.112640 0.509910 0.748780 0.990764
Cr11  Cr    Cr6+3 0.887360 0.509910 0.251220 0.998206
Cr12  Cr    Cr6+3 0.614190 0.322400 0.747710 0.979987
H1    H     H_    0.475878 0.991529 0.061059 0.135651
H2    H     H_    0.455470 0.330049 0.574713 0.184570
H3    H     H_    0.916050 0.250339 0.085102 0.157482
H4    H     H_    0.967569 0.132123 0.049608 0.093295
H5    H     H_    0.954525 0.018142 0.165615 0.169024
H6    H     H_    0.989994 0.166394 0.179996 0.062499
H7    H     H_    0.900393 0.137712 0.199107 0.170427
H8    H     H_    0.581686 0.881221 0.529423 0.255006
H9    H     H_    0.488192 0.798313 0.567510 0.074619
H10   H     H_    0.448251 0.945390 0.577914 0.157130
H11   H     H_    0.500982 0.880557 0.648041 0.177639
H12   H     H_    0.508231 0.868588 0.439463 0.235883
H13   H     H_    0.982511 0.953877 0.436501 0.124009
H14   H     H_    0.593194 0.835374 0.358363 0.150484
H15   H     H_    0.606261 0.995352 0.345414 0.145234
H16   H     H_    0.535759 0.917098 0.301693 0.163618
H17   H     H_    0.081686 0.381221 0.529424 0.255005
H18   H     H_    0.988187 0.298321 0.567505 0.074618
H19   H     H_    0.948253 0.445398 0.577924 0.157134
H20   H     H_    0.000986 0.380545 0.648040 0.177632
H21   H     H_    0.008230 0.368588 0.439463 0.235883
H22   H     H_    0.093199 0.335385 0.358366 0.150490
H23   H     H_    0.106247 0.495363 0.345400 0.145234
H24   H     H_    0.955470 0.830049 0.574713 0.184570
H25   H     H_    0.035749 0.417074 0.301695 0.163610
H26   H     H_    0.638550 0.451531 0.554993 0.134948
H27   H     H_    0.351747 0.492141 0.440816 0.118068
H28   H     H_    0.138550 0.951531 0.554993 0.134948
H29   H     H_    0.851747 0.992140 0.440816 0.118069
H30   H     H_    0.901611 0.273362 0.441974 0.140125
H31   H     H_    0.133989 0.201076 0.576084 0.137469
H32   H     H_    0.401612 0.773365 0.441974 0.140127
H33   H     H_    0.529347 0.994075 0.940029 0.136388
H34   H     H_    0.633989 0.701076 0.576084 0.137469
H35   H     H_    0.817664 0.195500 0.423693 0.133400
H36   H     H_    0.227421 0.158132 0.573652 0.140639
H37   H     H_    0.317665 0.695501 0.423693 0.133404
H38   H     H_    0.727422 0.658132 0.573652 0.140639
H39   H     H_    0.795844 0.179908 0.547449 0.194606
H40   H     H_    0.222675 0.156327 0.446317 0.188033
H41   H     H_    0.295845 0.679909 0.547449 0.194608
H42   H     H_    0.722675 0.656327 0.446317 0.188033
H43   H     H_    0.882830 0.243967 0.568090 0.146237
H44   H     H_    0.975881 0.491527 0.061060 0.135655
H45   H     H_    0.129230 0.203272 0.448948 0.135536
H46   H     H_    0.382831 0.743970 0.568089 0.146235
H47   H     H_    0.629230 0.703271 0.448948 0.135536
H48   H     H_    0.520952 0.256148 0.056756 0.090453
H49   H     H_    0.475111 0.253211 0.941792 0.090323
H50   H     H_    0.020952 0.756147 0.056756 0.090459
H51   H     H_    0.975111 0.753208 0.941793 0.090316
H52   H     H_    0.868602 0.454215 0.046899 0.129022
H53   H     H_    0.130545 0.426505 0.951087 0.130878
H54   H     H_    0.368602 0.954217 0.046899 0.129011
H55   H     H_    0.029352 0.494075 0.940030 0.136392
H56   H     H_    0.630547 0.926540 0.951088 0.130878
H57   H     H_    0.140673 0.064333 0.069198 0.169072
H58   H     H_    0.851197 0.086775 0.932305 0.172704
H59   H     H_    0.640673 0.564335 0.069203 0.169078
H60   H     H_    0.351168 0.586825 0.932329 0.172709
H61   H     H_    0.593557 0.419871 0.085863 0.083452
H62   H     H_    0.407771 0.451587 0.919980 0.073744
H63   H     H_    0.093557 0.919871 0.085864 0.083485
H64   H     H_    0.907780 0.951506 0.919983 0.073741
H65   H     H_    0.576712 0.391766 0.960181 0.092742
H66   H     H_    0.920968 0.829604 0.458945 0.165774
H67   H     H_    0.421697 0.434023 0.047922 0.106200
H68   H     H_    0.076713 0.891753 0.960182 0.092742
H69   H     H_    0.921695 0.933999 0.047933 0.106192
H70   H     H_    0.591259 0.509630 0.441250 0.232563
H71   H     H_    0.622547 0.480688 0.300825 0.164325
H72   H     H_    0.559014 0.397568 0.342886 0.156236
H73   H     H_    0.643529 0.332199 0.337262 0.135280
H74   H     H_    0.406967 0.545653 0.550344 0.235113
H75   H     H_    0.448942 0.466899 0.657526 0.120422
H76   H     H_    0.367908 0.392744 0.673894 0.151755
H77   H     H_    0.020670 0.954959 0.557435 0.122877
H78   H     H_    0.382507 0.554071 0.690581 0.173243
H79   H     H_    0.091259 0.009630 0.441250 0.232563
H80   H     H_    0.122548 0.980685 0.300824 0.164327
H81   H     H_    0.059014 0.897569 0.342886 0.156233
H82   H     H_    0.143528 0.832196 0.337264 0.135282
H83   H     H_    0.906967 0.045652 0.550344 0.235113
H84   H     H_    0.948942 0.966898 0.657526 0.120424
H85   H     H_    0.867908 0.892743 0.673894 0.151754
H86   H     H_    0.882506 0.054070 0.690581 0.173242
H87   H     H_    0.886069 0.527796 0.910475 0.258777
H88   H     H_    0.420968 0.329604 0.458945 0.165773
H89   H     H_    0.942936 0.340797 0.961156 0.103684
H90   H     H_    0.958443 0.370874 0.867681 0.138961
H91   H     H_    0.896277 0.260221 0.892740 0.171944
H92   H     H_    0.110810 0.511784 0.090513 0.257193
H93   H     H_    0.056601 0.324887 0.032904 0.112985
H94   H     H_    0.038606 0.348677 0.126346 0.125002
H95   H     H_    0.103262 0.243220 0.101159 0.176588
H96   H     H_    0.386068 0.027794 0.910474 0.258781
H97   H     H_    0.442933 0.840790 0.961159 0.103688
H98   H     H_    0.458446 0.870875 0.867685 0.138961
H99   H     H_    0.520670 0.454959 0.557435 0.122877
H100  H     H_    0.396278 0.760221 0.892736 0.171934
H101  H     H_    0.610811 0.011803 0.090514 0.257192
H102  H     H_    0.556603 0.824910 0.032904 0.112990
H103  H     H_    0.538607 0.848698 0.126345 0.124998
H104  H     H_    0.603263 0.743239 0.101157 0.176599
H105  H     H_    0.517620 0.590163 0.930213 0.100905
H106  H     H_    0.555298 0.504001 0.857884 0.169835
H107  H     H_    0.617438 0.689263 0.817457 0.185389
H108  H     H_    0.524812 0.702842 0.814317 0.058364
H109  H     H_    0.572893 0.774262 0.885530 0.154342
H110  H     H_    0.482511 0.453877 0.436501 0.124009
H111  H     H_    0.415985 0.750355 0.085203 0.157595
H112  H     H_    0.467509 0.632316 0.049528 0.093320
H113  H     H_    0.454842 0.518084 0.165411 0.168725
H114  H     H_    0.490000 0.666489 0.179977 0.062524
H115  H     H_    0.400481 0.637150 0.199100 0.170551
H116  H     H_    0.017621 0.090197 0.930240 0.100919
H117  H     H_    0.055261 0.003993 0.857910 0.169810
H118  H     H_    0.117419 0.189214 0.817443 0.185376
H119  H     H_    0.024795 0.202822 0.814322 0.058359
H120  H     H_    0.072897 0.274255 0.885513 0.154350
N1    N     N_2   0.631715 0.474495 0.413044 -0.517601
N2    N     N_2   0.522016 0.944531 0.411366 -0.506369
N3    N     N_2   0.056593 0.443422 0.559823 -0.472068
N4    N     N_2   0.022014 0.444530 0.411366 -0.506371
N5    N     N_2   0.369884 0.507234 0.582135 -0.534919
N6    N     N_2   0.131716 0.974495 0.413044 -0.517601
N7    N     N_2   0.869884 0.007233 0.582135 -0.534919
N8    N     N_2   0.866582 0.441637 0.906895 -0.497983
N9    N     N_2   0.130677 0.425893 0.090973 -0.501196
N10   N     N_2   0.366582 0.941635 0.906895 -0.497978
N11   N     N_2   0.630678 0.925913 0.090975 -0.501204
N12   N     N_2   0.556593 0.943422 0.559823 -0.472066
O1    O     O_R   0.784290 0.290360 0.830540 -0.506933
O2    O     O_R   0.456020 0.282110 0.333230 -0.551588
O3    O     O_R   0.043980 0.782110 0.666770 -0.544494
O4    O     O_R   0.956020 0.782110 0.333230 -0.551596
O5    O     O_R   0.679070 0.374030 0.674430 -0.524921
O6    O     O_R   0.320930 0.374030 0.325570 -0.508066
O7    O     O_R   0.179070 0.874030 0.674430 -0.524921
O8    O     O_R   0.820930 0.874030 0.325570 -0.508065
O9    O     O_3   0.665360 0.165350 0.749070 -0.276748
O10   O     O_3   0.334640 0.165350 0.250930 -0.256242
O11   O     O_3   0.165360 0.665350 0.749070 -0.276753
O12   O     O_R   0.215710 0.290360 0.169460 -0.502312
O13   O     O_3   0.834640 0.665350 0.250930 -0.256232
O14   O     O_R   0.762610 0.041070 0.825230 -0.514197
O15   O     O_R   0.237390 0.041070 0.174770 -0.516587
O16   O     O_R   0.262610 0.541070 0.825230 -0.514198
O17   O     O_R   0.737390 0.541070 0.174770 -0.516587
O18   O     O_R   0.667390 0.924160 0.829970 -0.542660
O19   O     O_R   0.332610 0.924160 0.170030 -0.529907
O20   O     O_R   0.167390 0.424160 0.829970 -0.542654
O21   O     O_R   0.832610 0.424160 0.170030 -0.529914
O22   O     O_R   0.553980 0.081420 0.821780 -0.500679
O23   O     O_R   0.284290 0.790360 0.830540 -0.506942
O24   O     O_R   0.446020 0.081420 0.178220 -0.509048
O25   O     O_R   0.053980 0.581420 0.821780 -0.500681
O26   O     O_R   0.946020 0.581420 0.178220 -0.509040
O27   O     O_R   0.543210 0.283170 0.826740 -0.544434
O28   O     O_R   0.456790 0.283170 0.173260 -0.544505
O29   O     O_R   0.043210 0.783170 0.826740 -0.544426
O30   O     O_R   0.956790 0.783170 0.173260 -0.544539
O31   O     O_R   0.678350 0.375000 0.822720 -0.499218
O32   O     O_R   0.321650 0.375000 0.177280 -0.498293
O33   O     O_R   0.178350 0.875000 0.822720 -0.499194
O34   O     O_R   0.715710 0.790360 0.169460 -0.502306
O35   O     O_R   0.821650 0.875000 0.177280 -0.498360
O36   O     O_R   0.785060 0.289300 0.670580 -0.515259
O37   O     O_R   0.214940 0.289300 0.329420 -0.528837
O38   O     O_R   0.285060 0.789300 0.670580 -0.515259
O39   O     O_R   0.714940 0.789300 0.329420 -0.528835
O40   O     O_R   0.763330 0.040090 0.676940 -0.501933
O41   O     O_R   0.236670 0.040090 0.323060 -0.497217
O42   O     O_R   0.263330 0.540090 0.676940 -0.501932
O43   O     O_R   0.736670 0.540090 0.323060 -0.497214
O44   O     O_R   0.668160 0.923110 0.670000 -0.505877
O45   O     O_R   0.554690 0.080440 0.673480 -0.476523
O46   O     O_R   0.331840 0.923110 0.330000 -0.514401
O47   O     O_R   0.168160 0.423110 0.670000 -0.505876
O48   O     O_R   0.831840 0.423110 0.330000 -0.514420
O49   O     O_3   0.623621 0.565016 0.936278 -0.546520
O50   O     O_3   0.361643 0.594748 0.066037 -0.542782
O51   O     O_3   0.123618 0.065004 0.936272 -0.546512
O52   O     O_3   0.861654 0.094755 0.066009 -0.542777
O53   O     O_R   0.445310 0.080440 0.326520 -0.468438
O54   O     O_R   0.054690 0.580440 0.673480 -0.476522
O55   O     O_R   0.945310 0.580440 0.326520 -0.468434
O56   O     O_R   0.543980 0.282110 0.666770 -0.544494

loop_
_geom_bond_atom_site_label_1
_geom_bond_atom_site_label_2
_ccdc_geom_bond_type
C110  H41   S    
C107  C112  S    
C8    H1    S    
C76   O26   A    
C75   O25   A    
C6    C75   S    
C34   H11   S    
C1    O18   A    
C68   C81   S    
C19   H82   S    
C90   C107  S    
Cr5   O37   S    
Cr4   O13   S    
C95   C99   A    
C92   C109  S    
C24   C54   S    
Cr1   O1    S    
C31   H119  S    
C82   C99   A    
C132  O38   A    
C5    C74   S    
C35   C42   A    
C27   H107  S    
C12   C42   A    
Cr11  O13   S    
Cr9   O24   S    
Cr11  O55   S    
C85   C121  S    
C79   H99   S    
Cr8   O9    S    
C97   C115  A    
C35   N8    S    
C128  O3    A    
C85   C103  A    
C93   C110  S    
C127  O53   A    
C96   C114  A    
Cr6   O38   S    
Cr7   O43   S    
C77   C79   S    
C38   H23   S    
Cr8   O44   S    
H74   N5    S    
C40   C58   A    
C47   H61   S    
H8    N12   S    
C6    C11   D    
C104  H30   S    
C110  H46   S    
C29   H113  S    
C84   C123  S    
C82   C125  S    
C26   H105  S    
C51   H65   S    
C21   H90   S    
C43   H53   S    
Cr2   O6    S    
C2    C52   S    
C109  H40   S    
C63   C71   A    
Cr10  O25   S    
Cr9   O46   S    
C120  O35   A    
Cr11  O48   S    
Cr7   O13   S    
C9    H33   S    
C38   H25   S    
C80   H66   S    
C22   H95   S    
C55   C117  S    
C34   H9    S    
C20   H85   S    
H70   N1    S    
C19   H80   S    
C84   C88   A    
C15   C44   A    
C5    C8    D    
C39   C43   A    
C85   C90   A    
C60   C64   A    
C33   H5    S    
C32   C33   S    
C112  H47   S    
Cr7   O34   S    
C49   C53   S    
C58   C119  S    
Cr2   O10   S    
C127  O2    A    
C69   C70   A    
Cr4   O8    S    
Cr3   O33   S    
Cr4   O30   S    
C48   C52   S    
C132  O7    A    
H12   N2    S    
C125  O43   A    
Cr12  O5    S    
Cr1   O40   S    
Cr10  O20   S    
C16   C111  A    
C3    O39   A    
C14   C43   A    
C50   H64   S    
C44   H54   S    
C59   C120  S    
C65   C79   S    
C123  O41   A    
C84   C102  A    
C74   O24   A    
C18   H76   S    
C2    C57   A    
C32   H3    S    
C130  O36   A    
C29   H115  S    
C30   H116  S    
C3    C116  S    
C72   N4    S    
Cr2   O32   S    
C46   H56   S    
C10   H44   S    
C60   C70   A    
C83   C124  S    
C23   H97   S    
Cr1   O36   S    
Cr11  O26   S    
Cr12  O31   S    
Cr10  O11   S    
C22   H93   S    
C25   H102  S    
C56   O20   A    
Cr5   O41   S    
Cr10  O54   S    
C70   N2    S    
C79   H2    S    
C115  C132  S    
C49   H57   S    
C52   O50   S    
C113  C130  S    
C62   C66   A    
C33   H7    S    
C98   H29   S    
C101  N5    S    
Cr6   O11   S    
H21   N4    S    
C103  N7    S    
Cr10  O47   S    
C106  H37   S    
C61   C65   A    
C87   C105  S    
H87   N8    S    
C45   O15   A    
C7    H50   S    
C20   N7    S    
C4    C73   S    
Cr6   O42   S    
C37   H20   S    
Cr7   O39   S    
C124  O47   A    
C3    O8    A    
Cr12  O27   S    
C105  C109  S    
C63   C68   A    
C83   C101  A    
C125  O48   A    
C126  O56   A    
C120  O34   A    
C97   C102  A    
C119  O23   A    
C7    C76   S    
C66   C80   S    
C48   H60   S    
C20   H84   S    
C19   H81   S    
C71   C72   A    
Cr5   O10   S    
H17   N3    S    
C24   C59   A    
C64   C65   A    
C94   C112  S    
C50   C111  S    
C95   H26   S    
C10   C11   S    
C25   H104  S    
C40   C44   A    
C21   N8    S    
C105  H31   S    
C106  H32   S    
C37   H18   S    
C47   C78   S    
C4    C9    D    
C87   C92   A    
C7    C10   D    
C83   C87   A    
C45   O19   A    
C114  C131  S    
C14   C56   S    
C28   H111  S    
C15   C100  A    
C121  O40   A    
C26   C27   S    
C50   C54   S    
C97   H28   S    
Cr3   O3    S    
C28   C29   S    
Cr4   O4    S    
C130  O5    A    
C86   C91   A    
C30   C31   S    
C104  H35   S    
C98   C103  A    
C53   O51   S    
C129  O4    A    
H92   N9    S    
Cr6   O16   S    
C26   H106  S    
C36   H15   S    
C21   H89   S    
C96   H27   S    
C73   O27   A    
C74   O28   A    
C61   C126  S    
C17   H72   S    
C118  O12   A    
C63   C128  S    
C39   N9    S    
C50   H58   S    
C86   C104  S    
C128  O54   A    
C96   C101  A    
C67   O21   A    
C6    H51   S    
C90   C94   A    
C13   C53   S    
C34   H10   S    
C4    H49   S    
C20   H86   S    
C107  H38   S    
Cr2   O2    S    
C54   O52   S    
C16   C46   A    
C26   O49   S    
C94   C116  A    
C47   C51   S    
C51   O49   S    
Cr5   O12   S    
C82   C86   A    
C34   N12   S    
C31   H120  S    
C2    C89   A    
C27   H108  S    
C14   C89   A    
C56   O16   A    
C30   O51   S    
Cr3   O7    S    
C1    C16   S    
C42   H52   S    
Cr4   O35   S    
Cr1   O9    S    
C104  C108  S    
Cr11  O21   S    
C38   H22   S    
C71   N3    S    
C102  N6    S    
C108  H39   S    
C73   O22   A    
C91   C108  S    
C60   C127  S    
Cr8   O45   S    
C32   H4    S    
C81   H77   S    
C29   H114  S    
C30   H117  S    
Cr1   O14   S    
C25   N11   S    
C112  H42   S    
C21   H91   S    
C81   H24   S    
H96   N10   S    
C1    O14   A    
C18   H78   S    
C11   H55   S    
C57   C118  S    
C119  O33   A    
C51   C122  S    
C23   H100  S    
C22   H94   S    
C54   H69   S    
C66   C68   A    
C123  O46   A    
C108  H43   S    
C126  O45   A    
C31   H118  S    
C33   H6    S    
C53   H68   S    
C37   N3    S    
C75   O29   A    
C23   N10   S    
Cr9   O19   S    
C39   C57   A    
C93   C115  A    
Cr5   O15   S    
C38   N4    S    
C17   N1    S    
C28   O50   S    
C117  O31   A    
C109  H45   S    
C8    C9    S    
C12   C78   A    
C52   H67   S    
C117  O1    A    
C41   C46   A    
C36   H14   S    
C37   H19   S    
C121  O44   A    
C55   C122  A    
C62   C129  S    
C24   C111  A    
Cr2   O28   S    
C18   H75   S    
C19   N6    S    
C12   C67   S    
C35   C55   A    
C49   H63   S    
C41   C59   A    
H79   N6    S    
C32   O52   S    
Cr7   O17   S    
Cr8   O22   S    
C13   C58   A    
C91   C113  A    
C118  O32   A    
C88   C106  S    
C98   C116  A    
Cr6   O23   S    
C40   N10   S    
C67   O17   A    
C62   C72   A    
C23   H98   S    
C27   H109  S    
C25   H103  S    
H83   N7    S    
C48   C89   S    
C107  H34   S    
Cr3   O11   S    
C15   C45   S    
C105  H36   S    
C129  O55   A    
Cr9   O10   S    
C17   H73   S    
Cr3   O29   S    
C106  C110  S    
C61   C69   A    
C69   N12   S    
C88   C93   A    
C99   N1    S    
C77   H88   S    
C47   H59   S    
Cr12  O9    S    
C36   N2    S    
C77   H110  S    
C28   H112  S    
C5    H48   S    
C80   C81   S    
C41   N11   S    
C22   N9    S    
H101  N11   S    
C13   C100  A    
C124  O42   A    
Cr12  O56   S    
C49   C100  S    
C80   H13   S    
C95   C113  A    
C131  O37   A    
Cr9   O53   S    
C131  O6    A    
C78   C122  A    
Cr8   O18   S    
C36   H16   S    
C64   C77   S    
C48   H62   S    
C76   O30   A    
C17   H71   S    
C92   C114  A    
C18   N5    S    
