data_mof_unit_59556.cif
_audit_creation_date              2013-03-05T15:50:25-0500
_audit_creation_method            fapswitch 2.2
_symmetry_space_group_name_H-M    P1
_symmetry_Int_Tables_number       1
_space_group_crystal_system       triclinic
_cell_length_a                    18.254417
_cell_length_b                    25.710145
_cell_length_c                    18.395484
_cell_angle_alpha                 89.998558
_cell_angle_beta                  89.99573
_cell_angle_gamma                 89.99885
_cell_volume                      8633.43673216

loop_
_atom_site_label
_atom_site_type_symbol
_atom_site_description
_atom_site_fract_x
_atom_site_fract_y
_atom_site_fract_z
_atom_type_partial_charge
Zn1   Zn    Zn3+2 0.249990 0.293780 0.913250 0.960759
Zn2   Zn    Zn3+2 0.249990 0.706220 0.086750 0.962261
Zn3   Zn    Zn3+2 0.249990 0.706220 0.913250 0.969384
Zn4   Zn    Zn3+2 0.249990 0.293780 0.086750 0.970799
Zn5   Zn    Zn3+2 0.749990 0.793780 0.413250 0.969384
Zn6   Zn    Zn3+2 0.749990 0.206220 0.586750 0.970724
Zn7   Zn    Zn3+2 0.749990 0.206220 0.413250 0.960823
Zn8   Zn    Zn3+2 0.749990 0.793780 0.586750 0.962338
Zn9   Zn    Zn3+2 0.336760 0.206240 0.000000 0.955952
Zn10  Zn    Zn3+2 0.336760 0.793760 0.000000 0.955507
Zn11  Zn    Zn3+2 0.836760 0.706240 0.500000 0.955502
Zn12  Zn    Zn3+2 0.836760 0.293760 0.500000 0.955981
Zn13  Zn    Zn3+2 0.163250 0.206230 0.000000 0.953227
Zn14  Zn    Zn3+2 0.163250 0.793770 0.000000 0.953737
Zn15  Zn    Zn3+2 0.663250 0.706230 0.500000 0.953729
Zn16  Zn    Zn3+2 0.663250 0.293770 0.500000 0.953218
O1    O     O_3   0.249990 0.250010 0.000000 -0.477143
O2    O     O_3   0.249990 0.749990 0.000000 -0.477164
O3    O     O_3   0.749990 0.750010 0.500000 -0.477174
O4    O     O_3   0.749990 0.249990 0.500000 -0.477152
O5    O     O_R   0.335430 0.280650 0.146160 -0.636205
O6    O     O_R   0.335430 0.719350 0.853840 -0.634261
O7    O     O_R   0.335430 0.719350 0.146160 -0.637014
O8    O     O_R   0.335430 0.280650 0.853840 -0.635128
O9    O     O_R   0.835430 0.780650 0.646160 -0.637008
O10   O     O_R   0.835430 0.219350 0.353840 -0.634989
O11   O     O_R   0.835430 0.219350 0.646160 -0.636288
O12   O     O_R   0.835430 0.780650 0.353840 -0.634216
O13   O     O_R   0.164550 0.280640 0.853840 -0.632664
O14   O     O_R   0.164550 0.719360 0.146160 -0.631810
O15   O     O_R   0.164550 0.719360 0.853840 -0.632088
O16   O     O_R   0.164550 0.280640 0.146160 -0.631197
O17   O     O_R   0.664550 0.780640 0.353840 -0.632051
O18   O     O_R   0.664550 0.219360 0.646160 -0.631323
O19   O     O_R   0.664550 0.219360 0.353840 -0.632563
O20   O     O_R   0.664550 0.780640 0.646160 -0.631806
O21   O     O_R   0.396160 0.219380 0.914560 -0.661828
O22   O     O_R   0.396160 0.780620 0.085440 -0.660554
O23   O     O_R   0.396160 0.780620 0.914560 -0.647622
O24   O     O_R   0.396160 0.219380 0.085440 -0.646074
O25   O     O_R   0.896160 0.719380 0.414560 -0.647679
O26   O     O_R   0.896160 0.280620 0.585440 -0.645960
O27   O     O_R   0.896160 0.280620 0.414560 -0.661968
O28   O     O_R   0.896160 0.719380 0.585440 -0.660493
O29   O     O_R   0.103840 0.219370 0.085450 -0.651869
O30   O     O_R   0.103840 0.780630 0.914550 -0.650310
O31   O     O_R   0.103840 0.780630 0.085450 -0.665984
O32   O     O_R   0.103840 0.219370 0.914550 -0.664724
O33   O     O_R   0.603840 0.719370 0.585450 -0.665935
O34   O     O_R   0.603840 0.280630 0.414550 -0.664824
O35   O     O_R   0.603840 0.280630 0.585450 -0.651719
O36   O     O_R   0.603840 0.719370 0.414550 -0.650359
O37   O     O_R   0.310730 0.133160 0.000000 -0.639097
O38   O     O_R   0.310730 0.866840 0.000000 -0.639873
O39   O     O_R   0.810730 0.633160 0.500000 -0.639948
O40   O     O_R   0.810730 0.366840 0.500000 -0.639030
O41   O     O_R   0.249970 0.366860 0.060720 -0.644866
O42   O     O_R   0.249970 0.633140 0.939280 -0.652474
O43   O     O_R   0.249970 0.633140 0.060720 -0.643682
O44   O     O_R   0.249970 0.366860 0.939280 -0.651396
O45   O     O_R   0.749970 0.866860 0.560720 -0.643635
O46   O     O_R   0.749970 0.133140 0.439280 -0.651368
O47   O     O_R   0.749970 0.133140 0.560720 -0.644930
O48   O     O_R   0.749970 0.866860 0.439280 -0.652495
O49   O     O_R   0.189290 0.133150 0.000000 -0.641908
O50   O     O_R   0.189290 0.866850 0.000000 -0.641070
O51   O     O_R   0.689290 0.633150 0.500000 -0.641016
O52   O     O_R   0.689290 0.366850 0.500000 -0.641942
C1    C     C_R   0.393786 0.253540 0.136383 0.806668
C2    C     C_R   0.393797 0.746577 0.863598 0.806869
C3    C     C_R   0.393734 0.746533 0.136492 0.798269
C4    C     C_R   0.393751 0.253359 0.863500 0.798274
C5    C     C_R   0.893733 0.753471 0.636492 0.798287
C6    C     C_R   0.893752 0.246650 0.363503 0.798255
C7    C     C_R   0.893782 0.246455 0.636389 0.806710
C8    C     C_R   0.893798 0.753420 0.363598 0.806903
C9    C     C_R   0.106277 0.253383 0.863406 0.800594
C10   C     C_R   0.106222 0.746689 0.136518 0.800203
C11   C     C_R   0.106236 0.746525 0.863503 0.808897
C12   C     C_R   0.106180 0.253399 0.136424 0.808733
C13   C     C_R   0.606235 0.753472 0.363505 0.808873
C14   C     C_R   0.606180 0.246588 0.636423 0.808739
C15   C     C_R   0.606275 0.246624 0.363408 0.800555
C16   C     C_R   0.606225 0.753315 0.636519 0.800145
C17   C     C_R   0.249988 0.109123 0.991552 0.826739
C18   C     C_R   0.250059 0.890881 0.008428 0.826802
C19   C     C_R   0.750065 0.609117 0.508418 0.826799
C20   C     C_R   0.749982 0.390875 0.491542 0.826746
C21   C     C_R   0.249918 0.391275 0.999908 0.733156
C22   C     C_R   0.249919 0.608725 0.999910 0.733093
C23   C     C_R   0.749873 0.891275 0.499908 0.733153
C24   C     C_R   0.749872 0.108725 0.499909 0.733226
C25   C     C_3   0.180801 0.469954 0.039041 -0.380810
C26   C     C_3   0.249673 0.529813 0.920457 -0.342082
C27   C     C_3   0.180818 0.530045 0.039076 -0.380195
C28   C     C_3   0.249703 0.470191 0.920452 -0.341757
C29   C     C_3   0.681194 0.969955 0.539890 -0.379997
C30   C     C_3   0.748623 0.029812 0.420449 -0.340818
C31   C     C_3   0.681187 0.030045 0.539875 -0.380571
C32   C     C_3   0.748610 0.970190 0.420452 -0.341292
H1    H     H_    0.179374 0.455618 0.096087 0.231366
H2    H     H_    0.298717 0.544104 0.890495 0.185634
H3    H     H_    0.179447 0.544348 0.096144 0.231290
H4    H     H_    0.298788 0.455925 0.890530 0.185796
H5    H     H_    0.680507 0.955649 0.596974 0.231901
H6    H     H_    0.797328 0.044074 0.389904 0.186965
H7    H     H_    0.680478 0.044363 0.596951 0.231888
H8    H     H_    0.797297 0.955915 0.389891 0.186773
H9    H     H_    0.130497 0.455452 0.011511 0.150321
H10   H     H_    0.200244 0.544000 0.891085 0.218917
H11   H     H_    0.130501 0.544581 0.011601 0.150220
H12   H     H_    0.200317 0.455981 0.891030 0.218912
H13   H     H_    0.630542 0.955427 0.513009 0.150087
H14   H     H_    0.698855 0.044027 0.391652 0.217931
H15   H     H_    0.630539 0.044564 0.512973 0.150172
H16   H     H_    0.698823 0.955988 0.391680 0.217888
H17   H     H_    0.113479 0.918174 0.071238 0.159260
H18   H     H_    0.112034 0.081662 0.931044 0.160245
H19   H     H_    0.611931 0.418348 0.431183 0.160285
H20   H     H_    0.613581 0.581829 0.571382 0.159210
H21   H     H_    0.320519 0.455641 0.095981 0.199774
H22   H     H_    0.369261 0.544545 0.011199 0.145936
H23   H     H_    0.320575 0.544371 0.095950 0.200071
H24   H     H_    0.369258 0.455429 0.011260 0.145956
H25   H     H_    0.821641 0.955621 0.595112 0.199300
H26   H     H_    0.869309 0.044556 0.509800 0.146185
H27   H     H_    0.821623 0.044367 0.595124 0.198918
H28   H     H_    0.869309 0.955448 0.509778 0.146120
C33   C     C_3   0.319016 0.469956 0.038887 -0.389649
C34   C     C_3   0.319030 0.530039 0.038867 -0.389151
C35   C     C_3   0.819411 0.969957 0.538045 -0.389474
C36   C     C_3   0.819406 0.030040 0.538053 -0.390050
C37   C     C_3   0.249872 0.449046 0.999591 0.158491
C38   C     C_3   0.249874 0.550954 0.999596 0.158221
C39   C     C_3   0.749783 0.949046 0.499592 0.157686
C40   C     C_3   0.749783 0.050954 0.499590 0.157910
H29   H     H_    0.900464 0.135530 0.928554 0.141720
H30   H     H_    0.904006 0.869263 0.075583 0.141900
H31   H     H_    0.899128 0.862860 0.929815 0.142503
H32   H     H_    0.902797 0.132121 0.074447 0.142807
H33   H     H_    0.399289 0.636930 0.429647 0.142511
H34   H     H_    0.402416 0.367398 0.574000 0.142796
H35   H     H_    0.400742 0.364857 0.428218 0.141610
H36   H     H_    0.403855 0.630936 0.575414 0.141968
C41   C     C_R   0.095391 0.336357 0.750079 -0.210314
C42   C     C_R   0.092321 0.661989 0.246277 -0.210421
C43   C     C_R   0.095154 0.663290 0.750468 -0.210580
C44   C     C_R   0.092031 0.338364 0.245854 -0.210634
C45   C     C_R   0.595025 0.836780 0.250603 -0.210615
C46   C     C_R   0.592296 0.161759 0.746157 -0.210629
C47   C     C_R   0.595202 0.163536 0.250305 -0.210347
C48   C     C_R   0.592439 0.837956 0.746404 -0.210337
C49   C     C_R   0.113073 0.362617 0.685553 0.349782
C50   C     C_R   0.109197 0.634166 0.309689 0.347313
C51   C     C_R   0.112514 0.636837 0.686011 0.350188
C52   C     C_R   0.108580 0.366385 0.309177 0.348098
C53   C     C_R   0.612335 0.863303 0.186191 0.350115
C54   C     C_R   0.608939 0.133878 0.809584 0.348142
C55   C     C_R   0.612825 0.137169 0.185851 0.349697
C56   C     C_R   0.609324 0.865732 0.809851 0.347347
C57   C     C_R   0.585161 0.844099 0.120500 -0.247565
C58   C     C_R   0.582396 0.152327 0.875960 -0.249084
C59   C     C_R   0.585718 0.156416 0.120148 -0.230091
C60   C     C_R   0.582828 0.847274 0.876245 -0.230664
C61   C     C_R   0.085921 0.343314 0.619902 -0.230048
C62   C     C_R   0.082744 0.652604 0.376112 -0.230676
C63   C     C_R   0.085308 0.656076 0.620351 -0.247445
C64   C     C_R   0.082094 0.348015 0.375617 -0.249293
C65   C     C_R   0.536780 0.802253 0.120102 -0.197066
C66   C     C_R   0.535237 0.194868 0.877893 -0.197256
C67   C     C_R   0.537096 0.198127 0.119772 -0.189906
C68   C     C_R   0.535498 0.804827 0.878180 -0.189565
C69   C     C_R   0.037200 0.301663 0.619641 -0.189950
C70   C     C_R   0.035451 0.695072 0.378105 -0.189610
C71   C     C_R   0.036855 0.697881 0.620021 -0.197091
C72   C     C_R   0.035073 0.305404 0.377706 -0.197294
C73   C     C_R   0.513896 0.778362 0.185619 0.091272
C74   C     C_R   0.512918 0.220247 0.813256 0.091875
C75   C     C_R   0.514129 0.221946 0.185300 0.090505
C76   C     C_R   0.513126 0.779483 0.813546 0.090948
C77   C     C_R   0.014189 0.277957 0.685233 0.090485
C78   C     C_R   0.013091 0.720468 0.313505 0.091005
C79   C     C_R   0.013940 0.721701 0.685576 0.091256
C80   C     C_R   0.012826 0.279876 0.313161 0.091940
C81   C     C_R   0.051885 0.290636 0.749513 0.023447
C82   C     C_R   0.050320 0.708363 0.248744 0.023273
C83   C     C_R   0.051689 0.709030 0.749838 0.024470
C84   C     C_R   0.050100 0.291965 0.248410 0.024344
C85   C     C_R   0.551627 0.791010 0.249900 0.024472
C86   C     C_R   0.550227 0.208103 0.748545 0.024385
C87   C     C_R   0.551795 0.209306 0.249614 0.023443
C88   C     C_R   0.550378 0.791606 0.748803 0.023268
C89   C     C_R   0.455566 0.741912 0.188475 -0.202296
C90   C     C_R   0.455702 0.257698 0.811616 -0.202249
C91   C     C_R   0.455796 0.258359 0.188105 -0.206590
C92   C     C_R   0.455922 0.742058 0.811964 -0.206577
C93   C     C_R   0.955773 0.241621 0.688131 -0.206566
C94   C     C_R   0.955929 0.757930 0.311970 -0.206596
C95   C     C_R   0.955555 0.758104 0.688484 -0.202286
C96   C     C_R   0.955726 0.242332 0.311645 -0.202234
C97   C     C_R   0.448318 0.709029 0.250018 0.068981
C98   C     C_R   0.449419 0.291629 0.751144 0.068889
C99   C     C_R   0.448810 0.291495 0.249363 0.069981
C100  C     C_R   0.449902 0.707887 0.751777 0.069807
C101  C     C_R   0.948705 0.208574 0.749482 0.069911
C102  C     C_R   0.949951 0.792145 0.251830 0.069835
C103  C     C_R   0.948257 0.790936 0.750076 0.068882
C104  C     C_R   0.949558 0.208288 0.251298 0.068910
C105  C     C_R   0.986416 0.221121 0.813934 0.082362
C106  C     C_R   0.987274 0.780167 0.186940 0.082844
C107  C     C_R   0.985996 0.778274 0.814461 0.081537
C108  C     C_R   0.986881 0.220373 0.186455 0.081904
C109  C     C_R   0.486037 0.721670 0.314421 0.081541
C110  C     C_R   0.486778 0.279488 0.686342 0.081894
C111  C     C_R   0.486490 0.278988 0.313849 0.082376
C112  C     C_R   0.487238 0.719888 0.686903 0.082814
C113  C     C_R   0.044548 0.257803 0.811214 -0.192816
C114  C     C_R   0.044199 0.742445 0.188368 -0.192623
C115  C     C_R   0.044377 0.741855 0.811519 -0.197142
C116  C     C_R   0.044024 0.257873 0.188073 -0.197045
C117  C     C_R   0.544365 0.758134 0.311531 -0.197161
C118  C     C_R   0.544040 0.242087 0.688087 -0.197073
C119  C     C_R   0.544534 0.242224 0.311227 -0.192823
C120  C     C_R   0.544212 0.757569 0.688380 -0.192627
C121  C     C_R   0.404887 0.663278 0.249325 -0.124469
C122  C     C_R   0.407240 0.337940 0.753373 -0.126083
C123  C     C_R   0.405707 0.337393 0.248223 -0.124500
C124  C     C_R   0.408034 0.661453 0.754439 -0.125829
C125  C     C_R   0.905494 0.162726 0.748478 -0.124452
C126  C     C_R   0.908137 0.838601 0.254559 -0.125846
C127  C     C_R   0.904761 0.836660 0.749454 -0.124283
C128  C     C_R   0.907519 0.161922 0.253702 -0.126115
C129  C     C_R   0.388370 0.637027 0.313514 -0.115183
C130  C     C_R   0.391507 0.365513 0.690093 -0.111419
C131  C     C_R   0.389616 0.364129 0.312119 -0.115750
C132  C     C_R   0.392721 0.633428 0.691455 -0.111893
C133  C     C_R   0.889331 0.136108 0.812453 -0.115674
C134  C     C_R   0.892866 0.866688 0.191618 -0.111985
C135  C     C_R   0.888203 0.862846 0.813683 -0.115034
C136  C     C_R   0.891883 0.134205 0.190529 -0.111503
C137  C     C_R   0.915885 0.154503 0.878295 -0.164042
C138  C     C_R   0.918860 0.849125 0.125118 -0.164328
C139  C     C_R   0.914802 0.844222 0.879389 -0.149181
C140  C     C_R   0.917879 0.151977 0.124133 -0.148351
C141  C     C_R   0.414938 0.655618 0.379248 -0.148949
C142  C     C_R   0.417558 0.347657 0.623761 -0.148431
C143  C     C_R   0.416121 0.345793 0.378014 -0.163947
C144  C     C_R   0.418734 0.651026 0.624979 -0.164348
C145  C     C_R   0.963758 0.196694 0.879329 -0.136202
C146  C     C_R   0.965352 0.806190 0.122486 -0.137576
C147  C     C_R   0.963133 0.802291 0.880061 -0.128872
C148  C     C_R   0.964759 0.194705 0.121814 -0.129903
C149  C     C_R   0.463203 0.697585 0.379985 -0.128904
C150  C     C_R   0.464581 0.305001 0.621604 -0.129889
C151  C     C_R   0.463882 0.303537 0.379172 -0.136260
C152  C     C_R   0.465283 0.693932 0.622410 -0.137543
H37   H     H_    0.113987 0.352922 0.800788 0.191689
H38   H     H_    0.110572 0.646324 0.194870 0.189553
H39   H     H_    0.113895 0.646838 0.801202 0.190246
H40   H     H_    0.110431 0.353902 0.194420 0.188088
H41   H     H_    0.613754 0.853194 0.301364 0.190113
H42   H     H_    0.610719 0.146141 0.694779 0.188247
H43   H     H_    0.613774 0.147027 0.301061 0.191490
H44   H     H_    0.610703 0.853655 0.695021 0.189579
H45   H     H_    0.600334 0.861912 0.069350 0.177414
H46   H     H_    0.597147 0.133422 0.926463 0.178538
H47   H     H_    0.601080 0.138712 0.068980 0.177816
H48   H     H_    0.597736 0.866106 0.926754 0.178844
H49   H     H_    0.101315 0.360934 0.568685 0.177778
H50   H     H_    0.097638 0.633730 0.426596 0.178928
H51   H     H_    0.100512 0.638318 0.569172 0.177394
H52   H     H_    0.096786 0.367031 0.426051 0.178640
H53   H     H_    0.519773 0.787838 0.067628 0.168100
H54   H     H_    0.519008 0.208644 0.930926 0.170082
H55   H     H_    0.519969 0.212531 0.067322 0.164921
H56   H     H_    0.519175 0.791068 0.931199 0.166780
H57   H     H_    0.020015 0.287215 0.567232 0.164809
H58   H     H_    0.019155 0.708806 0.431145 0.166845
H59   H     H_    0.019809 0.712325 0.567572 0.168009
H60   H     H_    0.018915 0.291696 0.430793 0.170309
H61   H     H_    0.384921 0.646437 0.199277 0.161156
H62   H     H_    0.387580 0.354103 0.803988 0.158335
H63   H     H_    0.385693 0.353955 0.198004 0.158967
H64   H     H_    0.388311 0.645564 0.805204 0.156179
H65   H     H_    0.885456 0.146104 0.698310 0.159279
H66   H     H_    0.888424 0.854458 0.305346 0.156058
H67   H     H_    0.884779 0.853534 0.699433 0.161380
H68   H     H_    0.887887 0.145840 0.304377 0.158047
H69   H     H_    0.854865 0.101852 0.811037 0.182798
H70   H     H_    0.859440 0.901422 0.194308 0.182840
H71   H     H_    0.853449 0.896962 0.812551 0.183572
H72   H     H_    0.858219 0.099579 0.192978 0.183706
H73   H     H_    0.353666 0.602887 0.312330 0.183230
H74   H     H_    0.357737 0.400094 0.692412 0.184240
H75   H     H_    0.355235 0.398428 0.310604 0.182279
H76   H     H_    0.359250 0.598714 0.694096 0.183172
H77   H     H_    0.980562 0.210818 0.932008 0.150664
H78   H     H_    0.981427 0.792765 0.069243 0.152846
H79   H     H_    0.980209 0.788024 0.932591 0.147139
H80   H     H_    0.981055 0.208270 0.068697 0.149216
H81   H     H_    0.480241 0.711826 0.432539 0.147204
H82   H     H_    0.480955 0.291367 0.568543 0.148997
H83   H     H_    0.480622 0.289460 0.431896 0.150785
H84   H     H_    0.481386 0.707386 0.569189 0.152764
H85   H     H_    0.997271 0.040390 0.965843 0.141944
H86   H     H_    0.998000 0.959480 0.038791 0.141372
H87   H     H_    0.498054 0.540530 0.539094 0.141434
H88   H     H_    0.497219 0.459624 0.466142 0.141879
C153  C     C_R   0.384638 0.046952 0.961455 -0.131899
C154  C     C_R   0.385410 0.953157 0.035950 -0.131809
C155  C     C_R   0.885474 0.546824 0.535704 -0.131753
C156  C     C_R   0.884571 0.453032 0.461209 -0.131877
C157  C     C_R   0.451043 0.022971 0.978029 -0.112206
C158  C     C_R   0.451455 0.977148 0.018017 -0.113490
C159  C     C_R   0.951489 0.522831 0.517654 -0.113579
C160  C     C_R   0.951005 0.477009 0.477666 -0.112187
C161  C     C_R   0.317507 0.974754 0.013657 0.078163
C162  C     C_R   0.317223 0.025277 0.985005 0.077689
C163  C     C_R   0.817199 0.474715 0.484864 0.077669
C164  C     C_R   0.817529 0.525237 0.513515 0.078178
C165  C     C_R   0.250239 0.947507 0.019079 -0.221433
C166  C     C_R   0.249897 0.052502 0.980857 -0.221382
C167  C     C_R   0.749869 0.447494 0.480823 -0.221397
C168  C     C_R   0.750266 0.552487 0.519046 -0.221411
C169  C     C_R   0.182936 0.974744 0.014941 0.076455
C170  C     C_R   0.182658 0.025242 0.986229 0.076931
C171  C     C_R   0.682637 0.474757 0.486282 0.076971
C172  C     C_R   0.682956 0.525254 0.514994 0.076412
C173  C     C_R   0.115526 0.953095 0.038525 -0.117034
C174  C     C_R   0.114778 0.046822 0.963864 -0.116725
C175  C     C_R   0.614724 0.453184 0.464005 -0.116709
C176  C     C_R   0.615580 0.546908 0.538669 -0.117059
C177  C     C_R   0.049135 0.977057 0.021877 -0.143188
C178  C     C_R   0.048736 0.022846 0.981812 -0.143787
C179  C     C_R   0.548707 0.477164 0.482043 -0.143760
C180  C     C_R   0.549165 0.522950 0.522110 -0.143149
H89   H     H_    0.386679 0.081901 0.928804 0.163261
H90   H     H_    0.388177 0.918300 0.068731 0.164176
H91   H     H_    0.888305 0.581670 0.568499 0.164259
H92   H     H_    0.886549 0.418073 0.428573 0.163160
H93   H     H_    0.502180 0.040557 0.961118 0.173649
H94   H     H_    0.502934 0.959596 0.033947 0.173885
H95   H     H_    0.002996 0.540378 0.533500 0.173843
H96   H     H_    0.002113 0.459421 0.460671 0.173556
N1    N     N_R   0.159833 0.407744 0.686583 0.212508
O53   O     O_R   0.173888 0.433075 0.626924 -0.344653
O54   O     O_R   0.189351 0.423687 0.747002 -0.411373
N2    N     N_R   0.154610 0.588390 0.306806 0.212931
O55   O     O_R   0.169025 0.562205 0.365656 -0.337974
O56   O     O_R   0.182629 0.572742 0.245514 -0.402734
N3    N     N_R   0.159020 0.591579 0.687104 0.211900
O57   O     O_R   0.172412 0.565900 0.627587 -0.347491
O58   O     O_R   0.188914 0.575835 0.747440 -0.411244
N4    N     N_R   0.153710 0.412294 0.306203 0.212324
O59   O     O_R   0.167993 0.438565 0.365000 -0.340937
O60   O     O_R   0.181528 0.428015 0.244874 -0.402809
N5    N     N_R   0.658763 0.908598 0.187356 0.211986
O61   O     O_R   0.672125 0.934329 0.127877 -0.347119
O62   O     O_R   0.688614 0.924322 0.247721 -0.411029
N6    N     N_R   0.654212 0.088031 0.806777 0.212217
O63   O     O_R   0.668505 0.061851 0.865654 -0.341404
O64   O     O_R   0.682153 0.072276 0.745519 -0.403169
N7    N     N_R   0.659489 0.091991 0.187001 0.212628
O65   O     O_R   0.673446 0.066541 0.127418 -0.343994
O66   O     O_R   0.689016 0.076120 0.247450 -0.411269
N8    N     N_R   0.654789 0.911483 0.807034 0.212703
O67   O     O_R   0.668736 0.937861 0.865833 -0.337983
O68   O     O_R   0.683354 0.926897 0.745872 -0.403481

loop_
_geom_bond_atom_site_label_1
_geom_bond_atom_site_label_2
_geom_bond_distance
_ccdc_geom_bond_type
N5    O61   1.301630 A    
C87   C119  1.420742 A    
C94   C102  1.417612 A    
C62   H50   1.082516 S    
C109  C149  1.418335 A    
C148  H80   1.079262 S    
C172  C176  1.418517 A    
C149  H81   1.079570 S    
C99   C123  1.418455 A    
C75   C91   1.418783 A    
C177  C178  1.388920 A    
C97   C121  1.418583 A    
O26   C7    1.285225 A    
C73   C89   1.419435 A    
C66   C74   1.416177 A    
C130  H74   1.082720 S    
C99   C111  1.408469 A    
C4    C90   1.483956 S    
O30   C11   1.285522 A    
C22   C38   1.485320 S    
C30   H14   1.113371 S    
C91   C99   1.418412 A    
C136  C140  1.387687 A    
C89   C97   1.419108 A    
C153  H89   1.081446 S    
Zn12  O26   1.939159 S    
C110  C118  1.420661 A    
C51   C63   1.396516 A    
H34   C142  1.082570 S    
C169  C173  1.418510 A    
C92   C100  1.417671 A    
C43   C51   1.403159 A    
C76   C92   1.420263 A    
C32   C39   1.554145 S    
C29   H5    1.112708 S    
C96   C104  1.418160 A    
C34   C38   1.550733 S    
C44   H40   1.080536 S    
O11   C7    1.285509 A    
C45   H41   1.080279 S    
O34   C15   1.285099 A    
C136  H72   1.082685 S    
C163  C167  1.416327 A    
C62   C70   1.392397 A    
C50   N2    1.440515 S    
C137  C145  1.393113 A    
Zn14  O30   1.939434 S    
Zn1   O44   1.938964 S    
C25   H1    1.112544 S    
C153  C157  1.393728 A    
Zn2   O43   1.938964 S    
C108  C116  1.420755 A    
C141  C149  1.393077 A    
Zn5   O48   1.938964 S    
H32   C140  1.082531 S    
Zn6   O47   1.938964 S    
C112  C120  1.421602 A    
Zn7   O46   1.938941 S    
O16   C12   1.287624 A    
C60   H48   1.082519 S    
C11   C115  1.484643 S    
C42   C50   1.402604 A    
C104  C108  1.408333 A    
C155  C164  1.418832 A    
Zn12  O4    1.943014 S    
Zn1   O13   1.934252 S    
C156  C163  1.418638 A    
C98   C110  1.408344 A    
C26   C28   1.532890 S    
Zn4   O16   1.934111 S    
O41   C21   1.282727 A    
C104  C128  1.418426 A    
C9    C113  1.484789 S    
C33   C37   1.550753 S    
C6    C96   1.483923 S    
C28   H4    1.113665 S    
C125  C133  1.392949 A    
C164  C168  1.417317 A    
C13   C117  1.484630 S    
C71   C79   1.415703 A    
C154  C158  1.393842 A    
C72   C80   1.416175 A    
C71   H59   1.079643 S    
C14   C118  1.484316 S    
C44   C84   1.418158 A    
C45   C85   1.418627 A    
C30   H6    1.113811 S    
Zn10  O22   1.939159 S    
C105  C113  1.420576 A    
C132  H76   1.082706 S    
C48   C88   1.418279 A    
C133  H69   1.082703 S    
O25   C8    1.283196 A    
Zn13  O29   1.939294 S    
C129  C141  1.387800 A    
Zn6   O4    1.952660 S    
Zn10  O2    1.943014 S    
N2    O55   1.301707 A    
C31   C40   1.551127 S    
O29   C12   1.283185 A    
C167  C171  1.416896 A    
Zn15  O33   1.939294 S    
C18   C165  1.469009 S    
C151  H83   1.079368 S    
C152  H84   1.079125 S    
C67   H55   1.079740 S    
C179  C180  1.388924 A    
C80   C84   1.406499 A    
C75   C87   1.406468 A    
C26   H2    1.113670 S    
C41   C81   1.418689 A    
C135  C139  1.387806 A    
O48   C23   1.279813 A    
C55   N7    1.440537 S    
C130  C142  1.387713 A    
C171  C175  1.418649 A    
C155  C159  1.393864 A    
C132  C144  1.387610 A    
C101  C125  1.418462 A    
N3    O57   1.301666 A    
Zn16  O35   1.939288 S    
C77   C93   1.418702 A    
C70   C78   1.416032 A    
C82   C114  1.419075 A    
Zn7   O10   1.934068 S    
O33   C16   1.283033 A    
C25   C37   1.550892 S    
C86   C118  1.418793 A    
Zn8   O20   1.934111 S    
O40   C20   1.278969 A    
C52   C64   1.396602 A    
C1    C91   1.483946 S    
H85   C178  1.082754 S    
C102  C106  1.408470 A    
N8    O67   1.301823 A    
C129  H73   1.082711 S    
C80   C96   1.420917 A    
Zn5   O17   1.934252 S    
H33   C141  1.082553 S    
H31   C139  1.082549 S    
C150  H82   1.079310 S    
C57   C65   1.391952 A    
C15   C119  1.484782 S    
C103  C107  1.408352 A    
C67   C75   1.415544 A    
O28   C5    1.285369 A    
C65   C73   1.415710 A    
N6    O63   1.301602 A    
C27   H3    1.112619 S    
C32   H8    1.113800 S    
Zn8   O3    1.952707 S    
C21   C37   1.485310 S    
O38   C18   1.277739 A    
C146  H78   1.079104 S    
O5    C1    1.285645 A    
C47   C55   1.403153 A    
O32   C9    1.285228 A    
C153  C162  1.418648 A    
H25   C35   1.113329 S    
H26   C36   1.113170 S    
C36   C40   1.550832 S    
Zn15  O51   1.938084 S    
C111  C151  1.418657 A    
Zn11  O28   1.939181 S    
Zn12  O40   1.938042 S    
C20   C167  1.468974 S    
H17   C173  1.081461 S    
H23   C34   1.113215 S    
C42   H38   1.080491 S    
N1    O54   1.301437 A    
C29   C39   1.551131 S    
C155  H91   1.081314 S    
H28   C35   1.113159 S    
O8    C4    1.287354 A    
C63   C71   1.391968 A    
C33   C34   1.544753 S    
C122  H62   1.080894 S    
C64   C72   1.392286 A    
C49   C61   1.396639 A    
C123  H63   1.080849 S    
O50   C18   1.279204 A    
O37   C17   1.278893 A    
C154  C161  1.418797 A    
C107  C115  1.419626 A    
C100  C112  1.408464 A    
Zn1   O1    1.952662 S    
C122  C130  1.392861 A    
C133  C137  1.387712 A    
Zn2   O14   1.934110 S    
C53   N5    1.440444 S    
C68   C76   1.416024 A    
C166  C170  1.416866 A    
C45   C53   1.403133 A    
H29   C137  1.082553 S    
C157  H93   1.082846 S    
O9    C5    1.285528 A    
C43   H39   1.080272 S    
O36   C13   1.285426 A    
C60   C68   1.392385 A    
O13   C9    1.285915 A    
Zn1   O8    1.934067 S    
N5    O62   1.301388 A    
N4    O59   1.301589 A    
C52   N4    1.440444 S    
Zn2   O7    1.934209 S    
C173  C177  1.393595 A    
Zn3   O6    1.934068 S    
O18   C14   1.287420 A    
O31   C10   1.282914 A    
C106  C146  1.419008 A    
C25   H9    1.113020 S    
C66   H54   1.079305 S    
C110  C150  1.418687 A    
C93   C101  1.418502 A    
C32   H16   1.113333 S    
C134  H70   1.082693 S    
C98   C122  1.418504 A    
Zn15  O3    1.942714 S    
C74   C90   1.420845 A    
Zn11  O3    1.942977 S    
C61   H49   1.082502 S    
C56   C60   1.396685 A    
Zn16  O34   1.939434 S    
C72   H60   1.079267 S    
C31   H15   1.113145 S    
C74   C86   1.406507 A    
C3    C89   1.484127 S    
Zn2   O2    1.952660 S    
C90   C98   1.418326 A    
C78   C82   1.406352 A    
H87   C180  1.082742 S    
C109  C117  1.419671 A    
C170  C174  1.418632 A    
N7    O65   1.301672 A    
C121  H61   1.080738 S    
C108  C148  1.418687 A    
C59   C67   1.392048 A    
C47   H43   1.080227 S    
C48   H44   1.080488 S    
C84   C116  1.418657 A    
C69   C77   1.415522 A    
C159  C160  1.388918 A    
C112  C152  1.419009 A    
Zn8   O9    1.934188 S    
C127  H67   1.080732 S    
C24   C40   1.485311 S    
C56   N8    1.440521 S    
C128  H68   1.080893 S    
C68   H56   1.079403 S    
C19   C168  1.469019 S    
C69   H57   1.079768 S    
C7    C93   1.483959 S    
H20   C176  1.081476 S    
C162  C166  1.416400 A    
C138  C146  1.393233 A    
O7    C3    1.285624 A    
C65   H53   1.079625 S    
C88   C120  1.419146 A    
C95   C103  1.419176 A    
C16   C120  1.484383 S    
O19   C15   1.286046 A    
C83   C115  1.420386 A    
C142  C150  1.393223 A    
C43   C83   1.418651 A    
C41   H37   1.080204 S    
C58   H46   1.082511 S    
C27   C38   1.550899 S    
C147  H79   1.079587 S    
Zn6   O18   1.934110 S    
Zn10  O23   1.939044 S    
C79   C83   1.406596 A    
C58   C66   1.392322 A    
C168  C172  1.416167 A    
N2    O56   1.301768 A    
Zn15  O36   1.939413 S    
O15   C11   1.285485 A    
O42   C22   1.279813 A    
C97   C109  1.408345 A    
C28   C37   1.553977 S    
C46   H42   1.080534 S    
Zn4   O1    1.952707 S    
C30   C32   1.532885 S    
Zn9   O37   1.938061 S    
C35   C36   1.544748 S    
O12   C8    1.287469 A    
H86   C177  1.082737 S    
C53   C57   1.396510 A    
Zn11  O39   1.938061 S    
C46   C54   1.402674 A    
C59   H47   1.082499 S    
C42   C82   1.418234 A    
H21   C33   1.113218 S    
N3    O58   1.301381 A    
Zn5   O3    1.952662 S    
Zn13  O1    1.942714 S    
C31   H7    1.112672 S    
C121  C129  1.393030 A    
C139  C147  1.393083 A    
C171  C172  1.401639 A    
C8    C94   1.483770 S    
C10   C114  1.484377 S    
C157  C158  1.388915 A    
C26   H10   1.113187 S    
H24   C33   1.113033 S    
Zn9   O24   1.939181 S    
C169  C170  1.401635 A    
C159  H95   1.082866 S    
C17   C166  1.468982 S    
C163  C164  1.401814 A    
Zn3   O42   1.938941 S    
C161  C165  1.417224 A    
C23   C39   1.485310 S    
Zn7   O4    1.952708 S    
O21   C4    1.283481 A    
C50   C62   1.396721 A    
C44   C52   1.402595 A    
C175  C179  1.393700 A    
C105  C145  1.418627 A    
C143  C151  1.393139 A    
C145  H77   1.079398 S    
C48   C56   1.402616 A    
C102  C126  1.418335 A    
Zn14  O2    1.942677 S    
C49   N1    1.440526 S    
C78   C94   1.420289 A    
N6    O64   1.301526 A    
C160  H96   1.082848 S    
Zn13  O49   1.938084 S    
O44   C21   1.279806 A    
C28   H12   1.113217 S    
C81   C113  1.420804 A    
C63   H51   1.082492 S    
Zn12  O27   1.939044 S    
C35   C39   1.550821 S    
C64   H52   1.082480 S    
C85   C117  1.420316 A    
C46   C86   1.418221 A    
C61   C69   1.392032 A    
C30   C40   1.554169 S    
H19   C175  1.081358 S    
Zn3   O2    1.952708 S    
C127  C135  1.393044 A    
C54   N6    1.440503 S    
H27   C36   1.113346 S    
O10   C6    1.287552 A    
O46   C24   1.279792 A    
Zn4   O41   1.938941 S    
Zn16  O52   1.938103 S    
C100  C124  1.418366 A    
H88   C179  1.082764 S    
C51   N3    1.440484 S    
H30   C138  1.082557 S    
Zn16  O4    1.942677 S    
Zn8   O45   1.938941 S    
C41   C49   1.403157 A    
C124  H64   1.080979 S    
O27   C6    1.283304 A    
C47   C87   1.418694 A    
C125  H65   1.080821 S    
O39   C19   1.277667 A    
N7    O66   1.301393 A    
C158  H94   1.082854 S    
C131  C143  1.387709 A    
C29   C31   1.544928 S    
C156  H92   1.081467 S    
C131  H75   1.082715 S    
C73   C85   1.406600 A    
O24   C1    1.285086 A    
C76   C88   1.406366 A    
C57   H45   1.082487 S    
C77   C81   1.406465 A    
C79   C95   1.419377 A    
C156  C160  1.393729 A    
O43   C22   1.282725 A    
O47   C24   1.282743 A    
Zn3   O15   1.934231 S    
Zn5   O12   1.934067 S    
Zn6   O11   1.934209 S    
C101  C105  1.408469 A    
C126  H66   1.080976 S    
Zn9   O21   1.939037 S    
Zn14  O50   1.938103 S    
C135  H71   1.082727 S    
O35   C14   1.283357 A    
H18   C174  1.081356 S    
Zn9   O1    1.942977 S    
C70   H58   1.079398 S    
N4    O60   1.301510 A    
H36   C144  1.082575 S    
O52   C20   1.277950 A    
C55   C59   1.396626 A    
C126  C134  1.392734 A    
C29   H13   1.113131 S    
H35   C143  1.082561 S    
C154  H90   1.081324 S    
O22   C3    1.285265 A    
C140  C148  1.393188 A    
Zn7   O19   1.934231 S    
C176  C180  1.393603 A    
C111  C119  1.420685 A    
C12   C116  1.484296 S    
Zn13  O32   1.939413 S    
C144  C152  1.393247 A    
C2    C92   1.483780 S    
O49   C17   1.278036 A    
Zn14  O31   1.939288 S    
C123  C131  1.392948 A    
C134  C138  1.387598 A    
O51   C19   1.279288 A    
C106  C114  1.421640 A    
C27   H11   1.113022 S    
Zn4   O5    1.934188 S    
C103  C127  1.418612 A    
O20   C16   1.287879 A    
C165  C169  1.416174 A    
C5    C95   1.484130 S    
C26   C38   1.553985 S    
O23   C2    1.283291 A    
O6    C2    1.287430 A    
Zn11  O25   1.939037 S    
C161  C162  1.401816 A    
Zn10  O38   1.938042 S    
N8    O68   1.301813 A    
C124  C132  1.392767 A    
C54   C58   1.396623 A    
O14   C10   1.287940 A    
C25   C27   1.544946 S    
C174  C178  1.393682 A    
C128  C136  1.392777 A    
C107  C147  1.418329 A    
N1    O53   1.301658 A    
O17   C13   1.285569 A    
H22   C34   1.113034 S    
O45   C23   1.282725 A    
