data_mof_unit_45607.cif
_audit_creation_date              2012-12-10T17:17:51-0500
_audit_creation_method            fapswitch 2.2
_symmetry_space_group_name_H-M    P1
_symmetry_Int_Tables_number       1
_space_group_crystal_system       triclinic
_cell_length_a                    14.572567
_cell_length_b                    16.108746
_cell_length_c                    9.678324
_cell_angle_alpha                 91.949637
_cell_angle_beta                  89.212258
_cell_angle_gamma                 89.583162
_cell_volume                      2270.3477787

loop_
_atom_site_label
_atom_site_type_symbol
_atom_type_description
_atom_site_fract_x
_atom_site_fract_y
_atom_site_fract_z
_atom_type_partial_charge
C1    C     C_R   0.375610 0.886718 0.498700 0.798630
C2    C     C_R   0.380648 0.117943 0.502378 0.775537
C3    C     C_R   0.875610 0.386718 0.498700 0.798630
C4    C     C_R   0.880648 0.617942 0.502378 0.775537
C5    C     C_R   0.234542 0.179435 0.438124 -0.183876
C6    C     C_R   0.286324 0.777311 0.375832 -0.177383
C7    C     C_R   0.734542 0.679435 0.438124 -0.183877
C8    C     C_R   0.786324 0.277311 0.375832 -0.177383
C9    C     C_R   0.673983 0.745922 0.433975 -0.152176
C10   C     C_R   0.724002 0.212537 0.378522 -0.153186
C11   C     C_R   0.173983 0.245922 0.433975 -0.152175
C12   C     C_R   0.224002 0.712537 0.378522 -0.153186
C13   C     C_R   0.698024 0.823688 0.490266 -0.087564
C14   C     C_R   0.681959 0.190772 0.503826 -0.076536
C15   C     C_R   0.198024 0.323688 0.490266 -0.087564
C16   C     C_R   0.181959 0.690772 0.503826 -0.076535
C17   C     C_R   0.664182 0.975696 0.139618 -0.113499
C18   C     C_R   0.164182 0.475696 0.139618 -0.113498
C19   C     C_R   0.743307 0.950777 0.068602 -0.161120
C20   C     C_R   0.243307 0.450777 0.068602 -0.161121
C21   C     C_R   0.743356 0.946283 0.926201 -0.155529
C22   C     C_R   0.243356 0.446283 0.926201 -0.155528
C23   C     C_R   0.665494 0.970215 0.855190 -0.087185
C24   C     C_R   0.165494 0.470215 0.855190 -0.087185
C25   C     C_R   0.580621 0.983981 0.923678 0.170400
C26   C     C_R   0.080621 0.483981 0.923678 0.170400
C27   C     C_R   0.580508 0.985712 0.072313 0.182453
C28   C     C_R   0.080508 0.485712 0.072313 0.182453
C29   C     C_R   0.423558 0.015870 0.078497 -0.059563
C30   C     C_R   0.923558 0.515870 0.078497 -0.059563
C31   C     C_R   0.617400 0.120382 0.501580 0.802352
C32   C     C_R   0.625250 0.887031 0.497656 0.810345
C33   C     C_R   0.117400 0.620382 0.501580 0.802352
C34   C     C_R   0.125250 0.387031 0.497656 0.810345
C35   C     C_R   0.423695 0.019881 0.932804 0.226325
C36   C     C_R   0.923695 0.519881 0.932804 0.226325
C37   C     C_R   0.423636 0.274085 0.647230 -0.164606
C38   C     C_R   0.229843 0.878565 0.715572 -0.130691
C39   C     C_R   0.923636 0.774085 0.647230 -0.164606
C40   C     C_R   0.729843 0.378566 0.715572 -0.130691
C41   C     C_R   0.452563 0.352100 0.692209 -0.198171
C42   C     C_R   0.186193 0.859605 0.839844 -0.177400
C43   C     C_R   0.952563 0.852100 0.692209 -0.198171
C44   C     C_R   0.686193 0.359605 0.839844 -0.177400
C45   C     C_R   0.906972 0.922093 0.649988 -0.134355
C46   C     C_R   0.663105 0.277323 0.863427 -0.194072
C47   C     C_R   0.406972 0.422093 0.649987 -0.134355
C48   C     C_R   0.163105 0.777323 0.863427 -0.194072
C49   C     C_R   0.826841 0.914470 0.573581 0.083753
C50   C     C_R   0.681578 0.216256 0.760375 0.183690
C51   C     C_R   0.326841 0.414470 0.573581 0.083753
C52   C     C_R   0.181578 0.716256 0.760375 0.183690
C53   C     C_R   0.786741 0.835573 0.547767 0.049639
C54   C     C_R   0.698223 0.240893 0.624463 0.053360
C55   C     C_R   0.286741 0.335573 0.547767 0.049639
C56   C     C_R   0.198223 0.740892 0.624463 0.053360
C57   C     C_R   0.342007 0.264704 0.570694 0.101293
C58   C     C_R   0.242767 0.816976 0.610904 0.081399
C59   C     C_R   0.842007 0.764704 0.570694 0.101293
C60   C     C_R   0.742767 0.316976 0.610904 0.081398
C61   C     C_R   0.317190 0.187781 0.508224 -0.063230
C62   C     C_R   0.298874 0.828279 0.494117 -0.108379
C63   C     C_R   0.817189 0.687781 0.508224 -0.063230
C64   C     C_R   0.798874 0.328278 0.494117 -0.108379
Cu1   Cu    Cu3+1 0.499990 0.000000 0.640660 0.976919
Cu2   Cu    Cu3+1 0.999990 0.500000 0.640660 0.976918
Cu3   Cu    Cu3+1 0.500010 0.000000 0.359340 0.951272
Cu4   Cu    Cu3+1 0.000010 0.500000 0.359340 0.951272
H1    H     H_    0.807028 0.933544 0.871889 0.180977
H2    H     H_    0.307028 0.433544 0.871889 0.180977
H3    H     H_    0.677090 0.986503 0.750378 0.207407
H4    H     H_    0.177090 0.486503 0.750378 0.207407
H5    H     H_    0.467100 0.222467 0.671953 0.173013
H6    H     H_    0.250686 0.941106 0.697826 0.171162
H7    H     H_    0.967100 0.722467 0.671953 0.173013
H8    H     H_    0.750686 0.441106 0.697826 0.171162
H9    H     H_    0.514456 0.358750 0.750808 0.172588
H10   H     H_    0.176043 0.907056 0.920545 0.175235
H11   H     H_    0.014456 0.858750 0.750808 0.172588
H12   H     H_    0.676043 0.407056 0.920545 0.175235
H13   H     H_    0.937207 0.982442 0.670224 0.191779
H14   H     H_    0.644436 0.259831 0.967069 0.164964
H15   H     H_    0.437207 0.482442 0.670223 0.191779
H16   H     H_    0.144436 0.759831 0.967069 0.164964
H17   H     H_    0.671053 0.990406 0.246165 0.215577
H18   H     H_    0.171053 0.490407 0.246165 0.215576
H19   H     H_    0.806306 0.940368 0.123628 0.183256
H20   H     H_    0.306306 0.440368 0.123628 0.183257
N1    N     N_R   0.501200 0.000000 0.147910 -0.218780
N2    N     N_R   0.001200 0.500000 0.147910 -0.218780
N3    N     N_R   0.501270 0.000000 0.852040 -0.212947
N4    N     N_R   0.001270 0.500000 0.852040 -0.212947
O1    O     O_R   0.409820 0.909830 0.618810 -0.548556
O2    O     O_R   0.409820 0.090170 0.618810 -0.566377
O3    O     O_R   0.909820 0.409830 0.618810 -0.548556
O4    O     O_R   0.909820 0.590170 0.618810 -0.566377
O5    O     O_R   0.409840 0.909830 0.381240 -0.581832
O6    O     O_R   0.409840 0.090170 0.381240 -0.580668
O7    O     O_R   0.909840 0.409830 0.381240 -0.581832
O8    O     O_R   0.909840 0.590170 0.381240 -0.580668
O9    O     O_R   0.590170 0.090170 0.618760 -0.592856
O10   O     O_R   0.590170 0.909830 0.618760 -0.579564
O11   O     O_R   0.090170 0.590170 0.618760 -0.592856
O12   O     O_R   0.090170 0.409830 0.618760 -0.579564
O13   O     O_R   0.590190 0.090180 0.381190 -0.592779
O14   O     O_R   0.590190 0.909820 0.381190 -0.585775
O15   O     O_R   0.090190 0.590180 0.381190 -0.592780
O16   O     O_R   0.090190 0.409820 0.381190 -0.585775
H21   H     H_    0.215759 0.120382 0.389866 0.147100
H22   H     H_    0.325339 0.786720 0.281660 0.178563
H23   H     H_    0.715759 0.620382 0.389866 0.147100
H24   H     H_    0.825339 0.286719 0.281660 0.178563
I1    I     I_    0.299809 0.075158 0.867503 -0.411569
I2    I     I_    0.799810 0.575158 0.867503 -0.411569
I3    I     I_    0.809536 0.014171 0.444471 -0.460730
I4    I     I_    0.787538 0.139085 0.828419 -0.402676
I5    I     I_    0.309536 0.514171 0.444471 -0.460730
I6    I     I_    0.287538 0.639085 0.828419 -0.402676
H25   H     H_    0.607526 0.736523 0.387186 0.160848
H26   H     H_    0.713620 0.176015 0.284036 0.181811
H27   H     H_    0.107526 0.236523 0.387187 0.160848
H28   H     H_    0.213620 0.676015 0.284036 0.181811
H29   H     H_    0.361397 0.029836 0.137427 0.161986
H30   H     H_    0.861397 0.529835 0.137427 0.161986

loop_
_geom_bond_atom_site_label_1
_geom_bond_atom_site_label_2
_ccdc_geom_bond_type
C58   C62   A    
Cu2   Cu4   S    
C40   C60   A    
C6    H22   S    
C13   C32   S    
C33   O15   A    
Cu1   O9    S    
C14   C31   S    
C30   N2    A    
C44   H12   S    
C36   I2    S    
C1    C62   S    
C16   C56   A    
C53   C59   A    
C54   C60   A    
C3    C64   S    
C4    C63   S    
C18   H18   S    
C17   H17   S    
C31   O9    A    
C19   C21   A    
C24   C26   A    
C38   C42   A    
C19   H19   S    
C8    H24   S    
C41   H9    S    
C26   N4    A    
C29   H29   S    
Cu3   N1    S    
Cu1   N3    S    
C9    C13   A    
Cu3   O6    S    
C17   C19   A    
C4    O4    A    
C11   C15   A    
C12   C16   A    
C56   C58   A    
Cu1   Cu3   S    
Cu4   N2    S    
C35   I1    S    
Cu4   O15   S    
C39   H7    S    
C15   C34   S    
C51   C55   A    
C2    C61   S    
C36   N4    A    
Cu1   O1    S    
C32   O14   A    
C31   O13   A    
C11   H27   S    
Cu1   O10   S    
C29   N1    A    
C44   C46   A    
C46   C50   A    
C13   C53   A    
C39   C43   A    
C25   N3    A    
C17   C27   A    
Cu2   O12   S    
C2    O2    A    
C18   C28   A    
C10   C14   A    
C1    O5    A    
Cu3   O13   S    
Cu2   N4    S    
C34   O12   A    
C48   H16   S    
C21   H1    S    
C15   C55   A    
Cu4   O8    S    
C23   H3    S    
C16   C33   S    
C45   C49   A    
C39   C59   A    
C50   I4    S    
C41   C47   A    
C5    C61   A    
C42   C48   A    
C57   C61   A    
C43   C45   A    
C7    C63   A    
C8    C64   A    
C1    O1    A    
Cu1   O2    S    
C14   C54   A    
C20   C22   A    
C42   H10   S    
C47   H15   S    
C55   C57   A    
C9    H25   S    
C22   C24   A    
C40   C44   A    
C24   H4    S    
Cu2   O4    S    
C38   H6    S    
C7    C9    A    
C37   H5    S    
C49   I3    S    
C33   O11   A    
C26   C28   A    
Cu2   O11   S    
C45   H13   S    
C30   H30   S    
C46   H14   S    
C47   C51   A    
Cu3   O14   S    
C5    C11   A    
C32   O10   A    
C25   C27   A    
C29   C35   A    
C59   C63   A    
C4    O8    A    
C30   C36   A    
C60   C64   A    
C34   O16   A    
C6    C62   A    
C21   C23   A    
Cu4   O7    S    
C50   C54   A    
C6    C12   A    
C5    H21   S    
C49   C53   A    
C20   H20   S    
C51   I5    S    
C3    O3    A    
C7    H23   S    
C27   N1    A    
C18   C20   A    
C23   C25   A    
C37   C41   A    
C10   H26   S    
Cu3   O5    S    
C3    O7    A    
C48   C52   A    
C12   H28   S    
C2    O6    A    
C8    C10   A    
C40   H8    S    
C28   N2    A    
Cu4   O16   S    
C43   H11   S    
C38   C58   A    
C22   H2    S    
C37   C57   A    
C52   C56   A    
C35   N3    A    
Cu2   O3    S    
C52   I6    S    
