data_mof_unit_28258.cif
_audit_creation_date              2013-03-05T16:09:36-0500
_audit_creation_method            fapswitch 2.2
_symmetry_space_group_name_H-M    P1
_symmetry_Int_Tables_number       1
_space_group_crystal_system       triclinic
_cell_length_a                    10.579971
_cell_length_b                    10.671936
_cell_length_c                    9.870848
_cell_angle_alpha                 89.933706
_cell_angle_beta                  104.806626
_cell_angle_gamma                 90.770797
_cell_volume                      1077.3963975

loop_
_atom_site_label
_atom_site_type_symbol
_atom_site_description
_atom_site_fract_x
_atom_site_fract_y
_atom_site_fract_z
_atom_type_partial_charge
O1    O     O_R   0.499990 0.316750 0.614620 -0.597762
O2    O     O_R   0.500010 0.683250 0.385380 -0.605430
O3    O     O_R   0.499990 0.316780 0.385290 -0.620506
O4    O     O_R   0.500010 0.683220 0.614710 -0.610292
C1    C     C_R   0.502025 0.260254 0.500925 0.919574
C2    C     C_R   0.498595 0.739767 0.499246 0.884653
O5    O     O_R   0.317810 0.500000 0.571850 -0.618089
O6    O     O_R   0.682190 0.500000 0.428150 -0.599795
O7    O     O_R   0.317810 0.500030 0.342520 -0.590869
O8    O     O_R   0.682190 0.499970 0.657480 -0.566815
C3    C     C_R   0.256791 0.504415 0.440687 0.814969
C4    C     C_R   0.742964 0.503927 0.559358 0.843314
Zn1   Zn    Zn3+2 0.500000 0.499980 0.653120 0.987501
Zn2   Zn    Zn3+2 0.500000 0.500020 0.346880 0.987118
C5    C     C_R   0.573212 0.585401 0.092340 -0.145554
C6    C     C_R   0.427215 0.414463 0.906622 -0.105297
C7    C     C_R   0.574816 0.584776 0.948891 0.268454
C8    C     C_R   0.426809 0.412242 0.051030 0.308140
H1    H     H_    0.869241 0.628166 0.409691 0.175459
H2    H     H_    0.137926 0.621111 0.598464 0.206712
H3    H     H_    0.632129 0.653193 0.163511 0.139399
H4    H     H_    0.369823 0.348531 0.832252 0.161501
C9    C     C_2   0.115540 0.522680 0.407186 0.131160
C10   C     C_2   0.883952 0.522892 0.595393 0.149138
C11   C     C_2   0.070482 0.581856 0.505858 -0.230090
C12   C     C_2   0.933383 0.586851 0.502525 -0.219079
C13   C     C_R   0.422274 0.065711 0.387660 -0.288607
C14   C     C_R   0.579348 0.934256 0.612579 -0.306530
H5    H     H_    0.360289 0.117312 0.302048 0.172359
H6    H     H_    0.641520 0.882591 0.698214 0.165065
C15   C     C_R   0.420482 0.936775 0.383554 0.206375
C16   C     C_R   0.581360 0.063305 0.616430 0.201525
C17   C     C_R   0.498764 0.872136 0.497855 -0.084729
C18   C     C_R   0.502573 0.127874 0.502394 -0.084517
N1    N     N_R   0.499970 0.499970 0.857200 -0.106312
N2    N     N_R   0.500030 0.500030 0.142800 -0.116015
N3    N     N_R   0.964143 0.466855 0.720758 0.208411
O9    O     O_R   0.922423 0.367141 0.772838 -0.393816
O10   O     O_R   0.069945 0.522965 0.792726 -0.401007
N4    N     N_R   0.031517 0.474364 0.277918 0.201322
O11   O     O_R   0.076979 0.460434 0.168254 -0.365529
O12   O     O_R   0.913559 0.433946 0.271775 -0.388846
N5    N     N_2   0.653957 0.673031 0.899757 -0.299185
H7    H     H_    0.634241 0.764164 0.921428 0.189799
C19   C     C_3   0.792468 0.647895 0.943706 -0.630839
H8    H     H_    0.830408 0.664428 0.058177 0.226184
H9    H     H_    0.845399 0.711217 0.887003 0.222526
H10   H     H_    0.811861 0.549487 0.919518 0.304290
N6    N     N_2   0.353338 0.317942 0.102188 -0.289491
H11   H     H_    0.311968 0.346389 0.179680 0.298906
C20   C     C_3   0.271396 0.229336 0.006382 -0.781730
H12   H     H_    0.193995 0.279398 0.928622 0.303532
H13   H     H_    0.223052 0.163941 0.065630 0.242193
H14   H     H_    0.331472 0.172542 0.952907 0.219300
N7    N     N_2   0.336231 0.872605 0.268224 -0.291712
H15   H     H_    0.240856 0.902438 0.247406 0.222583
C21   C     C_3   0.383572 0.871108 0.143034 -0.718839
H16   H     H_    0.382274 0.966949 0.098747 0.223650
H17   H     H_    0.319851 0.808709 0.063512 0.247320
H18   H     H_    0.484888 0.835296 0.166739 0.242170
N8    N     N_2   0.666692 0.127685 0.730808 -0.274005
H19   H     H_    0.762215 0.098663 0.749571 0.243111
C22   C     C_3   0.621911 0.128282 0.857594 -0.690463
H20   H     H_    0.624936 0.032243 0.901932 0.205760
H21   H     H_    0.520466 0.163473 0.835861 0.236354
H22   H     H_    0.686228 0.191007 0.936250 0.261918

loop_
_geom_bond_atom_site_label_1
_geom_bond_atom_site_label_2
_geom_bond_distance
_ccdc_geom_bond_type
C9    N4    1.446958 S    
C16   N8    1.423348 S    
C6    H4    1.079141 S    
O7    Zn2   1.917020 S    
C22   H21   1.109947 S    
N6    C20   1.449499 S    
N3    O9    1.301371 A    
C13   H5    1.082972 S    
N5    C19   1.446742 S    
C4    C10   1.453740 S    
C2    C17   1.412658 S    
O6    C4    1.290867 A    
N5    H7    1.031458 S    
C20   H14   1.110199 S    
C15   N7    1.423444 S    
C1    C18   1.412890 S    
N7    H15   1.031656 S    
N4    O12   1.301579 A    
C10   N3    1.443633 S    
C22   H22   1.110333 S    
C14   H6    1.084284 S    
N3    O10   1.301055 A    
C19   H8    1.111627 S    
O5    C3    1.291774 A    
O7    C3    1.295594 A    
C21   H16   1.110726 S    
O2    C2    1.279722 A    
O3    Zn2   1.991513 S    
O8    C4    1.292586 A    
O1    C1    1.279732 A    
C14   C16   1.377502 A    
C6    C8    1.426701 A    
N4    O11   1.301398 A    
C10   C12   1.346738 D    
C14   C17   1.393499 A    
Zn1   N1    2.014523 S    
N7    C21   1.447329 S    
C13   C18   1.392575 A    
Zn2   N2    2.014524 S    
N8    H19   1.031618 S    
O2    Zn2   1.992430 S    
C5    H3    1.081996 S    
C21   H17   1.110286 S    
O1    Zn1   1.992430 S    
C15   C17   1.403822 A    
C13   C15   1.376382 A    
C20   H12   1.111190 S    
C6    N1    1.354696 A    
C5    N2    1.361872 A    
O5    Zn1   1.889104 S    
C9    C11   1.349647 D    
C7    N1    1.371719 A    
C8    N6    1.431914 S    
O4    C2    1.285814 A    
N6    H11   1.021801 S    
H2    C11   1.086148 S    
C19   H9    1.110264 S    
C3    C9    1.461427 S    
C7    N5    1.417281 S    
C5    C7    1.420419 A    
H1    C12   1.088068 S    
C21   H18   1.110163 S    
O6    Zn2   1.889103 S    
C19   H10   1.110604 S    
O3    C1    1.285843 A    
C11   C12   1.444145 S    
C8    N2    1.386426 A    
N8    C22   1.447018 S    
C22   H20   1.111632 S    
O4    Zn1   1.991514 S    
C20   H13   1.110416 S    
O8    Zn1   1.917020 S    
C16   C18   1.403840 A    
