data_mof_unit_10006.cif
_audit_creation_date              2012-12-11T15:27:42-0500
_audit_creation_method            fapswitch 2.2
_symmetry_space_group_name_H-M    P1
_symmetry_Int_Tables_number       1
_space_group_crystal_system       triclinic
_cell_length_a                    23.247947
_cell_length_b                    7.301289
_cell_length_c                    15.133703
_cell_angle_alpha                 90.324445
_cell_angle_beta                  108.249154
_cell_angle_gamma                 89.670116
_cell_volume                      2439.53313034

loop_
_atom_site_label
_atom_site_type_symbol
_atom_type_description
_atom_site_fract_x
_atom_site_fract_y
_atom_site_fract_z
_atom_type_partial_charge
O1    O     O_R   0.711000 0.648610 0.341170 -0.542482
O2    O     O_R   0.289000 0.351390 0.658830 -0.543253
O3    O     O_R   0.789000 0.148610 0.158830 -0.533964
O4    O     O_R   0.211000 0.851390 0.841170 -0.543138
O5    O     O_R   0.829650 0.322030 0.336650 -0.536661
O6    O     O_R   0.170350 0.677970 0.663350 -0.536284
O7    O     O_R   0.670350 0.822030 0.163350 -0.538747
O8    O     O_R   0.329650 0.177970 0.836650 -0.533795
C1    C     C_R   0.854268 0.485663 0.356809 0.731275
C2    C     C_R   0.145732 0.514336 0.643191 0.730422
C3    C     C_R   0.645731 0.985939 0.143185 0.731737
C4    C     C_R   0.354267 0.014057 0.856820 0.728642
O9    O     O_R   0.713950 0.319280 0.352070 -0.537054
O10   O     O_R   0.286050 0.680720 0.647930 -0.536735
O11   O     O_R   0.786050 0.819280 0.147930 -0.545597
O12   O     O_R   0.213950 0.180720 0.852070 -0.530959
O13   O     O_R   0.672470 0.142870 0.174360 -0.533238
O14   O     O_R   0.327530 0.857130 0.825640 -0.536971
O15   O     O_R   0.827530 0.642870 0.325640 -0.535349
O16   O     O_R   0.172470 0.357130 0.674360 -0.536332
C5    C     C_R   0.702004 0.488203 0.376103 0.722575
C6    C     C_R   0.297991 0.511794 0.623891 0.721544
C7    C     C_R   0.798001 0.986833 0.123831 0.723004
C8    C     C_R   0.201932 0.013186 0.876085 0.722413
O17   O     O_3   0.736530 0.478650 0.191680 -0.379994
O18   O     O_3   0.263470 0.521350 0.808320 -0.379361
O19   O     O_3   0.763470 0.978650 0.308320 -0.381868
O20   O     O_3   0.236530 0.021350 0.691680 -0.382562
V1    V     V_3+5 0.752500 0.206170 0.260820 1.446614
V2    V     V_3+5 0.247500 0.793830 0.739180 1.435211
V3    V     V_3+5 0.747500 0.706170 0.239180 1.425164
V4    V     V_3+5 0.252500 0.293830 0.760820 1.445193
C9    C     C_R   0.826901 0.991664 0.050935 -0.038625
C10   C     C_R   0.173043 0.008438 0.948985 -0.042637
C11   C     C_R   0.672983 0.499747 0.448723 -0.039108
C12   C     C_R   0.327007 0.500211 0.551264 -0.038816
C13   C     C_R   0.822762 0.965088 0.889898 -0.196435
C14   C     C_R   0.177073 0.040884 0.109729 -0.195691
C15   C     C_R   0.676786 0.554269 0.607998 -0.195631
C16   C     C_R   0.323226 0.445074 0.392046 -0.197566
C17   C     C_R   0.792774 0.970448 0.956959 0.197025
C18   C     C_R   0.207096 0.032888 0.042754 0.198999
C19   C     C_R   0.706878 0.536756 0.541416 0.196251
C20   C     C_R   0.293129 0.462719 0.458615 0.196319
C21   C     C_R   0.889899 0.006705 0.077346 -0.271113
C22   C     C_R   0.110083 0.992273 0.922671 -0.269967
C23   C     C_R   0.610117 0.481477 0.422996 -0.271356
C24   C     C_R   0.389865 0.518730 0.576967 -0.271258
C25   C     C_R   0.921140 0.998467 0.010901 0.085660
C26   C     C_R   0.078774 0.003734 0.988954 0.085918
C27   C     C_R   0.578756 0.501517 0.488828 0.085329
C28   C     C_R   0.421238 0.498344 0.511169 0.085922
C29   C     C_R   0.886133 0.977156 0.916096 0.103954
C30   C     C_R   0.113731 0.027593 0.083619 0.104123
C31   C     C_R   0.613531 0.538212 0.582427 0.103731
C32   C     C_R   0.386474 0.461338 0.417600 0.103804
C33   C     C_R   0.985744 0.008268 0.035473 0.067102
C34   C     C_R   0.014152 0.994787 0.964334 0.067004
C35   C     C_R   0.514258 0.488001 0.464753 0.067443
C36   C     C_R   0.485739 0.511795 0.535253 0.066946
C37   C     C_R   0.976976 0.974096 0.870982 -0.183358
C38   C     C_R   0.022879 0.031047 0.128710 -0.183385
C39   C     C_R   0.522678 0.547643 0.627434 -0.183665
C40   C     C_R   0.477326 0.451918 0.372594 -0.184434
C41   C     C_R   0.914446 0.966100 0.847725 -0.185929
C42   C     C_R   0.085386 0.040268 0.151904 -0.185888
C43   C     C_R   0.585095 0.560178 0.650173 -0.186010
C44   C     C_R   0.414914 0.439225 0.349869 -0.189456
H1    H     H_    0.887930 0.949832 0.775133 0.126641
H2    H     H_    0.111858 0.058691 0.224374 0.126396
H3    H     H_    0.611423 0.588311 0.721839 0.126050
H4    H     H_    0.388595 0.410838 0.278228 0.128851
H5    H     H_    0.087139 0.974980 0.849401 0.108250
H6    H     H_    0.912932 0.020418 0.150793 0.108035
H7    H     H_    0.412663 0.546261 0.649437 0.108022
H8    H     H_    0.587303 0.454433 0.350480 0.107857
H9    H     H_    0.796662 0.948692 0.817130 0.113022
H10   H     H_    0.203125 0.059757 0.182353 0.112222
H11   H     H_    0.702704 0.582650 0.679821 0.112694
H12   H     H_    0.297319 0.416391 0.320252 0.114005
H13   H     H_    0.994508 0.963654 0.813280 0.125238
H14   H     H_    0.005297 0.043589 0.186285 0.125305
H15   H     H_    0.505033 0.567306 0.684558 0.125429
H16   H     H_    0.494977 0.432016 0.315493 0.125528
C45   C     C_1   0.416757 0.006632 0.918778 -0.183820
C46   C     C_1   0.583239 0.993353 0.081236 -0.181776
C47   C     C_1   0.083239 0.507302 0.581221 -0.181818
C48   C     C_1   0.916761 0.492697 0.418779 -0.181954
C49   C     C_1   0.469136 0.002223 0.969985 0.004482
C50   C     C_1   0.530858 0.997754 0.030033 0.004823
C51   C     C_1   0.030861 0.502561 0.530020 0.004997
C52   C     C_1   0.969139 0.497438 0.469980 0.004993
N1    N     N_3   0.271795 0.051833 0.069012 -0.677083
H17   H     H_    0.289881 0.077119 0.140449 0.225933
H18   H     H_    0.289593 0.926095 0.056430 0.216305
N2    N     N_3   0.727951 0.955144 0.930348 -0.680965
H19   H     H_    0.709280 0.951938 0.857873 0.227368
H20   H     H_    0.718009 0.828981 0.954375 0.222242
N3    N     N_3   0.228441 0.443842 0.432797 -0.681636
H21   H     H_    0.209892 0.426738 0.360799 0.227641
H22   H     H_    0.219435 0.323371 0.463005 0.222896
N4    N     N_3   0.771576 0.555309 0.567259 -0.681543
H23   H     H_    0.790140 0.571898 0.639286 0.227712
H24   H     H_    0.780650 0.675949 0.537260 0.223003

loop_
_geom_bond_atom_site_label_1
_geom_bond_atom_site_label_2
_ccdc_geom_bond_type
O17   V3    S    
O1    C5    A    
N1    H17   S    
C47   C51   T    
O19   V1    S    
C18   N1    S    
C9    C21   A    
O3    C7    A    
C10   C18   A    
O15   V3    S    
C25   C33   A    
C33   C38   A    
O7    C3    A    
C35   C40   A    
C26   C30   A    
C4    C45   S    
C36   C39   A    
C40   C44   A    
O9    V1    S    
C23   H8    S    
C14   C18   A    
C1    C48   S    
O4    C8    A    
C20   N3    S    
C25   C29   A    
C17   N2    S    
C3    C46   S    
O1    V3    S    
O13   V1    S    
O2    V4    S    
O3    V1    S    
C40   H16   S    
C28   C36   A    
C1    O15   A    
C15   C31   A    
C48   C52   T    
C2    O16   A    
C7    C9    S    
N2    H20   S    
O2    C6    A    
C16   H12   S    
C10   C22   A    
C11   C19   A    
C16   C20   A    
C43   H3    S    
C44   H4    S    
C13   C29   A    
C34   C37   A    
O11   C7    A    
C38   H14   S    
C11   C23   A    
C35   C36   A    
O12   C8    A    
C24   H7    S    
O10   V2    S    
O5    V1    S    
C39   C43   A    
C2    C47   S    
O7    V3    S    
C38   C42   A    
O8    V4    S    
C46   C50   T    
C51   C52   S    
C45   C49   T    
O18   V4    S    
C23   C27   A    
C14   H10   S    
C16   C32   A    
C32   C44   A    
C13   H9    S    
C8    C10   S    
C39   H15   S    
C21   H6    S    
C26   C34   A    
O5    C1    A    
C31   C43   A    
N3    H21   S    
C14   C30   A    
C21   C25   A    
O8    C4    A    
N2    H19   S    
O9    C5    A    
N4    H24   S    
O14   V2    S    
O6    V2    S    
C12   C20   A    
C27   C35   A    
C29   C41   A    
O16   V4    S    
C3    O13   A    
N3    H22   S    
O6    C2    A    
C15   C19   A    
O11   V3    S    
C30   C42   A    
O12   V4    S    
C6    C12   S    
C22   C26   A    
C9    C17   A    
O10   C6    A    
O20   V2    S    
C5    C11   S    
C19   N4    S    
C37   H13   S    
C33   C34   A    
C42   H2    S    
C41   H1    S    
C12   C24   A    
C27   C31   A    
C13   C17   A    
N4    H23   S    
C37   C41   A    
C24   C28   A    
N1    H18   S    
C4    O14   A    
C49   C50   S    
C22   H5    S    
O4    V2    S    
C28   C32   A    
C15   H11   S    
