data_mof_unit_12079.cif
_audit_creation_date              2012-12-11T16:23:54-0500
_audit_creation_method            fapswitch 2.2
_symmetry_space_group_name_H-M    P1
_symmetry_Int_Tables_number       1
_space_group_crystal_system       triclinic
_cell_length_a                    14.7505
_cell_length_b                    14.755446
_cell_length_c                    33.292585
_cell_angle_alpha                 96.067957
_cell_angle_beta                  96.297115
_cell_angle_gamma                 61.242483
_cell_volume                      6302.43510347

loop_
_atom_site_label
_atom_site_type_symbol
_atom_type_description
_atom_site_fract_x
_atom_site_fract_y
_atom_site_fract_z
_atom_type_partial_charge
C1    C     C_R   0.390775 0.700005 0.446245 0.547002
C2    C     C_1   0.288775 0.334833 0.231031 0.022708
C3    C     C_2   0.481416 0.852944 0.905314 0.579701
C4    C     C_3   0.624424 0.698876 0.696415 -0.308163
C5    C     C_1   0.297812 0.343068 0.267269 0.022252
C6    C     C_R   0.405647 0.386117 0.434148 0.545588
C7    C     C_R   0.287576 0.285494 0.103397 -0.002427
C8    C     C_R   0.759734 0.370785 0.411130 0.023121
C9    C     C_R   0.800552 0.427902 0.396088 -0.130415
C10   C     C_R   0.836453 0.403528 0.357393 -0.117917
C11   C     C_R   0.831726 0.321885 0.333039 0.036743
C12   C     C_R   0.799382 0.259206 0.349459 -0.121745
C13   C     C_R   0.763752 0.283408 0.388230 -0.133226
C14   C     C_R   0.319529 0.345571 0.310222 0.052548
C15   C     C_R   0.859715 0.302328 0.208450 0.354954
C16   C     C_R   0.849100 0.310010 0.289638 0.348303
C17   C     C_R   0.868669 0.380490 0.147532 -0.124623
C18   C     C_R   0.700985 0.409781 0.447639 0.546728
C19   C     C_R   0.888740 0.372510 0.107247 -0.143948
C20   C     C_R   0.892971 0.204609 0.098264 0.042857
C21   C     C_R   0.874509 0.213053 0.139335 -0.112041
C22   C     C_R   0.866589 0.298749 0.164466 0.007426
C23   C     C_R   0.908098 0.282197 0.082717 0.000037
C24   C     C_R   0.369279 0.758164 0.410020 0.021624
C25   C     C_R   0.414352 0.269501 0.327419 0.167153
C26   C     C_R   0.273813 0.791027 0.387476 -0.128995
C27   C     C_R   0.261221 0.824371 0.348709 -0.117734
C28   C     C_R   0.343829 0.825527 0.331839 0.035965
C29   C     C_R   0.435906 0.802114 0.355838 -0.118273
C30   C     C_R   0.393544 0.701488 0.561235 0.543096
C31   C     C_R   0.448576 0.768588 0.394657 -0.131110
C32   C     C_R   0.333740 0.847860 0.207140 0.353623
C33   C     C_R   0.337601 0.839866 0.288342 0.349821
C34   C     C_R   0.251403 0.845317 0.137884 -0.107890
C35   C     C_R   0.234733 0.870167 0.097632 -0.110894
C36   C     C_R   0.437061 0.279176 0.369265 -0.100310
C37   C     C_R   0.377606 0.909605 0.106372 -0.124982
C38   C     C_R   0.394364 0.884584 0.146680 -0.107537
C39   C     C_R   0.328347 0.856767 0.163228 0.029805
C40   C     C_R   0.294518 0.907220 0.082066 0.017899
C41   C     C_R   0.371810 0.369040 0.585133 0.021955
C42   C     C_R   0.407444 0.388841 0.549033 0.545560
C43   C     C_R   0.285182 0.448356 0.603916 -0.131423
C44   C     C_R   0.265979 0.438912 0.642937 -0.121681
C45   C     C_R   0.333202 0.350099 0.663739 0.034318
C46   C     C_R   0.414176 0.267196 0.643519 -0.119903
C47   C     C_R   0.358696 0.219949 0.170178 0.064556
C48   C     C_R   0.433223 0.276510 0.604540 -0.129589
C49   C     C_R   0.318089 0.347057 0.788298 0.347094
C50   C     C_R   0.325242 0.347206 0.707244 0.345879
C51   C     C_R   0.217851 0.402524 0.850167 -0.119321
C52   C     C_R   0.206802 0.383242 0.888974 -0.129595
C53   C     C_R   0.385973 0.248781 0.892913 -0.117041
C54   C     C_R   0.701474 0.413508 0.562670 0.542897
C55   C     C_R   0.396964 0.267986 0.854191 -0.113052
C56   C     C_R   0.311662 0.341609 0.831737 0.032620
C57   C     C_R   0.289440 0.302777 0.909847 0.020130
C58   C     C_R   0.359695 0.206826 0.128055 -0.116834
C59   C     C_R   0.754831 0.379886 0.602796 0.021003
C60   C     C_R   0.784645 0.444103 0.628665 -0.132158
C61   C     C_R   0.813581 0.423843 0.669464 -0.117794
C62   C     C_R   0.813493 0.339097 0.684717 0.041390
C63   C     C_R   0.790438 0.271117 0.658699 -0.110420
C64   C     C_R   0.761627 0.291071 0.617932 -0.125148
C65   C     C_R   0.888800 0.212592 0.822425 -0.110295
C66   C     C_R   0.369069 0.364566 0.393149 -0.008734
C67   C     C_R   0.915600 0.201123 0.863847 -0.125233
C68   C     C_R   0.871725 0.382536 0.873475 -0.119263
C69   C     C_R   0.218700 0.381465 0.121417 -0.129643
C70   C     C_R   0.844717 0.393822 0.832114 -0.108481
C71   C     C_R   0.856151 0.308228 0.806407 0.040619
C72   C     C_1   0.841124 0.317314 0.763423 -0.022641
C73   C     C_1   0.829541 0.326216 0.727461 -0.023684
C74   C     C_R   0.910802 0.285203 0.889564 0.022329
C75   C     C_R   0.376389 0.756628 0.601691 -0.013655
C76   C     C_R   0.283043 0.788560 0.619624 -0.139073
C77   C     C_R   0.274110 0.821066 0.660520 -0.138184
C78   C     C_R   0.273308 0.436545 0.375662 -0.138485
C79   C     C_R   0.358045 0.822233 0.684175 0.043592
C80   C     C_R   0.220157 0.397374 0.163501 -0.133801
C81   C     C_R   0.450466 0.796037 0.666203 0.158166
C82   C     C_R   0.458372 0.764346 0.624885 -0.088396
C83   C     C_R   0.407872 0.855336 0.834472 -0.108428
C84   C     C_R   0.390738 0.875644 0.876028 0.045952
C85   C     C_R   0.209005 0.922775 0.858773 -0.145277
C86   C     C_R   0.227851 0.900686 0.817984 -0.116994
C87   C     C_R   0.326275 0.869817 0.805674 0.013205
C88   C     C_1   0.341931 0.853672 0.763197 -0.020802
C89   C     C_1   0.350656 0.840530 0.727260 -0.023040
C90   C     C_R   0.248566 0.426703 0.334417 -0.142011
C91   C     C_R   0.288136 0.316680 0.187919 0.014343
C92   C     C_R   0.288348 0.914696 0.888262 0.000925
C93   C     C_R   0.962672 0.264446 0.045482 0.561018
C94   C     C_R   0.272271 0.258322 0.060318 0.543538
C95   C     C_R   0.258921 0.960284 0.043997 0.549983
C96   C     C_R   0.962658 0.267609 0.930689 0.546216
C97   C     C_R   0.270777 0.264037 0.945346 0.542605
C98   C     C_R   0.256534 0.964037 0.929112 0.565737
C99   C     C_2   0.895962 0.114118 0.073188 0.591646
C100  C     C_2   0.428610 0.129202 0.194186 0.552753
C101  C     C_3   0.579881 0.104259 0.319381 -0.281925
Cr1   Cr    Cr6+3 0.576280 0.580550 0.506370 1.013612
Cr2   Cr    Cr6+3 0.346780 0.572400 0.496520 1.014052
Cr3   Cr    Cr6+3 0.576960 0.347070 0.497150 1.011252
Cr4   Cr    Cr6+3 0.087320 0.083240 0.984860 1.071700
Cr5   Cr    Cr6+3 0.087720 0.316210 0.996740 1.021921
Cr6   Cr    Cr6+3 0.317350 0.090340 0.995890 1.073773
H1    H     H_    0.411432 0.131520 0.114486 0.166961
H2    H     H_    0.170760 0.866605 0.079512 0.156604
H3    H     H_    0.188523 0.843976 0.331221 0.138667
H4    H     H_    0.500509 0.803501 0.343824 0.136243
H5    H     H_    0.200603 0.821967 0.149582 0.148057
H6    H     H_    0.425286 0.937554 0.095166 0.144602
H7    H     H_    0.455129 0.892843 0.165374 0.159561
H8    H     H_    0.236032 0.520399 0.589585 0.129287
H9    H     H_    0.499896 0.213580 0.590664 0.131125
H10   H     H_    0.131544 0.426528 0.901371 0.134212
H11   H     H_    0.202186 0.503612 0.657586 0.132956
H12   H     H_    0.733410 0.237425 0.399163 0.125370
H13   H     H_    0.466099 0.196863 0.658487 0.136641
H14   H     H_    0.151073 0.460677 0.833765 0.135806
H15   H     H_    0.451433 0.187200 0.908515 0.151204
H16   H     H_    0.470944 0.221259 0.841109 0.142883
H17   H     H_    0.945916 0.125073 0.875230 0.127044
H18   H     H_    0.897651 0.145940 0.802704 0.111720
H19   H     H_    0.790512 0.205118 0.670249 0.113116
H20   H     H_    0.739142 0.240038 0.598870 0.128157
H21   H     H_    0.780321 0.512948 0.617948 0.124482
H22   H     H_    0.819068 0.468274 0.819953 0.115588
H23   H     H_    0.896287 0.434897 0.096231 0.147875
H24   H     H_    0.867145 0.448729 0.892447 0.136869
H25   H     H_    0.510790 0.224404 0.382978 0.127916
H26   H     H_    0.831762 0.476673 0.689437 0.109880
H27   H     H_    0.484833 0.827725 0.824442 0.150938
H28   H     H_    0.530500 0.741387 0.611421 0.137632
H29   H     H_    0.218508 0.783606 0.602591 0.135953
H30   H     H_    0.164506 0.910933 0.795861 0.118174
H31   H     H_    0.130152 0.952034 0.866877 0.134504
H32   H     H_    0.202926 0.840938 0.674160 0.117390
H33   H     H_    0.219549 0.502976 0.393457 0.133121
H34   H     H_    0.862606 0.452284 0.345837 0.135679
H35   H     H_    0.166473 0.471867 0.177035 0.124970
H36   H     H_    0.161762 0.442868 0.103035 0.131536
H37   H     H_    0.175806 0.484774 0.321073 0.121639
H38   H     H_    0.799577 0.494877 0.413286 0.129778
H39   H     H_    0.936109 0.962234 0.070040 0.337835
H40   H     H_    0.564165 0.996833 0.198446 0.341444
H41   H     H_    0.496919 0.210947 0.275295 0.272714
H42   H     H_    0.620029 0.044267 0.295176 0.166538
H43   H     H_    0.560099 0.067417 0.341980 0.156094
H44   H     H_    0.633315 0.133569 0.333578 0.120020
H45   H     H_    0.795888 0.195075 0.331605 0.131936
H46   H     H_    0.623708 0.841584 0.916246 0.341524
H47   H     H_    0.517990 0.848552 0.714922 0.262391
H48   H     H_    0.688180 0.709103 0.713537 0.144453
H49   H     H_    0.653315 0.655093 0.667316 0.150207
H50   H     H_    0.602577 0.653836 0.714383 0.153923
H51   H     H_    0.859445 0.449208 0.165840 0.145669
H52   H     H_    0.867846 0.151790 0.151842 0.175447
H53   H     H_    0.210781 0.785204 0.398755 0.131858
H54   H     H_    0.522765 0.744697 0.411527 0.130286
N1    N     N_R   0.869498 0.377067 0.232959 -0.226702
N2    N     N_R   0.414506 0.845674 0.271669 -0.215285
N3    N     N_R   0.412252 0.850301 0.231839 -0.208006
N4    N     N_R   0.239376 0.421830 0.766497 -0.233388
N5    N     N_2   0.486729 0.187895 0.301874 -0.468935
N6    N     N_2   0.536360 0.799208 0.689253 -0.518762
N7    N     N_R   0.243219 0.422305 0.726760 -0.234765
N8    N     N_R   0.403714 0.272562 0.729078 -0.231571
N9    N     N_R   0.400057 0.272307 0.768749 -0.229926
N10   N     N_R   0.863974 0.381037 0.272698 -0.230458
N11   N     N_R   0.840462 0.234385 0.265202 -0.224468
N12   N     N_R   0.846256 0.230249 0.225375 -0.217162
N13   N     N_R   0.256767 0.842557 0.223874 -0.222902
N14   N     N_R   0.258834 0.838300 0.263632 -0.226578
O1    O     O_R   0.679450 0.499830 0.463150 -0.518479
O2    O     O_R   0.340240 0.172500 0.045430 -0.515076
O3    O     O_R   0.309670 0.000990 0.032050 -0.495378
O4    O     O_R   0.480650 0.664000 0.464630 -0.501199
O5    O     O_R   0.168330 0.982130 0.939200 -0.525195
O6    O     O_R   0.000140 0.178170 0.944610 -0.496044
O7    O     O_R   0.983010 0.336750 0.948660 -0.518046
O8    O     O_R   0.181800 0.312190 0.959860 -0.505231
O9    O     O_R   0.338500 0.175680 0.956950 -0.505336
O10   O     O_R   0.308050 0.003930 0.950020 -0.458944
O11   O     O_3   0.164130 0.163270 0.992500 -0.261609
O12   O     O_R   0.356040 0.477400 0.534170 -0.502575
O13   O     O_R   0.323930 0.675950 0.455370 -0.518471
O14   O     O_R   0.354700 0.475360 0.451930 -0.498129
O15   O     O_R   0.494470 0.320860 0.448390 -0.523066
O16   O     O_R   0.662580 0.357570 0.460050 -0.503136
O17   O     O_R   0.680900 0.502040 0.551870 -0.519810
O18   O     O_R   0.481990 0.666040 0.546870 -0.504332
O19   O     O_R   0.325370 0.678160 0.544080 -0.516672
O20   O     O_2   0.857373 0.124329 0.038428 -0.500295
O21   O     O_R   0.939189 0.017795 0.089950 -0.710069
O22   O     O_2   0.401673 0.116378 0.225626 -0.487943
O23   O     O_R   0.495910 0.323070 0.537100 -0.519709
O24   O     O_R   0.524069 0.055723 0.179825 -0.713766
O25   O     O_2   0.483912 0.824660 0.938836 -0.505494
O26   O     O_R   0.566187 0.860032 0.893935 -0.712504
O27   O     O_R   0.663920 0.359620 0.542290 -0.502061
O28   O     O_3   0.500010 0.500010 0.500010 -0.236129
O29   O     O_R   0.170070 0.978950 0.027680 -0.504844
O30   O     O_R   0.001760 0.175230 0.026640 -0.456120
O31   O     O_R   0.984760 0.333570 0.037150 -0.522999
O32   O     O_R   0.183410 0.309240 0.041890 -0.499970

loop_
_geom_bond_atom_site_label_1
_geom_bond_atom_site_label_2
_ccdc_geom_bond_type
C42   O12   A    
C83   C87   A    
C55   C56   A    
C31   H54   S    
C8    C13   A    
H41   N5    S    
N8    N9    A    
C12   H45   S    
C15   N1    A    
H40   O24   S    
N2    N3    A    
C96   O6    A    
C43   C44   A    
C93   O30   A    
C67   H17   S    
C81   C82   A    
C76   H29   S    
C61   H26   S    
C85   C86   A    
C78   C90   A    
C12   C13   A    
Cr6   O11   S    
C59   C64   A    
C37   C38   A    
C54   O17   A    
C28   C29   A    
C33   N2    A    
C24   C26   A    
C51   C56   A    
C98   O10   A    
C53   H15   S    
C36   H25   S    
C38   C39   A    
C38   H7    S    
C36   C66   A    
C30   O18   A    
C37   H6    S    
Cr1   O1    S    
C99   O20   D    
C101  H43   S    
C34   H5    S    
C34   C35   A    
C41   C42   S    
C32   C39   S    
C101  H42   S    
C82   H28   S    
N13   N14   A    
Cr5   O7    S    
C83   H27   S    
C86   H30   S    
C43   H8    S    
C15   C22   S    
C14   C90   A    
N1    N10   A    
C4    H50   S    
C27   H3    S    
C8    C9    A    
C65   C67   A    
Cr1   O17   S    
C62   C73   S    
C26   H53   S    
C70   C71   A    
Cr2   O14   S    
Cr2   O19   S    
C9    C10   A    
C21   H52   S    
C7    C58   A    
C61   C62   A    
C35   H2    S    
C48   H9    S    
C52   H10   S    
C19   H23   S    
C77   C79   A    
C57   C97   S    
C59   C60   A    
C21   C22   A    
Cr6   O2    S    
Cr1   O4    S    
C41   C43   A    
C2    C91   S    
C47   C91   A    
C93   O31   A    
C13   H12   S    
C85   C92   A    
C97   O8    A    
H46   O26   S    
C54   C59   S    
C53   C55   A    
C81   N6    S    
C66   C78   A    
C46   C48   A    
C18   O16   A    
C44   C45   A    
C15   N12   A    
C92   C98   S    
C34   C39   A    
Cr3   O28   S    
C74   C96   S    
C42   O23   A    
Cr2   O12   S    
C76   C77   A    
Cr5   O11   S    
C52   C57   A    
Cr5   O32   S    
C79   C81   A    
C53   C57   A    
C86   C87   A    
Cr4   O29   S    
C95   O29   A    
C65   C71   A    
Cr3   O16   S    
C32   N13   A    
C99   O21   S    
C101  H44   S    
C70   H22   S    
C8    C18   S    
C47   C100  S    
C23   C93   S    
C60   C61   A    
C94   O2    A    
Cr3   O27   S    
Cr4   O11   S    
C94   O32   A    
C68   H24   S    
C19   C23   A    
C75   C76   A    
C49   N4    A    
C62   C63   A    
C11   C16   S    
C16   N11   A    
C95   O3    A    
C83   C84   A    
C20   C23   A    
C44   H11   S    
C64   H20   S    
Cr3   O15   S    
C6    O15   A    
C3    O25   D    
C26   C27   A    
C46   H13   S    
C67   C74   A    
C20   C21   A    
C17   H51   S    
C5    C14   S    
C1    C24   S    
C4    H49   S    
C28   C33   S    
N4    N7    A    
C80   H35   S    
Cr6   O3    S    
C50   N7    A    
C49   N9    A    
C51   H14   S    
H47   N6    S    
C2    C5    T    
C40   C95   S    
C98   O5    A    
C37   C40   A    
Cr1   O18   S    
C3    C84   S    
N11   N12   A    
C97   O9    A    
C1    O13   A    
C7    C94   S    
C55   H16   S    
Cr3   O23   S    
C29   H4    S    
Cr2   O13   S    
C77   H32   S    
C60   H21   S    
C96   O7    A    
C72   C73   T    
C78   H33   S    
Cr5   O31   S    
C11   C12   A    
C75   C82   A    
Cr4   O30   S    
C25   N5    S    
C69   H36   S    
C49   C56   S    
C84   C92   A    
Cr6   O10   S    
C17   C22   A    
C4    N6    S    
Cr6   O9    S    
C80   C91   A    
C7    C69   A    
C24   C31   A    
C51   C52   A    
C29   C31   A    
C54   O27   A    
C100  O22   D    
C47   C58   A    
C30   C75   S    
C1    O4    A    
C16   N10   A    
C30   O19   A    
C20   C99   S    
C45   C50   S    
C3    O26   S    
C32   N3    A    
C6    O14   A    
C9    H38   S    
C17   C19   A    
C41   C48   A    
Cr1   O28   S    
C35   C40   A    
C50   N8    A    
C58   H1    S    
C14   C25   A    
C101  N5    S    
C33   N14   A    
Cr2   O28   S    
Cr5   O8    S    
C79   C89   S    
C63   H19   S    
C10   C11   A    
C25   C36   A    
C63   C64   A    
C100  O24   S    
C45   C46   A    
C6    C66   S    
C4    H48   S    
C71   C72   S    
C88   C89   T    
C87   C88   S    
C68   C70   A    
C27   C28   A    
C69   C80   A    
Cr4   O5    S    
Cr4   O6    S    
H39   O21   S    
C85   H31   S    
C10   H34   S    
C90   H37   S    
C65   H18   S    
C68   C74   A    
C18   O1    A    
