data_mof_unit_24125.cif
_audit_creation_date              2012-12-10T20:44:45-0500
_audit_creation_method            fapswitch 2.2
_symmetry_space_group_name_H-M    P1
_symmetry_Int_Tables_number       1
_space_group_crystal_system       triclinic
_cell_length_a                    9.867821
_cell_length_b                    10.684901
_cell_length_c                    16.799315
_cell_angle_alpha                 89.41519
_cell_angle_beta                  94.462504
_cell_angle_gamma                 90.280644
_cell_volume                      1765.7875811

loop_
_atom_site_label
_atom_site_type_symbol
_atom_type_description
_atom_site_fract_x
_atom_site_fract_y
_atom_site_fract_z
_atom_type_partial_charge
C1    C     C_R   0.499665 0.259871 0.499271 0.937487
C2    C     C_R   0.643443 0.473692 0.785037 -0.197739
C3    C     C_R   0.580895 0.592315 0.143729 -0.153034
C4    C     C_R   0.588515 0.567520 0.224729 -0.202418
C5    C     C_R   0.457117 0.575332 0.097505 0.322387
C6    C     C_R   0.472579 0.527551 0.261034 -0.032822
C7    C     C_R   0.347437 0.517287 0.215916 -0.207987
C8    C     C_R   0.340019 0.541583 0.134272 -0.174966
C9    C     C_R   0.619417 0.064152 0.484300 -0.059826
C10   C     C_R   0.497919 0.128382 0.488716 -0.041449
C11   C     C_R   0.373954 0.064376 0.475069 -0.163481
C12   C     C_R   0.517909 0.501130 0.653182 0.907305
C13   C     C_R   0.374241 0.935108 0.471682 -0.145849
C14   C     C_R   0.498473 0.871236 0.480880 -0.106540
C15   C     C_R   0.619669 0.937466 0.476028 0.027959
C16   C     C_3   0.756487 0.924439 0.520347 0.226675
C17   C     C_3   0.753772 0.065892 0.532916 0.214889
C18   C     C_R   0.080147 0.489891 0.569973 0.225824
C19   C     C_R   0.062735 0.494123 0.430426 -0.144348
C20   C     C_R   0.918976 0.493367 0.430450 -0.042030
C21   C     C_R   0.937774 0.490754 0.569919 0.266037
C22   C     C_3   0.941277 0.580460 0.637293 -0.454877
C23   C     C_R   0.499801 0.739948 0.495811 0.884535
C24   C     C_3   0.095194 0.578315 0.638183 -0.502339
C25   C     C_R   0.482385 0.505308 0.346649 0.865157
C26   C     C_R   0.530134 0.519291 0.738549 -0.034049
C27   C     C_R   0.432003 0.590171 0.773200 -0.223954
C28   C     C_R   0.443079 0.610072 0.854611 -0.140003
C29   C     C_R   0.553140 0.558632 0.902143 0.322375
C30   C     C_R   0.654866 0.493871 0.866745 -0.180205
H1    H     H_    0.685319 0.580110 0.258799 0.177913
H2    H     H_    0.277980 0.885949 0.467717 0.202179
H3    H     H_    0.754529 0.866011 0.575409 0.132169
H4    H     H_    0.832865 0.120644 0.504139 0.144822
H5    H     H_    0.108992 0.493449 0.374210 0.155450
H6    H     H_    0.858116 0.491946 0.374172 0.153859
H7    H     H_    0.896144 0.672566 0.619308 0.239003
H8    H     H_    0.902708 0.537874 0.691771 0.206690
H9    H     H_    0.140812 0.669517 0.622032 0.240886
H10   H     H_    0.672365 0.621804 0.116992 0.157551
H11   H     H_    0.143492 0.532508 0.692794 0.207725
H12   H     H_    0.740386 0.455155 0.903048 0.152025
H13   H     H_    0.721351 0.420794 0.758535 0.195012
H14   H     H_    0.256288 0.488814 0.243360 0.157579
H15   H     H_    0.365138 0.664058 0.880373 0.157863
H16   H     H_    0.244281 0.529342 0.099040 0.146786
H17   H     H_    0.348100 0.631859 0.737222 0.159660
H18   H     H_    0.277313 0.112544 0.472196 0.190393
N1    N     N_2   0.561002 0.563235 0.985960 -0.199565
N2    N     N_2   0.449331 0.581450 0.013556 -0.198729
N3    N     N_R   0.142860 0.499130 0.500540 -0.120874
N4    N     N_R   0.857210 0.499170 0.500530 -0.104921
O1    O     O_R   0.614690 0.316790 0.499990 -0.591758
O2    O     O_R   0.385350 0.316760 0.500000 -0.626300
O3    O     O_R   0.627460 0.498860 0.616130 -0.600473
O4    O     O_R   0.398120 0.498820 0.616130 -0.620711
O5    O     O_R   0.614650 0.683240 0.500000 -0.590040
O6    O     O_R   0.385310 0.683210 0.500010 -0.629808
O7    O     O_R   0.601880 0.501180 0.383870 -0.624916
O8    O     O_R   0.372540 0.501140 0.383870 -0.633118
Zn1   Zn    Zn3+2 0.653130 0.500020 0.499990 1.020161
Zn2   Zn    Zn3+2 0.346870 0.499980 0.500010 0.961789
S1    S     S_3+6 0.882155 0.876187 0.455447 0.003531
O9    O     O_2   0.830013 0.764738 0.408400 -0.313082
O10   O     O_2   0.913661 0.979552 0.398277 -0.303158
O11   O     O_3   0.024503 0.837393 0.511479 -0.576498
H19   H     H_    0.066149 0.769715 0.481911 0.370063
S2    S     S_3+6 0.742804 0.104033 0.636033 -0.002297
O12   O     O_2   0.858263 0.042760 0.685205 -0.278087
O13   O     O_2   0.753175 0.243330 0.646011 -0.321996
O14   O     O_3   0.594368 0.052399 0.667211 -0.574896
H20   H     H_    0.592198 0.084621 0.722167 0.385404

loop_
_geom_bond_atom_site_label_1
_geom_bond_atom_site_label_2
_ccdc_geom_bond_type
C14   C23   S    
O6    Zn2   S    
C23   O6    A    
C17   H4    S    
C1    O2    A    
S1    O10   D    
O5    Zn1   S    
C29   C30   A    
C16   S1    S    
C16   H3    S    
C5    C8    A    
C18   C21   A    
O2    Zn2   S    
C9    C10   A    
C13   H2    S    
C19   C20   A    
C2    H13   S    
C2    C30   A    
C23   O5    A    
O11   H19   S    
C11   H18   S    
S1    O11   S    
O14   H20   S    
C20   N4    A    
C19   H5    S    
C13   C14   A    
C9    C17   S    
C4    H1    S    
C24   H11   S    
C11   C13   A    
C26   C27   A    
C12   O4    A    
N3    Zn2   S    
S2    O14   S    
C18   C24   S    
O3    Zn1   S    
O8    Zn2   S    
C28   C29   A    
C25   O8    A    
C3    H10   S    
N1    N2    D    
C6    C7    A    
C22   C24   S    
N4    Zn1   S    
C9    C15   A    
C28   H15   S    
O4    Zn2   S    
C5    N2    S    
O7    Zn1   S    
C12   O3    A    
C16   C17   S    
C10   C11   A    
C15   C16   S    
C20   H6    S    
C19   N3    A    
C7    C8    A    
C24   H9    S    
C3    C4    A    
C2    C26   A    
C4    C6    A    
C6    C25   S    
C27   H17   S    
C27   C28   A    
C18   N3    A    
S2    O13   D    
C1    O1    A    
C14   C15   A    
C30   H12   S    
C17   S2    S    
C29   N1    S    
C25   O7    A    
C8    H16   S    
C7    H14   S    
C21   C22   S    
C22   H7    S    
O1    Zn1   S    
C21   N4    A    
C1    C10   S    
S1    O9    D    
C12   C26   S    
S2    O12   D    
C3    C5    A    
C22   H8    S    
