data_mof_unit_37898.cif
_audit_creation_date              2012-10-26T18:43:32-0400
_audit_creation_method            fapswitch 2.2
_symmetry_space_group_name_H-M    P1
_symmetry_Int_Tables_number       1
_space_group_crystal_system       triclinic
_cell_length_a                    10.817612
_cell_length_b                    10.870034
_cell_length_c                    9.590181
_cell_angle_alpha                 88.120563
_cell_angle_beta                  89.471876
_cell_angle_gamma                 92.027258
_cell_volume                      1126.31552139

loop_
_atom_site_label
_atom_site_type_symbol
_atom_type_description
_atom_site_fract_x
_atom_site_fract_y
_atom_site_fract_z
_atom_type_partial_charge
C1    C     C_R   0.503225 0.262087 0.501095 0.544421
C2    C     C_R   0.541045 0.931765 0.616970 0.012925
C3    C     C_3   0.475798 0.914333 0.753799 -0.264618
C4    C     C_R   0.259777 0.498160 0.499851 0.551232
C5    C     C_3   0.475480 0.052750 0.757310 -0.276956
C6    C     C_R   0.546518 0.599560 0.069062 0.145879
C7    C     C_R   0.442083 0.408807 0.079836 0.024076
C8    C     C_R   0.439667 0.409279 0.931626 0.240322
C9    C     C_R   0.548626 0.598466 0.921984 0.134841
C10   C     C_3   0.679292 0.646386 0.914951 -0.290201
C11   C     C_3   0.675073 0.651925 0.072563 -0.273187
C12   C     C_3   0.877690 0.497080 0.497791 0.066648
C13   C     C_R   0.504397 0.737442 0.497843 0.541564
C14   C     C_R   0.739850 0.498550 0.499537 0.578234
C15   C     C_3   0.067282 0.460225 0.643578 -0.285052
C16   C     C_3   0.926129 0.471569 0.647998 -0.301468
C17   C     C_3   0.077916 0.628614 0.458748 -0.204864
C18   C     C_3   0.068552 0.405648 0.387091 -0.004262
C19   C     C_3   0.121561 0.497835 0.496745 0.015141
C20   C     C_3   0.852064 0.244889 0.230139 -0.303493
C21   C     C_3   0.889999 0.805227 0.299243 -0.330857
C22   C     C_3   0.250053 0.298389 0.881219 -0.299931
C23   C     C_3   0.934292 0.627956 0.453025 0.027720
C24   C     C_3   0.926146 0.388639 0.409365 0.050575
C25   C     C_R   0.540539 0.058597 0.619715 0.013598
C26   C     C_R   0.517697 0.128795 0.498825 0.005985
C27   C     C_R   0.516583 0.068478 0.370389 -0.168298
C28   C     C_R   0.518109 0.939944 0.367848 -0.174697
C29   C     C_R   0.520501 0.870485 0.493747 0.004548
Cu1   Cu    Cu3+1 0.499990 0.499980 0.640670 0.963607
Cu2   Cu    Cu3+1 0.500010 0.500020 0.359330 0.971213
H1    H     H_    0.107869 0.520185 0.724377 0.155595
H2    H     H_    0.089170 0.363086 0.668240 0.111717
H3    H     H_    0.743368 0.576662 0.877902 0.145763
H4    H     H_    0.690392 0.738186 0.861495 0.119232
H5    H     H_    0.739055 0.588392 0.124238 0.170024
H6    H     H_    0.677246 0.747367 0.110516 0.125804
H7    H     H_    0.882446 0.385544 0.695368 0.127308
H8    H     H_    0.902780 0.547666 0.717249 0.125929
H9    H     H_    0.110578 0.693516 0.539153 0.084261
H10   H     H_    0.902352 0.692605 0.532901 0.123613
H11   H     H_    0.110169 0.314558 0.406788 0.104519
H12   H     H_    0.120539 0.663743 0.358687 0.170333
H13   H     H_    0.910898 0.303034 0.475778 0.107108
H14   H     H_    0.862398 0.437603 0.204975 0.281917
H15   H     H_    0.792554 0.241758 0.136487 0.139721
H16   H     H_    0.810773 0.179927 0.310969 0.140135
H17   H     H_    0.945978 0.215526 0.201582 0.159153
H18   H     H_    0.931955 0.631714 0.233816 0.278286
H19   H     H_    0.865442 0.830580 0.190252 0.133773
H20   H     H_    0.982444 0.847892 0.320699 0.136524
H21   H     H_    0.819836 0.842391 0.370349 0.152863
H22   H     H_    0.418411 0.228560 0.911276 0.205864
H23   H     H_    0.507598 0.119417 0.272260 0.128944
H24   H     H_    0.222301 0.257928 0.985226 0.139005
H25   H     H_    0.212564 0.236642 0.800838 0.125762
H26   H     H_    0.210418 0.390431 0.868378 0.187649
H27   H     H_    0.509702 0.895517 0.268751 0.131166
H28   H     H_    0.381693 0.870775 0.744992 0.145202
H29   H     H_    0.534296 0.873251 0.836044 0.130823
H30   H     H_    0.380429 0.087742 0.750406 0.148675
H31   H     H_    0.536679 0.088414 0.840343 0.124842
H32   H     H_    0.398085 0.333071 0.139678 0.134231
I1    I     I_    0.120919 0.455125 0.170840 -0.552730
N1    N     N_R   0.500800 0.500930 0.147930 -0.242623
N2    N     N_R   0.500800 0.500890 0.852020 -0.210798
N3    N     N_2   0.857919 0.368894 0.281017 -0.476933
N4    N     N_2   0.892114 0.672432 0.317459 -0.511377
N5    N     N_2   0.383054 0.307079 0.868087 -0.465222
O1    O     O_R   0.500000 0.319640 0.618810 -0.466159
O2    O     O_R   0.500010 0.319680 0.381230 -0.521412
O3    O     O_R   0.317690 0.499960 0.618790 -0.494733
O4    O     O_R   0.317700 0.500000 0.381210 -0.466215
O5    O     O_R   0.499990 0.680320 0.618770 -0.506710
O6    O     O_R   0.500000 0.680360 0.381190 -0.502795
O7    O     O_R   0.682300 0.500000 0.618790 -0.533297
O8    O     O_R   0.682310 0.500040 0.381210 -0.459383

loop_
_geom_bond_atom_site_label_1
_geom_bond_atom_site_label_2
_ccdc_geom_bond_type
C8    N2    A    
H18   N4    S    
C20   N3    S    
C21   H20   S    
H22   N5    S    
C22   H26   S    
C27   H23   S    
C15   H1    S    
C15   C19   S    
C12   C23   S    
C8    N5    S    
C17   C23   S    
C2    C29   A    
C18   C24   S    
C13   C29   S    
C11   H5    S    
C18   H11   S    
Cu1   Cu2   S    
Cu1   O5    S    
Cu2   O4    S    
C15   C16   S    
C18   C19   S    
C14   O8    A    
C11   H6    S    
C9    N2    A    
C24   N3    S    
C4    C19   S    
C6    N1    A    
C12   C16   S    
H14   N3    S    
C10   H4    S    
C9    C10   S    
C22   N5    S    
C3    H29   S    
Cu2   O2    S    
C6    C9    A    
C21   H19   S    
Cu1   O1    S    
Cu2   O8    S    
C13   O6    A    
C7    C8    A    
C6    C11   S    
C22   H25   S    
C25   C26   A    
C17   H9    S    
C14   O7    A    
C23   N4    S    
C17   H12   S    
C7    N1    A    
Cu1   O7    S    
Cu2   O6    S    
C26   C27   A    
C5    H30   S    
C10   H3    S    
Cu1   N2    S    
C7    H32   S    
C4    O4    A    
C20   H17   S    
C5    C25   S    
C12   C14   S    
C21   N4    S    
C1    C26   S    
C24   H13   S    
C4    O3    A    
Cu2   N1    S    
C28   C29   A    
C3    C5    S    
Cu1   O3    S    
C22   H24   S    
C28   H27   S    
C12   C24   S    
C1    O1    A    
C23   H10   S    
C2    C3    S    
C18   I1    S    
C1    O2    A    
C17   C19   S    
C5    H31   S    
C2    C25   A    
C20   H16   S    
C10   C11   S    
C16   H8    S    
C13   O5    A    
C27   C28   A    
C15   H2    S    
C21   H21   S    
C20   H15   S    
C16   H7    S    
C3    H28   S    
