data_mof_unit_58602.cif
_audit_creation_date              2012-12-10T20:36:35-0500
_audit_creation_method            fapswitch 2.2
_symmetry_space_group_name_H-M    P1
_symmetry_Int_Tables_number       1
_space_group_crystal_system       triclinic
_cell_length_a                    10.499742
_cell_length_b                    10.672947
_cell_length_c                    9.880262
_cell_angle_alpha                 89.916512
_cell_angle_beta                  89.191518
_cell_angle_gamma                 90.198039
_cell_volume                      1107.09558032

loop_
_atom_site_label
_atom_site_type_symbol
_atom_type_description
_atom_site_fract_x
_atom_site_fract_y
_atom_site_fract_z
_atom_type_partial_charge
C1    C     C_R   0.503930 0.259983 0.500044 0.871528
C2    C     C_3   0.962260 0.496687 0.369841 -0.139492
C3    C     C_3   0.043337 0.395482 0.439227 -0.186307
C4    C     C_3   0.122161 0.500328 0.502074 0.027585
C5    C     C_R   0.522055 0.063655 0.622697 0.142765
C6    C     C_R   0.524502 0.128614 0.500474 -0.106265
C7    C     C_R   0.551747 0.065130 0.379296 -0.231129
C8    C     C_R   0.552130 0.935509 0.379225 -0.234316
C9    C     C_R   0.525343 0.871365 0.500349 -0.106198
C10   C     C_R   0.522778 0.935846 0.622691 0.128078
C11   C     C_3   0.429735 0.927652 0.738323 -0.475344
C12   C     C_R   0.257284 0.500187 0.500850 0.858454
C13   C     C_3   0.428325 0.069595 0.737747 -0.502741
C14   C     C_R   0.417892 0.424463 0.072818 0.176878
C15   C     C_R   0.588005 0.566483 0.070463 -0.135575
C16   C     C_R   0.587831 0.566730 0.926615 -0.128863
C17   C     C_R   0.418376 0.423646 0.930114 0.162603
C18   C     C_3   0.275876 0.428723 0.928739 -0.141308
C19   C     C_3   0.276251 0.428948 0.082521 -0.488434
C20   C     C_R   0.504393 0.739971 0.499871 0.874024
C21   C     C_R   0.742651 0.499884 0.499011 0.856824
C22   C     C_3   0.037284 0.503509 0.628927 -0.143475
C23   C     C_3   0.955928 0.398597 0.566124 -0.168320
C24   C     C_3   0.877639 0.499819 0.497007 0.035160
C25   C     C_3   0.956407 0.604683 0.559539 -0.186038
C26   C     C_3   0.043845 0.601544 0.432686 -0.180587
H1    H     H_    0.915482 0.315969 0.620178 0.136188
H2    H     H_    0.473234 0.887323 0.830538 0.203387
H3    H     H_    0.335221 0.109129 0.707200 0.194080
H4    H     H_    0.470219 0.111592 0.829979 0.203253
H5    H     H_    0.657378 0.622387 0.123537 0.140449
H6    H     H_    0.656985 0.622931 0.871334 0.145885
H7    H     H_    0.238303 0.516456 0.883936 0.173736
H8    H     H_    0.235685 0.343059 0.130484 0.200002
H9    H     H_    0.069285 0.506890 0.735075 0.145689
H10   H     H_    0.084482 0.684117 0.378701 0.130246
H11   H     H_    0.927623 0.493902 0.264228 0.141910
H12   H     H_    0.083638 0.310419 0.390540 0.129045
H13   H     H_    0.563815 0.114426 0.284025 0.171882
H14   H     H_    0.564326 0.886625 0.283923 0.169051
H15   H     H_    0.337259 0.885021 0.709283 0.200981
N1    N     N_R   0.499140 0.499140 0.142800 -0.102740
N2    N     N_R   0.499140 0.499180 0.857150 -0.113837
O1    O     O_R   0.500020 0.316790 0.614690 -0.617407
O2    O     O_R   0.500000 0.316760 0.385350 -0.620486
O3    O     O_R   0.313960 0.499990 0.614650 -0.637401
O4    O     O_R   0.313940 0.499950 0.385310 -0.618718
O5    O     O_R   0.500000 0.683240 0.614650 -0.618314
O6    O     O_R   0.499980 0.683210 0.385310 -0.623140
O7    O     O_R   0.686060 0.500050 0.614690 -0.622244
O8    O     O_R   0.686040 0.500010 0.385350 -0.629845
Zn1   Zn    Zn3+2 0.500010 0.500020 0.653130 0.931452
Zn2   Zn    Zn3+2 0.499990 0.499980 0.346870 0.935198
N3    N     N_3   0.218084 0.315127 0.873286 -0.454064
H16   H     H_    0.261938 0.235627 0.913349 0.189262
H17   H     H_    0.235556 0.314307 0.768941 0.208508
H18   H     H_    0.240750 0.518291 0.126526 0.200233
H19   H     H_    0.916217 0.689806 0.608200 0.128253

loop_
_geom_bond_atom_site_label_1
_geom_bond_atom_site_label_2
_ccdc_geom_bond_type
C4    C26   S    
C23   C24   S    
C17   N2    A    
C15   H5    S    
C20   O6    A    
C23   H1    S    
C16   H6    S    
C4    C22   S    
C9    C10   A    
C9    C20   S    
O7    Zn1   S    
C14   C17   A    
C14   N1    A    
O4    Zn2   S    
C5    C13   S    
O1    Zn1   S    
C17   C18   S    
O2    Zn2   S    
C7    C8    A    
C2    C26   S    
C19   H18   S    
C22   H9    S    
C11   C13   S    
C2    H11   S    
C1    O2    A    
C20   O5    A    
C11   H2    S    
C12   O4    A    
O6    Zn2   S    
C26   H10   S    
C21   O7    A    
C11   H15   S    
C6    C7    A    
C2    C3    S    
N1    Zn2   S    
C2    C24   S    
C5    C6    A    
C18   H7    S    
N3    H17   S    
N2    Zn1   S    
C16   N2    A    
C21   O8    A    
C4    C12   S    
C10   C11   S    
C18   N3    S    
C5    C10   A    
C15   C16   A    
O3    Zn1   S    
C13   H4    S    
O5    Zn1   S    
C8    H14   S    
C24   C25   S    
C15   N1    A    
C12   O3    A    
C18   C19   S    
C25   H19   S    
C21   C24   S    
C13   H3    S    
C7    H13   S    
C22   C23   S    
C1    O1    A    
C25   C26   S    
N3    H16   S    
C3    C23   S    
C14   C19   S    
C22   C25   S    
C3    C4    S    
C1    C6    S    
C3    H12   S    
C8    C9    A    
O8    Zn2   S    
C19   H8    S    
