data_mof_unit_18040.cif
_audit_creation_date              2013-03-05T15:41:17-0500
_audit_creation_method            fapswitch 2.2
_symmetry_space_group_name_H-M    P1
_symmetry_Int_Tables_number       1
_space_group_crystal_system       triclinic
_cell_length_a                    16.891
_cell_length_b                    16.750413
_cell_length_c                    16.929037
_cell_angle_alpha                 66.017683
_cell_angle_beta                  66.328298
_cell_angle_gamma                 65.795388
_cell_volume                      3829.74626388

loop_
_atom_site_label
_atom_site_type_symbol
_atom_site_description
_atom_site_fract_x
_atom_site_fract_y
_atom_site_fract_z
_atom_type_partial_charge
O1    O     O_R   0.982940 0.138950 0.510160 -0.589028
O2    O     O_R   0.017060 0.861050 0.489840 -0.610240
O3    O     O_R   0.138950 0.510160 0.982940 -0.583527
O4    O     O_R   0.861050 0.489840 0.017060 -0.593885
O5    O     O_R   0.510160 0.982940 0.138950 -0.614358
O6    O     O_R   0.489840 0.017060 0.861050 -0.596285
O7    O     O_R   0.489840 0.861050 0.017060 -0.561692
O8    O     O_R   0.510160 0.138950 0.982940 -0.582623
O9    O     O_R   0.017060 0.489840 0.861050 -0.550108
O10   O     O_R   0.982940 0.510160 0.138950 -0.599796
O11   O     O_R   0.861050 0.017060 0.489840 -0.567375
O12   O     O_R   0.138950 0.982940 0.510160 -0.589484
C1    C     C_R   0.324284 0.969576 0.450556 -0.015512
C2    C     C_R   0.673785 0.051861 0.541714 -0.008596
C3    C     C_R   0.988789 0.442105 0.318249 -0.023151
C4    C     C_R   0.050197 0.538470 0.677141 0.012530
C5    C     C_R   0.462034 0.333883 0.930677 -0.037144
C6    C     C_R   0.542342 0.672696 0.050780 0.001735
C7    C     C_R   0.574248 0.985477 0.686515 -0.036098
C8    C     C_R   0.459530 0.956860 0.321259 -0.038704
C9    C     C_R   0.687902 0.576261 0.982885 -0.033412
C10   C     C_R   0.323747 0.461109 0.948243 -0.017044
C11   C     C_R   0.003414 0.682788 0.565291 -0.020351
C12   C     C_R   0.954146 0.322960 0.458166 -0.027533
O13   O     O_R   0.867700 0.025880 0.612340 -0.594404
O14   O     O_R   0.132300 0.974120 0.387660 -0.620366
O15   O     O_R   0.025880 0.612340 0.867700 -0.599931
O16   O     O_R   0.974120 0.387660 0.132300 -0.621810
O17   O     O_R   0.612340 0.867700 0.025880 -0.616785
O18   O     O_R   0.387660 0.132300 0.974120 -0.625516
O19   O     O_R   0.387660 0.974120 0.132300 -0.610711
O20   O     O_R   0.612340 0.025880 0.867700 -0.584292
O21   O     O_R   0.132300 0.387660 0.974120 -0.602066
O22   O     O_R   0.867700 0.612340 0.025880 -0.619081
O23   O     O_R   0.974120 0.132300 0.387660 -0.598679
O24   O     O_R   0.025880 0.867700 0.612340 -0.612608
H1    H     H_    0.281090 0.946670 0.280977 0.211973
H2    H     H_    0.716084 0.061313 0.718035 0.229478
H3    H     H_    0.937153 0.283868 0.283288 0.215836
H4    H     H_    0.067203 0.715612 0.714942 0.216465
H5    H     H_    0.281441 0.281090 0.941954 0.213677
H6    H     H_    0.715061 0.711882 0.070673 0.213230
C13   C     C_R   0.963016 0.179044 0.437788 0.907510
C14   C     C_R   0.023643 0.822527 0.568143 0.923230
C15   C     C_R   0.178881 0.436875 0.965049 0.909219
C16   C     C_R   0.824462 0.570895 0.016661 0.933512
C17   C     C_R   0.436571 0.966630 0.178544 0.924523
C18   C     C_R   0.570478 0.016845 0.824430 0.938982
C19   C     C_R   0.561848 0.820426 0.038305 0.981197
C20   C     C_R   0.438076 0.179825 0.961817 0.903689
C21   C     C_R   0.039873 0.560669 0.821006 0.934111
C22   C     C_R   0.975525 0.432464 0.177665 0.932816
C23   C     C_R   0.820699 0.038119 0.561810 0.944341
C24   C     C_R   0.178489 0.972152 0.434155 0.898968
C25   C     C_R   0.416301 0.966625 0.408333 0.002028
C26   C     C_R   0.601680 0.012633 0.590651 0.020001
C27   C     C_R   0.976100 0.405132 0.412249 0.007151
C28   C     C_R   0.022013 0.586989 0.598205 0.021507
C29   C     C_R   0.414948 0.419940 0.947646 0.005999
C30   C     C_R   0.592445 0.601342 0.009754 0.018231
C31   C     C_R   0.275096 0.963745 0.401514 -0.098855
C32   C     C_R   0.722763 0.053877 0.592879 -0.059549
C33   C     C_R   0.971094 0.397785 0.272678 -0.092745
C34   C     C_R   0.056295 0.590047 0.723595 -0.067973
C35   C     C_R   0.409154 0.280188 0.938694 -0.081697
C36   C     C_R   0.591918 0.721131 0.056728 -0.028809
C37   C     C_R   0.609641 0.015242 0.730559 -0.106030
C38   C     C_R   0.407081 0.952341 0.275091 -0.048761
C39   C     C_R   0.730455 0.609667 0.016333 -0.096912
C40   C     C_R   0.276496 0.408453 0.945558 -0.082693
C41   C     C_R   0.026596 0.727240 0.605447 -0.077202
C42   C     C_R   0.947772 0.276736 0.407223 -0.059832
Zn1   Zn    Zn3+2 0.004880 0.004880 0.583590 1.223156
Zn2   Zn    Zn3+2 0.995120 0.995120 0.416410 1.194762
Zn3   Zn    Zn3+2 0.004880 0.583590 0.004880 1.210495
Zn4   Zn    Zn3+2 0.995120 0.416410 0.995120 1.204719
Zn5   Zn    Zn3+2 0.583590 0.004880 0.004880 1.212791
Zn6   Zn    Zn3+2 0.416410 0.995120 0.995120 1.184191
C43   C     C_R   0.513314 0.930393 0.733066 0.328165
C44   C     C_R   0.552839 0.955140 0.283856 0.318573
C45   C     C_R   0.961039 0.730042 0.494343 0.329179
C46   C     C_R   0.938474 0.289453 0.553470 0.339343
C47   C     C_R   0.735407 0.522264 0.921770 0.335338
C48   C     C_R   0.285828 0.555905 0.943561 0.349557
C49   C     C_R   0.287114 0.978875 0.539778 0.320341
C50   C     C_R   0.695578 0.085052 0.444819 0.331727
C51   C     C_R   0.558706 0.309896 0.899661 0.320528
C52   C     C_R   0.445964 0.694430 0.080423 0.325591
C53   C     C_R   0.021143 0.520223 0.274540 0.327930
C54   C     C_R   0.069960 0.441197 0.707078 0.362915
C55   C     C_R   0.318688 0.951214 0.317256 -0.234612
C56   C     C_R   0.683755 0.047572 0.682982 -0.181833
C57   C     C_R   0.947836 0.318223 0.318792 -0.225349
C58   C     C_R   0.054591 0.679900 0.682237 -0.226524
C59   C     C_R   0.319923 0.320818 0.939467 -0.221056
C60   C     C_R   0.681344 0.680876 0.053426 -0.242468
C61   C     C_R   0.655825 0.064131 0.397595 -0.143195
C62   C     C_R   0.348066 0.947993 0.590722 -0.166943
C63   C     C_R   0.036970 0.398779 0.673516 -0.124458
C64   C     C_R   0.999268 0.579026 0.326046 -0.168896
C65   C     C_R   0.402991 0.663714 0.045396 -0.129376
C66   C     C_R   0.604388 0.366605 0.898210 -0.150604
C67   C     C_R   0.584401 0.999233 0.316256 -0.159471
C68   C     C_R   0.462960 0.924929 0.686392 -0.156617
C69   C     C_R   0.320524 0.592255 0.981259 -0.134610
C70   C     C_R   0.690113 0.477642 0.905966 -0.139155
C71   C     C_R   0.974596 0.320423 0.595308 -0.134203
C72   C     C_R   0.978322 0.682566 0.433769 -0.168296
C73   C     C_R   0.676982 0.087828 0.301202 0.376239
C74   C     C_R   0.329405 0.902756 0.683351 0.390941
C75   C     C_R   0.026434 0.309750 0.717468 0.372603
C76   C     C_R   0.988575 0.673928 0.288699 0.393148
C77   C     C_R   0.312947 0.708902 0.039769 0.408440
C78   C     C_R   0.695692 0.363757 0.848051 0.380756
C79   C     C_R   0.647928 0.048019 0.261970 0.373948
C80   C     C_R   0.394142 0.879920 0.727779 0.391203
C81   C     C_R   0.272997 0.674963 0.005711 0.429159
C82   C     C_R   0.731901 0.428288 0.842229 0.382132
C83   C     C_R   0.993316 0.271982 0.680050 0.406826
C84   C     C_R   0.977552 0.725916 0.342527 0.378554
C85   C     C_R   0.546152 0.998222 0.406212 -0.024269
C86   C     C_R   0.483649 0.963762 0.592488 -0.020828
C87   C     C_R   0.992329 0.405354 0.549262 -0.004825
C88   C     C_R   0.994148 0.587479 0.467986 -0.013006
C89   C     C_R   0.410102 0.547918 0.986702 -0.007797
C90   C     C_R   0.597919 0.487868 0.949793 -0.016001
C91   C     C_R   0.587743 0.019909 0.449313 -0.006052
C92   C     C_R   0.432012 0.963476 0.545425 -0.020386
C93   C     C_R   0.453178 0.588329 0.010476 -0.003225
C94   C     C_R   0.553935 0.437942 0.939491 -0.020687
C95   C     C_R   0.013656 0.447803 0.592028 0.010313
C96   C     C_R   0.993840 0.538813 0.417816 -0.017187
C97   C     C_R   0.464906 0.976377 0.453246 0.049927
C98   C     C_R   0.557985 0.998974 0.544191 0.061841
C99   C     C_R   0.987810 0.449468 0.459854 0.053408
C100  C     C_R   0.009924 0.540555 0.552979 0.067747
C101  C     C_R   0.459627 0.467173 0.959976 0.054274
C102  C     C_R   0.547659 0.556879 0.993314 0.063198
Cl1   Cl    Cl    0.402377 0.777819 0.817205 -0.490397
Cl2   Cl    Cl    0.676501 0.075331 0.143115 -0.419669
Cl3   Cl    Cl    0.978177 0.841236 0.290592 -0.387136
Cl4   Cl    Cl    0.988396 0.158623 0.736625 -0.314280
Cl5   Cl    Cl    0.808867 0.467226 0.738208 -0.501577
Cl6   Cl    Cl    0.161475 0.736673 0.998770 -0.299408
Cl7   Cl    Cl    0.235354 0.859458 0.738759 -0.371030
Cl8   Cl    Cl    0.725939 0.176402 0.225977 -0.406219
Cl9   Cl    Cl    0.766607 0.290036 0.781853 -0.369275
Cl10  Cl    Cl    0.255254 0.818332 0.057597 -0.361507
Cl11  Cl    Cl    0.974874 0.730468 0.179278 -0.361369
Cl12  Cl    Cl    0.040774 0.248430 0.826280 -0.360197
N1    N     N_R   0.507504 0.875746 0.824516 0.222297
O25   O     O_R   0.580128 0.816743 0.846410 -0.405541
O26   O     O_R   0.429931 0.885625 0.886054 -0.314647
N2    N     N_R   0.618211 0.886065 0.240024 0.243974
O27   O     O_R   0.594141 0.820276 0.242574 -0.371444
O28   O     O_R   0.704363 0.876300 0.216114 -0.285027
N3    N     N_R   0.880233 0.807233 0.504193 0.242127
O29   O     O_R   0.845087 0.829209 0.579188 -0.396563
O30   O     O_R   0.828712 0.838509 0.451596 -0.334943
N4    N     N_R   0.861141 0.255402 0.604179 0.242487
O31   O     O_R   0.785061 0.302783 0.583938 -0.307734
O32   O     O_R   0.868770 0.172240 0.656958 -0.267005
N5    N     N_R   0.827638 0.516521 0.872066 0.219883
O33   O     O_R   0.849646 0.590550 0.818367 -0.387922
O34   O     O_R   0.887495 0.436713 0.873358 -0.326339
N6    N     N_R   0.252878 0.615804 0.866529 0.227518
O35   O     O_R   0.307575 0.616255 0.786164 -0.326069
O36   O     O_R   0.168260 0.662828 0.874641 -0.287397
N7    N     N_R   0.209101 0.055140 0.558402 0.236574
O37   O     O_R   0.186536 0.125963 0.492312 -0.398980
O38   O     O_R   0.172440 0.062509 0.639836 -0.300785
N8    N     N_R   0.751103 0.145659 0.396995 0.219191
O39   O     O_R   0.729816 0.218311 0.420677 -0.366884
O40   O     O_R   0.829487 0.121601 0.340125 -0.295199
N9    N     N_R   0.608158 0.237390 0.858147 0.241030
O41   O     O_R   0.667080 0.165612 0.893047 -0.268636
O42   O     O_R   0.589672 0.239796 0.789469 -0.349453
N10   N     N_R   0.394824 0.725571 0.160177 0.232952
O43   O     O_R   0.322745 0.700639 0.213114 -0.316945
O44   O     O_R   0.430229 0.756783 0.192791 -0.391504
N11   N     N_R   0.102124 0.517389 0.198992 0.240160
O45   O     O_R   0.146110 0.442847 0.174492 -0.419353
O46   O     O_R   0.145485 0.576552 0.172532 -0.354320
N12   N     N_R   0.148946 0.388731 0.738794 0.197455
O47   O     O_R   0.228156 0.391410 0.682450 -0.355535
O48   O     O_R   0.143107 0.346225 0.823531 -0.316069

loop_
_geom_bond_atom_site_label_1
_geom_bond_atom_site_label_2
_geom_bond_distance
_ccdc_geom_bond_type
C7    C26   1.422758 A    
C11   C28   1.408714 A    
C2    C26   1.415959 A    
O23   Zn2   2.050325 S    
C4    C54   1.428867 A    
C13   C42   1.443934 S    
C62   C74   1.401976 A    
C74   C80   1.411124 A    
N7    O38   1.299760 A    
N7    O37   1.302722 A    
C72   C84   1.417742 A    
N5    O33   1.300963 A    
O9    C21   1.235686 A    
C91   C98   1.412046 A    
C71   C87   1.407727 A    
C61   C91   1.414396 A    
C39   C60   1.372741 A    
O10   C22   1.230176 A    
C52   C65   1.429371 A    
N9    O42   1.301526 A    
C41   C58   1.374957 A    
O4    C16   1.238227 A    
N11   O45   1.302258 A    
O5    C17   1.236737 A    
N3    O29   1.302039 A    
O6    C18   1.248720 A    
H6    C60   1.085666 S    
C77   Cl10  1.774670 S    
C36   C60   1.366409 A    
N5    O34   1.302101 A    
O13   C23   1.293579 A    
C78   Cl9   1.746342 S    
C85   C91   1.412148 A    
C9    C39   1.436843 A    
O6    Zn6   2.063992 S    
C68   C86   1.404312 A    
C90   C94   1.419078 A    
C2    C32   1.434535 A    
H2    C56   1.085179 S    
C38   C55   1.376748 A    
O21   C15   1.286148 A    
N12   O47   1.300609 A    
C88   C96   1.398489 A    
C14   C41   1.445494 S    
C75   C83   1.419475 A    
O10   Zn3   2.056845 S    
C50   C61   1.436856 A    
C12   C46   1.425095 A    
C22   C33   1.452472 S    
H3    C57   1.085529 S    
C16   C39   1.449714 S    
C49   C62   1.408884 A    
O20   Zn5   2.079224 S    
C68   C80   1.430274 A    
O1    C13   1.241872 A    
C86   C98   1.408499 A    
C93   C102  1.404087 A    
C9    C47   1.425250 A    
O15   C21   1.291605 A    
C12   C27   1.397714 A    
C32   C56   1.375161 A    
N1    O25   1.300820 A    
C7    C37   1.437533 A    
O22   C16   1.278686 A    
O9    Zn4   2.056845 S    
C74   Cl7   1.767703 S    
O3    Zn3   2.047212 S    
N2    O28   1.301485 A    
O11   C23   1.248539 A    
O22   Zn3   2.071231 S    
C80   Cl1   1.762220 S    
C62   C92   1.390166 A    
O18   C20   1.296516 A    
C45   C72   1.414699 A    
N3    O30   1.301458 A    
O19   C17   1.290611 A    
O12   Zn1   2.058422 S    
C70   C82   1.407483 A    
N6    O36   1.299735 A    
C3    C27   1.412674 A    
C69   C81   1.422141 A    
N6    O35   1.301014 A    
H5    C59   1.084908 S    
C72   C88   1.403226 A    
C8    C25   1.402355 A    
O15   Zn3   2.078555 S    
O14   C24   1.296246 A    
C71   C83   1.422699 A    
N8    O40   1.302513 A    
N10   O43   1.302449 A    
N11   O46   1.300025 A    
C30   C102  1.415618 A    
C45   N3    1.451867 S    
C19   C36   1.460969 S    
C8    C44   1.435975 A    
C44   C67   1.420393 A    
C11   C41   1.426256 A    
C81   Cl6   1.764371 S    
O7    C19   1.243146 A    
C9    C30   1.412133 A    
C82   Cl5   1.771963 S    
O2    C14   1.245041 A    
C10   C29   1.403857 A    
C76   C84   1.413956 A    
C88   C100  1.405657 A    
O17   C19   1.293430 A    
C53   C64   1.417048 A    
C28   C100  1.404533 A    
C25   C97   1.411029 A    
O3    C15   1.229966 A    
C6    C52   1.428645 A    
C87   C99   1.407178 A    
C53   N11   1.449262 S    
C67   C79   1.407288 A    
C66   C78   1.422254 A    
C3    C53   1.425798 A    
C51   C66   1.437057 A    
C46   N4    1.442555 S    
C23   C32   1.462521 S    
O21   Zn4   2.071232 S    
N10   O44   1.300759 A    
N9    O41   1.303321 A    
C63   C75   1.420728 A    
C10   C48   1.429114 A    
C48   C69   1.424892 A    
C1    C31   1.440641 A    
C4    C28   1.408387 A    
C46   C71   1.431181 A    
C7    C43   1.438049 A    
C2    C50   1.441146 A    
N2    O27   1.302363 A    
C78   C82   1.399733 A    
C5    C29   1.416346 A    
O7    Zn6   2.031618 S    
C77   C81   1.415785 A    
C42   C57   1.370297 A    
C6    C30   1.414389 A    
C54   N12   1.439020 S    
C64   C76   1.413716 A    
C65   C93   1.410417 A    
O8    Zn5   2.031616 S    
C50   N8    1.438250 S    
C43   C68   1.420700 A    
O24   C14   1.280686 A    
C84   Cl3   1.770048 S    
O5    Zn5   2.063991 S    
O16   Zn4   2.078555 S    
C75   Cl12  1.767237 S    
O8    C20   1.243446 A    
C54   C63   1.430118 A    
O23   C13   1.288538 A    
N8    O39   1.301176 A    
C12   C42   1.428482 A    
O19   Zn6   2.079224 S    
C43   N1    1.429688 S    
C47   N5    1.426380 S    
C90   C102  1.408970 A    
C11   C45   1.426303 A    
C87   C95   1.413298 A    
C15   C40   1.449568 S    
C5    C51   1.431259 A    
C8    C38   1.435463 A    
C21   C34   1.457217 S    
C66   C94   1.417069 A    
H4    C58   1.085449 S    
O11   Zn2   2.058422 S    
O2    Zn2   2.035693 S    
C26   C98   1.402338 A    
C64   C96   1.400472 A    
C44   N2    1.449475 S    
C24   C31   1.462429 S    
C63   C95   1.408065 A    
C6    C36   1.435532 A    
C51   N9    1.434312 S    
C70   C90   1.400585 A    
C5    C35   1.444750 A    
C47   C70   1.418222 A    
C69   C89   1.408652 A    
C89   C101  1.414053 A    
N4    O31   1.301877 A    
C95   C100  1.404639 A    
C61   C73   1.438626 A    
O1    Zn1   2.035693 S    
C92   C97   1.385154 A    
O16   C22   1.285057 A    
C17   C38   1.450106 S    
O20   C18   1.285788 A    
C96   C99   1.399114 A    
C37   C56   1.378696 A    
O14   Zn2   2.072403 S    
N12   O48   1.299305 A    
C40   C59   1.372171 A    
O13   Zn1   2.072403 S    
N1    O26   1.302205 A    
C18   C37   1.462759 S    
C86   C92   1.400021 A    
C65   C77   1.417370 A    
C20   C35   1.470784 S    
C49   N7    1.442631 S    
O4    Zn4   2.047212 S    
C73   Cl8   1.769544 S    
C48   N6    1.441636 S    
O24   Zn1   2.050327 S    
C73   C79   1.420103 A    
C34   C58   1.371251 A    
O18   Zn6   2.049822 S    
C89   C93   1.417750 A    
C35   C59   1.373070 A    
O17   Zn5   2.049820 S    
C79   Cl2   1.773066 S    
C1    C49   1.431593 A    
C83   Cl4   1.765453 S    
C3    C33   1.438169 A    
C76   Cl11  1.766426 S    
C27   C99   1.405379 A    
C4    C34   1.437288 A    
C85   C97   1.395950 A    
C33   C57   1.370090 A    
C94   C101  1.397280 A    
C52   N10   1.451785 S    
C10   C40   1.433864 A    
C29   C101  1.410466 A    
O12   C24   1.238656 A    
C31   C55   1.376292 A    
H1    C55   1.084964 S    
N4    O32   1.299568 A    
C1    C25   1.415177 A    
C67   C85   1.390976 A    
