data_mof_unit_64528.cif
_audit_creation_date              2013-03-05T16:07:42-0500
_audit_creation_method            fapswitch 2.2
_symmetry_space_group_name_H-M    P1
_symmetry_Int_Tables_number       1
_space_group_crystal_system       triclinic
_cell_length_a                    10.778522
_cell_length_b                    11.573851
_cell_length_c                    16.751361
_cell_angle_alpha                 90.051933
_cell_angle_beta                  84.766349
_cell_angle_gamma                 89.992665
_cell_volume                      2081.00272777

loop_
_atom_site_label
_atom_site_type_symbol
_atom_site_description
_atom_site_fract_x
_atom_site_fract_y
_atom_site_fract_z
_atom_type_partial_charge
O1    O     O_R   0.397470 0.665550 0.500010 -0.615083
O2    O     O_R   0.602530 0.334450 0.499990 -0.622160
O3    O     O_R   0.602530 0.665550 0.499990 -0.589758
O4    O     O_R   0.397470 0.334450 0.500010 -0.579654
C1    C     C_R   0.499991 0.718839 0.500042 0.928576
C2    C     C_R   0.499983 0.281166 0.500259 0.926050
O5    O     O_R   0.385350 0.500000 0.615800 -0.629004
O6    O     O_R   0.614650 0.500000 0.384200 -0.621149
O7    O     O_R   0.590410 0.500000 0.615800 -0.571797
O8    O     O_R   0.409590 0.500000 0.384200 -0.568720
C3    C     C_R   0.482438 0.501856 0.653797 0.927538
C4    C     C_R   0.517481 0.493306 0.346475 0.894264
Zn1   Zn    Zn3+2 0.363080 0.500000 0.500000 1.042988
Zn2   Zn    Zn3+2 0.636920 0.500000 0.500000 1.035861
C5    C     C_R   0.470269 0.493404 0.740583 -0.168278
C6    C     C_R   0.530378 0.455585 0.263288 -0.172442
C7    C     C_R   0.560375 0.542484 0.786342 0.266491
C8    C     C_R   0.448352 0.372022 0.236091 0.272889
C9    C     C_R   0.556334 0.516290 0.868402 0.026964
C10   C     C_R   0.465842 0.332874 0.156782 0.020588
C11   C     C_R   0.463548 0.440708 0.902611 0.125378
C12   C     C_R   0.563105 0.379401 0.105142 0.129020
C13   C     C_R   0.370025 0.399856 0.857830 -0.186844
C14   C     C_R   0.649261 0.455343 0.134109 -0.178378
C15   C     C_R   0.373433 0.425789 0.777094 -0.234737
C16   C     C_R   0.633192 0.493065 0.212970 -0.229716
C17   C     C_2   0.459007 0.407730 0.986530 -0.157014
C18   C     C_2   0.561026 0.370988 0.018627 -0.140995
H1    H     H_    0.698886 0.554298 0.234091 0.176160
H2    H     H_    0.303513 0.388389 0.742316 0.180979
H3    H     H_    0.648398 0.359953 0.981564 0.157494
H4    H     H_    0.372203 0.422503 0.023480 0.161516
H5    H     H_    0.296675 0.344603 0.884897 0.160157
H6    H     H_    0.724217 0.491364 0.094234 0.159885
C19   C     C_1   0.499973 0.838962 0.500180 -0.143850
C20   C     C_1   0.500005 0.161049 0.500351 -0.120770
C21   C     C_1   0.499974 0.940852 0.500279 0.029568
C22   C     C_1   0.499989 0.059164 0.500345 0.035946
N1    N     N_1   0.819370 0.500000 0.500010 -0.066069
N2    N     N_1   0.180630 0.500000 0.499990 -0.061646
C23   C     C_1   0.930240 0.499993 0.500004 0.086014
C24   C     C_1   0.069762 0.499988 0.499991 0.096062
N3    N     N_R   0.651869 0.621738 0.750529 0.205824
O9    O     O_R   0.617632 0.708726 0.708514 -0.392553
O10   O     O_R   0.769841 0.604817 0.757020 -0.397186
N4    N     N_R   0.349682 0.324238 0.288916 0.204590
O11   O     O_R   0.236579 0.362791 0.287333 -0.389484
O12   O     O_R   0.370232 0.233452 0.331441 -0.409134
N5    N     N_3   0.384614 0.247404 0.127672 -0.444191
H7    H     H_    0.389259 0.173068 0.162681 0.228755
H8    H     H_    0.293327 0.278775 0.134978 0.217588
N6    N     N_3   0.640728 0.570575 0.918386 -0.455609
H9    H     H_    0.731325 0.543490 0.900067 0.224728
H10   H     H_    0.635285 0.660131 0.911346 0.224349

loop_
_geom_bond_atom_site_label_1
_geom_bond_atom_site_label_2
_geom_bond_distance
_ccdc_geom_bond_type
O7    Zn2   1.958764 S    
C7    N3    1.437751 S    
C21   C22   1.369325 S    
O7    C3    1.274683 A    
C23   C24   1.503818 S    
O6    C4    1.273950 A    
N3    O9    1.301428 A    
N5    H8    1.045379 S    
N2    C24   1.194994 T    
C11   C17   1.453501 S    
N1    C23   1.195007 T    
C6    C8    1.413328 A    
C12   C18   1.454632 S    
O5    C3    1.273651 A    
N3    O10   1.300861 A    
C14   C16   1.386682 A    
C10   N5    1.435310 S    
O3    Zn2   1.951533 S    
O8    C4    1.274174 A    
O1    C1    1.265602 A    
C1    C19   1.390288 S    
C20   C22   1.179203 T    
C19   C21   1.179264 T    
C2    C20   1.390210 S    
C8    C10   1.399657 A    
C11   C13   1.392780 A    
C6    C16   1.398971 A    
Zn2   N1    1.966555 S    
O2    Zn2   1.951627 S    
C12   C14   1.397146 A    
C5    C15   1.400179 A    
O1    Zn1   1.951626 S    
C10   C12   1.404574 A    
C7    C9    1.404698 A    
N4    O12   1.300253 A    
C8    N4    1.431539 S    
O5    Zn1   1.976213 S    
C13   C15   1.382834 A    
N6    H9    1.044548 S    
C16   H1    1.083605 S    
O4    C2    1.265661 A    
N5    H7    1.045418 S    
C17   C18   1.336878 D    
C5    C7    1.410197 A    
N4    O11   1.300666 A    
C15   H2    1.083714 S    
Zn1   N2    1.966557 S    
O6    Zn2   1.976215 S    
C4    C6    1.454404 S    
C13   H5    1.083899 S    
C17   H4    1.087133 S    
C9    C11   1.410814 A    
C3    C5    1.451117 S    
C9    N6    1.435755 S    
C18   H3    1.087113 S    
C14   H6    1.083908 S    
O2    C2    1.265430 A    
O4    Zn1   1.951534 S    
N6    H10   1.045541 S    
O3    C1    1.265522 A    
O8    Zn1   1.958766 S    
