data_mof_unit_17100.cif
_audit_creation_date              2012-12-11T15:09:35-0500
_audit_creation_method            fapswitch 2.2
_symmetry_space_group_name_H-M    P1
_symmetry_Int_Tables_number       1
_space_group_crystal_system       triclinic
_cell_length_a                    20.941054
_cell_length_b                    7.128829
_cell_length_c                    14.015732
_cell_angle_alpha                 89.998978
_cell_angle_beta                  98.263479
_cell_angle_gamma                 90.001406
_cell_volume                      2070.61773756

loop_
_atom_site_label
_atom_site_type_symbol
_atom_type_description
_atom_site_fract_x
_atom_site_fract_y
_atom_site_fract_z
_atom_type_partial_charge
O1    O     O_R   0.447130 0.507140 0.597350 -0.532779
O2    O     O_R   0.552870 0.007140 0.402650 -0.532785
O3    O     O_R   0.578910 0.181280 0.586990 -0.530217
O4    O     O_R   0.421090 0.681280 0.413010 -0.530222
C1    C     C_R   0.604484 0.344466 0.607378 0.762815
C2    C     C_R   0.395516 0.844465 0.392622 0.762830
O5    O     O_R   0.449230 0.177860 0.608640 -0.534165
O6    O     O_R   0.550770 0.677860 0.391360 -0.534172
O7    O     O_R   0.422260 0.000770 0.424450 -0.541609
O8    O     O_R   0.577740 0.500770 0.575550 -0.541610
C3    C     C_R   0.432600 0.345984 0.634374 0.837238
C4    C     C_R   0.567399 0.845990 0.365625 0.837250
O9    O     O_3   0.491310 0.336980 0.439550 -0.381004
O10   O     O_3   0.508690 0.836980 0.560450 -0.380996
V1    V     V_3+5 0.501610 0.064760 0.511210 1.579544
V2    V     V_3+5 0.498390 0.564760 0.488790 1.579528
C5    C     C_R   0.613261 0.778462 0.118344 0.336916
C6    C     C_R   0.386728 0.278332 0.881642 0.336898
C7    C     C_R   0.605213 0.850126 0.285564 -0.209306
C8    C     C_R   0.394785 0.350100 0.714436 -0.209297
C9    C     C_R   0.914760 0.834622 0.300214 0.097667
C10   C     C_R   0.085231 0.334793 0.699766 0.097602
C11   C     C_R   0.876548 0.780629 0.370449 0.312399
C12   C     C_R   0.123449 0.280933 0.629503 0.312641
C13   C     C_R   0.809231 0.765938 0.344653 0.402477
C14   C     C_R   0.190760 0.266056 0.655328 0.402522
C15   C     C_R   0.779272 0.827580 0.252705 -0.003139
C16   C     C_R   0.220722 0.327610 0.747287 -0.003203
C17   C     C_R   0.817539 0.850170 0.177217 -0.130588
C18   C     C_R   0.182455 0.350182 0.822774 -0.130609
C19   C     C_R   0.710923 0.842907 0.232043 -0.027953
C20   C     C_R   0.289072 0.342888 0.767952 -0.027928
C21   C     C_R   0.680534 0.818564 0.136248 -0.140090
C22   C     C_R   0.319458 0.318472 0.863743 -0.140075
C23   C     C_R   0.716907 0.847012 0.060682 0.359512
C24   C     C_R   0.283086 0.346899 0.939312 0.359517
C25   C     C_R   0.784852 0.862758 0.079882 0.133152
C26   C     C_R   0.215143 0.362714 0.920111 0.133172
C27   C     C_R   0.671633 0.886953 0.303357 0.238967
C28   C     C_R   0.328367 0.386966 0.696647 0.238950
C29   C     C_R   0.576015 0.791113 0.194235 0.280681
C30   C     C_R   0.423976 0.291011 0.805755 0.280696
C31   C     C_R   0.886243 0.856351 0.203425 -0.163233
C32   C     C_R   0.113752 0.356390 0.796565 -0.163145
C33   C     C_1   0.166559 0.857214 0.168344 -0.067529
C34   C     C_1   0.833441 0.357210 0.831656 -0.067483
C35   C     C_1   0.218971 0.854899 0.219458 0.075080
C36   C     C_1   0.781029 0.354897 0.780542 0.075090
C37   C     C_1   0.280720 0.853377 0.279478 0.061038
C38   C     C_1   0.719280 0.353379 0.720522 0.061046
C39   C     C_1   0.333101 0.851033 0.330694 -0.111715
C40   C     C_1   0.666899 0.351037 0.669306 -0.111711
O11   O     O_R   0.922300 0.202240 0.924350 -0.519938
O12   O     O_R   0.077700 0.702240 0.075650 -0.519958
O13   O     O_R   0.050780 0.535130 0.891350 -0.530510
O14   O     O_R   0.949220 0.035130 0.108650 -0.530517
C41   C     C_R   0.069664 0.368197 0.868264 0.862468
C42   C     C_R   0.930336 0.868191 0.131735 0.862345
O15   O     O_R   0.921100 0.531560 0.912990 -0.520645
O16   O     O_R   0.078900 0.031560 0.087010 -0.520657
O17   O     O_R   0.947120 0.708470 0.097370 -0.534951
O18   O     O_R   0.052880 0.208470 0.902630 -0.534894
C43   C     C_R   0.895898 0.363586 0.893437 0.756537
C44   C     C_R   0.104102 0.863587 0.106563 0.756473
O19   O     O_3   0.008710 0.375800 0.060400 -0.365528
O20   O     O_3   0.991290 0.875800 0.939600 -0.365469
V3    V     V_3+5 0.998380 0.648080 0.988790 1.619760
V4    V     V_3+5 0.001620 0.148080 0.011210 1.619760
O21   O     O_3   0.510740 0.749387 0.181708 -0.637804
H1    H     H_    0.495966 0.711848 0.114185 0.352563
O22   O     O_3   0.489248 0.249246 0.818278 -0.637794
H2    H     H_    0.504016 0.211616 0.885791 0.352577
O23   O     O_3   0.684511 0.870646 0.968376 -0.612935
H3    H     H_    0.704749 0.975628 0.937444 0.329731
O24   O     O_3   0.315481 0.370440 0.031625 -0.612934
H4    H     H_    0.295267 0.475452 0.062564 0.329742
O25   O     O_3   0.583574 0.716487 0.029662 -0.611298
H5    H     H_    0.613551 0.628580 0.003848 0.337277
O26   O     O_3   0.416409 0.216310 0.970314 -0.611297
H6    H     H_    0.386428 0.128391 0.996115 0.337275
Br1   Br    Br    0.704629 0.033165 0.416579 -0.487538
Br2   Br    Br    0.295383 0.533265 0.583448 -0.487606
Br3   Br    Br    0.007116 0.870273 0.334043 -0.498890
Br4   Br    Br    0.992856 0.370197 0.666025 -0.499095
O27   O     O_3   0.771725 0.675949 0.404545 -0.611085
H7    H     H_    0.798956 0.625564 0.462409 0.361845
O28   O     O_3   0.228257 0.176061 0.595426 -0.611074
H8    H     H_    0.201024 0.125712 0.537560 0.361897
O29   O     O_3   0.902653 0.739549 0.464522 -0.606965
H9    H     H_    0.950048 0.729386 0.470602 0.367867
O30   O     O_3   0.097372 0.240060 0.535389 -0.607051
H10   H     H_    0.049913 0.231597 0.529018 0.367947
Br5   Br    Br    0.826893 0.875895 0.965570 -0.554135
Br6   Br    Br    0.173105 0.375908 0.034424 -0.554159

loop_
_geom_bond_atom_site_label_1
_geom_bond_atom_site_label_2
_ccdc_geom_bond_type
O20   V4    S    
O28   H8    S    
C15   C17   A    
O23   H3    S    
O1    C3    A    
O2    C4    A    
C2    O7    A    
C41   O18   A    
C35   C37   S    
O25   H5    S    
O5    C3    A    
C23   C25   A    
C12   C14   A    
C6    C30   A    
O27   H7    S    
C8    C28   A    
C18   C26   A    
O11   V4    S    
C31   C42   S    
O15   V3    S    
C9    C31   A    
C10   C32   A    
C9    Br3   S    
O14   C42   A    
C6    O26   S    
C37   C39   T    
C38   C40   T    
C11   O29   S    
C1    C40   S    
C2    C39   S    
C42   O17   A    
O5    V1    S    
O20   V3    S    
O6    V2    S    
C17   C31   A    
C18   C32   A    
C5    C21   A    
C13   O27   S    
C33   C35   T    
C9    C11   A    
C34   C36   T    
C3    C8    S    
C19   C21   A    
C15   C19   A    
C28   Br2   S    
C16   C20   A    
C27   Br1   S    
O4    C2    A    
O30   H10   S    
C14   O28   S    
O12   V3    S    
O19   V3    S    
O14   V4    S    
C10   Br4   S    
O4    V2    S    
O24   H4    S    
C24   O24   S    
O17   V3    S    
O13   V3    S    
C32   C41   S    
O6    C4    A    
O19   V4    S    
C26   Br6   S    
C5    O25   S    
C25   Br5   S    
O1    V2    S    
O2    V1    S    
C6    C22   A    
C7    C27   A    
O13   C41   A    
C10   C12   A    
C24   C26   A    
C12   O30   S    
O3    V1    S    
C29   O21   S    
C23   O23   S    
O15   C43   A    
O3    C1    A    
C8    C30   A    
C13   C15   A    
C33   C44   S    
C14   C16   A    
O18   V4    S    
C34   C43   S    
O16   C44   A    
C16   C18   A    
O7    V1    S    
C1    O8    A    
O8    V2    S    
O11   C43   A    
O12   C44   A    
C4    C7    S    
C36   C38   S    
C30   O22   S    
C21   C23   A    
C19   C27   A    
C22   C24   A    
C20   C28   A    
O21   H1    S    
C5    C29   A    
O26   H6    S    
O22   H2    S    
C11   C13   A    
O16   V4    S    
O9    V2    S    
C17   C25   A    
O10   V1    S    
O29   H9    S    
C7    C29   A    
C20   C22   A    
