data_mof_unit_19537.cif
_audit_creation_date              2012-12-10T17:18:20-0500
_audit_creation_method            fapswitch 2.2
_symmetry_space_group_name_H-M    P1
_symmetry_Int_Tables_number       1
_space_group_crystal_system       triclinic
_cell_length_a                    10.200079
_cell_length_b                    10.484783
_cell_length_c                    14.970255
_cell_angle_alpha                 90.12107
_cell_angle_beta                  80.965592
_cell_angle_gamma                 93.328374
_cell_volume                      1578.43451474

loop_
_atom_site_label
_atom_site_type_symbol
_atom_type_description
_atom_site_fract_x
_atom_site_fract_y
_atom_site_fract_z
_atom_type_partial_charge
C1    C     C_R   0.553028 0.734286 0.488822 0.922429
C2    C     C_2   0.072558 0.484323 0.497159 -0.024135
C3    C     C_R   0.500928 0.504133 0.672754 0.894492
C4    C     C_R   0.499041 0.495840 0.327285 0.870524
C5    C     C_R   0.406358 0.407672 0.195470 0.156602
C6    C     C_R   0.593651 0.592154 0.804693 0.157780
C7    C     C_R   0.498072 0.489437 0.232081 -0.075954
C8    C     C_R   0.501805 0.510559 0.768060 -0.073920
C9    C     C_R   0.591427 0.569152 0.178354 -0.313140
C10   C     C_R   0.408130 0.431202 0.821871 -0.307149
C11   C     C_R   0.595070 0.573867 0.085503 0.114200
C12   C     C_R   0.446729 0.265563 0.500361 0.922737
C13   C     C_R   0.404577 0.426401 0.914728 0.112461
C14   C     C_R   0.499843 0.497276 0.046890 -0.023488
C15   C     C_R   0.500006 0.502765 0.953312 -0.024280
C16   C     C_R   0.404622 0.414919 0.101838 0.073399
C17   C     C_R   0.595355 0.584974 0.898346 0.072276
C18   C     C_R   0.690959 0.654254 0.030797 0.200244
C19   C     C_R   0.308613 0.346106 0.969467 0.200563
C20   C     C_3   0.315389 0.310200 0.254309 -0.939052
C21   C     C_3   0.684577 0.689574 0.745817 -0.938861
C22   C     C_3   0.795234 0.736352 0.069256 -0.930691
C23   C     C_R   0.690132 0.658327 0.938099 -0.217179
C24   C     C_3   0.203848 0.264537 0.931121 -0.931181
C25   C     C_3   0.610678 0.132682 0.351203 -0.845979
C26   C     C_3   0.389592 0.863094 0.372868 -0.818000
C27   C     C_3   0.112691 0.648625 0.601636 -0.657525
C28   C     C_3   0.894220 0.380036 0.382084 -0.667526
C29   C     C_R   0.309809 0.341617 0.062107 -0.217283
C30   C     C_2   0.575731 0.869443 0.467418 -0.379053
C31   C     C_2   0.422509 0.130236 0.483837 -0.388999
C32   C     C_2   0.493122 0.929869 0.421477 0.196233
C33   C     C_2   0.503243 0.068344 0.419883 0.204137
C34   C     C_2   0.924246 0.500259 0.513069 -0.021574
H1    H     H_    0.765456 0.719313 0.897341 0.164684
H2    H     H_    0.673794 0.786158 0.775677 0.235841
H3    H     H_    0.660062 0.629001 0.210776 0.174722
H4    H     H_    0.339222 0.371615 0.789512 0.172967
H5    H     H_    0.746460 0.805644 0.117981 0.241272
H6    H     H_    0.857264 0.675105 0.103892 0.247024
H7    H     H_    0.862775 0.791952 0.015948 0.240303
H8    H     H_    0.142022 0.326149 0.896600 0.247080
H9    H     H_    0.252153 0.195082 0.882334 0.240920
H10   H     H_    0.136159 0.209160 0.984478 0.240404
H11   H     H_    0.641707 0.066819 0.294567 0.227701
H12   H     H_    0.234670 0.280422 0.102848 0.164762
H13   H     H_    0.574306 0.218613 0.322056 0.237573
H14   H     H_    0.699027 0.158194 0.383579 0.245654
H15   H     H_    0.351424 0.931088 0.327658 0.221809
H16   H     H_    0.433965 0.784932 0.330278 0.231973
H17   H     H_    0.303481 0.824776 0.421990 0.254295
H18   H     H_    0.112710 0.412945 0.449727 0.144790
H19   H     H_    0.881567 0.557586 0.569355 0.144513
H20   H     H_    0.200249 0.696966 0.625514 0.239623
H21   H     H_    0.060519 0.721871 0.569400 0.183303
H22   H     H_    0.047147 0.604934 0.661369 0.187071
H23   H     H_    0.341191 0.078369 0.527006 0.132082
H24   H     H_    0.812401 0.353966 0.343848 0.242363
H25   H     H_    0.969379 0.441110 0.336958 0.192655
H26   H     H_    0.937332 0.290567 0.400314 0.181144
H27   H     H_    0.656066 0.922489 0.493650 0.131112
H28   H     H_    0.210364 0.335514 0.258791 0.239525
H29   H     H_    0.327140 0.213458 0.224858 0.237288
H30   H     H_    0.337832 0.301904 0.323903 0.246931
H31   H     H_    0.789486 0.663625 0.740696 0.237153
H32   H     H_    0.661073 0.698696 0.676503 0.243681
N1    N     N_2   0.842700 0.448880 0.462930 -0.047518
N2    N     N_2   0.157300 0.551120 0.537070 -0.051821
O1    O     O_R   0.431060 0.692470 0.507460 -0.596154
O2    O     O_R   0.568940 0.307530 0.492540 -0.583181
O3    O     O_R   0.651120 0.659650 0.483670 -0.611179
O4    O     O_R   0.348880 0.340350 0.516330 -0.616570
O5    O     O_R   0.389960 0.516440 0.644050 -0.609548
O6    O     O_R   0.610040 0.483560 0.355950 -0.620834
O7    O     O_R   0.610030 0.483620 0.620260 -0.611597
O8    O     O_R   0.389970 0.516380 0.379740 -0.610491
Zn1   Zn    Zn3+2 0.353060 0.521920 0.515880 0.939613
Zn2   Zn    Zn3+2 0.646940 0.478080 0.484120 0.943954

loop_
_geom_bond_atom_site_label_1
_geom_bond_atom_site_label_2
_ccdc_geom_bond_type
C11   C18   A    
C26   C32   S    
C21   H32   S    
O2    Zn2   S    
C24   H8    S    
O1    Zn1   S    
C27   H20   S    
C21   H2    S    
C1    O3    A    
C2    N2    D    
C26   H16   S    
C11   C14   A    
C27   H21   S    
C22   H7    S    
C15   C17   A    
C5    C16   A    
C27   N2    S    
C31   C33   D    
C3    O7    A    
C25   H13   S    
C4    O6    A    
C2    C34   S    
C12   O4    A    
N1    Zn2   S    
C4    C7    S    
C28   H26   S    
C13   C19   A    
C18   C23   A    
C28   N1    S    
O8    Zn1   S    
C3    C8    S    
C26   H15   S    
C5    C20   S    
C27   H22   S    
C6    C8    A    
C16   C29   A    
C6    C21   S    
C1    O1    A    
C20   H30   S    
O4    Zn1   S    
C22   H6    S    
C9    H3    S    
C17   C23   A    
C9    C11   A    
C25   H14   S    
C2    H18   S    
C23   H1    S    
C13   C15   A    
C12   C31   S    
C24   H10   S    
C14   C16   A    
C19   C29   A    
C25   H11   S    
C5    C7    A    
C28   H25   S    
N2    Zn1   S    
C7    C9    A    
C6    C17   A    
C12   O2    A    
C21   H31   S    
C18   C22   S    
C10   C13   A    
C34   N1    D    
C28   H24   S    
C29   H12   S    
C10   H4    S    
C32   C33   S    
C31   H23   S    
C20   H29   S    
C19   C24   S    
C26   H17   S    
C30   C32   D    
C22   H5    S    
C1    C30   S    
C20   H28   S    
C3    O5    A    
O7    Zn2   S    
C4    O8    A    
C34   H19   S    
C8    C10   A    
O6    Zn2   S    
C30   H27   S    
C24   H9    S    
O5    Zn1   S    
C14   C15   A    
O3    Zn2   S    
C25   C33   S    
