data_mof_unit_35281.cif
_audit_creation_date              2012-12-11T14:29:29-0500
_audit_creation_method            fapswitch 2.2
_symmetry_space_group_name_H-M    P1
_symmetry_Int_Tables_number       1
_space_group_crystal_system       triclinic
_cell_length_a                    6.937641
_cell_length_b                    14.746916
_cell_length_c                    16.240897
_cell_angle_alpha                 90.494125
_cell_angle_beta                  89.861012
_cell_angle_gamma                 90.097811
_cell_volume                      1661.51778925

loop_
_atom_site_label
_atom_site_type_symbol
_atom_type_description
_atom_site_fract_x
_atom_site_fract_y
_atom_site_fract_z
_atom_type_partial_charge
O1    O     O_R   0.494400 0.416610 0.413880 -0.543129
O2    O     O_R   0.823920 0.406790 0.585520 -0.540224
O3    O     O_R   0.994250 0.583390 0.586120 -0.536827
C1    C     C_R   0.654254 0.384836 0.613282 0.769575
O4    O     O_R   0.824110 0.405730 0.414490 -0.541514
O5    O     O_R   0.994440 0.582310 0.413870 -0.540245
C2    C     C_R   0.654909 0.383694 0.386320 0.742195
O6    O     O_R   0.494210 0.417690 0.586130 -0.547029
O7    O     O_3   0.660810 0.557940 0.500000 -0.370838
V1    V     V_3+5 0.935650 0.489250 0.500000 1.409094
O8    O     O_R   0.324160 0.593210 0.414480 -0.544687
C3    C     C_R   0.155619 0.615008 0.386334 0.736684
O9    O     O_R   0.323970 0.594270 0.585510 -0.538879
C4    C     C_R   0.155067 0.616170 0.613904 0.694745
V2    V     V_3+5 0.435660 0.510750 0.500000 1.407747
O10   O     O_3   0.160630 0.442060 0.500000 -0.374106
H1    H     H_    0.834030 0.893120 0.519967 0.114809
C5    C     C_R   0.311250 0.578653 0.775496 -0.141990
C6    C     C_R   0.386626 0.558071 0.852500 -0.122021
C7    C     C_R   0.374136 0.620611 0.916710 -0.119319
C8    C     C_R   0.286300 0.704260 0.904416 -0.133700
C9    C     C_R   0.210734 0.727799 0.826562 0.070141
C10   C     C_R   0.223367 0.663562 0.760642 0.070418
C11   C     C_R   0.119796 0.812776 0.814356 -0.189659
C12   C     C_R   0.041350 0.833299 0.736039 0.062835
C13   C     C_R   0.054060 0.769088 0.670104 0.071865
C14   C     C_R   0.144890 0.684082 0.682326 -0.185732
C15   C     C_R   0.953466 0.918203 0.721206 -0.142870
C16   C     C_R   0.878443 0.938899 0.644173 -0.120295
C17   C     C_R   0.891062 0.876398 0.579928 -0.124441
C18   C     C_R   0.978686 0.792690 0.592229 -0.131127
H2    H     H_    0.321518 0.526771 0.728262 0.111320
H3    H     H_    0.453658 0.492861 0.862552 0.116100
H4    H     H_    0.431398 0.603953 0.976645 0.113221
H5    H     H_    0.276908 0.749578 0.956960 0.105741
H6    H     H_    0.942917 0.969969 0.768499 0.146543
H7    H     H_    0.811564 0.004154 0.634147 0.122420
H8    H     H_    0.988122 0.747385 0.539674 0.108513
C19   C     C_2   0.985598 0.709723 0.283237 -0.133398
C20   C     C_2   0.150687 0.682713 0.319452 -0.313029
H9    H     H_    0.849584 0.681690 0.304455 0.136823
H10   H     H_    0.288376 0.710144 0.300350 0.128091
C21   C     C_2   0.972948 0.777124 0.215251 -0.134863
C22   C     C_2   0.125995 0.814515 0.177097 -0.308657
H11   H     H_    0.828871 0.795955 0.195836 0.133447
H12   H     H_    0.271145 0.796302 0.194748 0.128719
C23   C     C_2   0.785501 0.204770 0.777707 0.375513
C24   C     C_2   0.620150 0.181198 0.817356 -0.322940
H13   H     H_    0.485296 0.214299 0.803199 0.087628
C25   C     C_2   0.792226 0.277499 0.713509 -0.230915
C26   C     C_2   0.637389 0.315465 0.678006 -0.352653
H14   H     H_    0.934161 0.299474 0.693436 0.139553
H15   H     H_    0.492685 0.294891 0.694635 0.127362
C27   C     C_2   0.779170 0.208989 0.213901 -0.129767
C28   C     C_2   0.614009 0.181864 0.177391 -0.307514
H16   H     H_    0.915003 0.180298 0.192993 0.136821
H17   H     H_    0.476489 0.209870 0.196145 0.126990
C29   C     C_2   0.791719 0.277469 0.281835 -0.136677
C30   C     C_2   0.638342 0.315444 0.319547 -0.308173
H18   H     H_    0.935732 0.296568 0.301609 0.135222
H19   H     H_    0.493189 0.297000 0.301666 0.128947
O11   O     O_R   0.770210 0.079270 0.910680 -0.503959
O12   O     O_R   0.440150 0.091160 0.082270 -0.548131
O13   O     O_R   0.269970 0.914530 0.082860 -0.547424
C31   C     C_R   0.608779 0.113262 0.110493 0.733488
O14   O     O_R   0.440480 0.090100 0.911240 -0.544725
O15   O     O_R   0.270310 0.913460 0.910610 -0.537523
C32   C     C_R   0.610136 0.111754 0.882930 0.777257
O16   O     O_R   0.769870 0.080340 0.082930 -0.540973
O17   O     O_3   0.603660 0.938980 0.996790 -0.378551
V3    V     V_3+5 0.328750 0.007610 0.996740 1.432668
O18   O     O_R   0.940600 0.902510 0.911180 -0.540528
C33   C     C_R   0.109535 0.880672 0.882788 0.700795
O19   O     O_R   0.940270 0.903570 0.082200 -0.543358
C34   C     C_R   0.109367 0.881866 0.110363 0.725918
V4    V     V_3+5 0.828770 0.986010 0.996670 1.451802
O20   O     O_3   0.103730 0.054750 0.996710 -0.360529
O21   O     O_3   0.955152 0.161095 0.798055 -0.638351
H20   H     H_    0.061164 0.184262 0.763007 0.270256

loop_
_geom_bond_atom_site_label_1
_geom_bond_atom_site_label_2
_ccdc_geom_bond_type
O14   C32   A    
C11   C12   A    
O12   C31   A    
C6    C7    A    
O18   V4    S    
C19   H9    S    
C12   C15   A    
C13   C14   A    
O19   V4    S    
C15   C16   A    
O5    C3    A    
C17   C18   A    
C11   C33   S    
C29   H18   S    
V2    O10   S    
O16   V4    S    
C5    C6    A    
O13   V3    S    
O8    V2    S    
C23   C24   D    
C25   H14   S    
O17   V3    S    
O15   C33   A    
C10   C14   A    
C4    C14   S    
O7    V1    S    
C1    O6    A    
C7    H4    S    
C20   H10   S    
C13   C18   A    
O9    C4    A    
H1    C17   S    
O11   V4    S    
C2    C30   S    
C28   C31   S    
C22   H12   S    
C23   C25   S    
C27   H16   S    
C30   H19   S    
O19   C34   A    
C1    C26   S    
C5    C10   A    
V4    O20   S    
C6    H3    S    
C19   C20   D    
O4    C2    A    
O21   H20   S    
C19   C21   S    
C12   C13   A    
C26   H15   S    
C3    C20   S    
C22   C34   S    
O2    C1    A    
C21   C22   D    
C16   C17   A    
O14   V3    S    
C25   C26   D    
C24   C32   S    
C21   H11   S    
O3    C4    A    
O1    V2    S    
C24   H13   S    
O12   V3    S    
O6    V2    S    
C28   H17   S    
O17   V4    S    
C9    C11   A    
C5    H2    S    
O2    V1    S    
V3    O20   S    
C27   C29   S    
C27   C28   D    
O1    C2    A    
O18   C33   A    
O5    V1    S    
O8    C3    A    
C8    H5    S    
C18   H8    S    
O11   C32   A    
O9    V2    S    
C29   C30   D    
O4    V1    S    
O3    V1    S    
V1    O10   S    
C31   O16   A    
O13   C34   A    
O15   V3    S    
O7    V2    S    
C7    C8    A    
C15   H6    S    
C16   H7    S    
C9    C10   A    
C23   O21   S    
C8    C9    A    
