data_mof_unit_52598.cif
_audit_creation_date              2012-12-11T14:56:35-0500
_audit_creation_method            fapswitch 2.2
_symmetry_space_group_name_H-M    P1
_symmetry_Int_Tables_number       1
_space_group_crystal_system       triclinic
_cell_length_a                    10.575539
_cell_length_b                    10.798894
_cell_length_c                    17.059641
_cell_angle_alpha                 80.102687
_cell_angle_beta                  89.490977
_cell_angle_gamma                 119.432224
_cell_volume                      1661.65545962

loop_
_atom_site_label
_atom_site_type_symbol
_atom_type_description
_atom_site_fract_x
_atom_site_fract_y
_atom_site_fract_z
_atom_type_partial_charge
C1    C     C_R   0.277889 0.888043 0.132384 0.554138
C2    C     C_R   0.747493 0.299189 0.288889 0.203068
C3    C     C_R   0.759252 0.319331 0.207094 -0.120655
C4    C     C_R   0.647468 0.320097 0.164785 -0.073671
C5    C     C_1   0.668945 0.847873 0.205192 0.002992
C6    C     C_1   0.680903 0.838945 0.274672 0.036881
C7    C     C_1   0.227479 0.854116 0.215382 -0.008371
C8    C     C_1   0.179107 0.835431 0.283105 0.012196
C9    C     C_1   0.618499 0.255727 0.775055 -0.044861
C10   C     C_1   0.631986 0.299452 0.704197 -0.054760
C11   C     C_R   0.627125 0.725802 0.801447 0.220992
C12   C     C_R   0.635726 0.277151 0.087854 0.599247
C13   C     C_R   0.582820 0.707279 0.725338 0.192279
C14   C     C_R   0.651666 0.829138 0.661674 0.047760
C15   C     C_R   0.733483 0.969255 0.676673 0.192308
C16   C     C_R   0.736665 0.986166 0.756067 -0.207249
C17   C     C_R   0.685484 0.863569 0.818168 -0.003642
C18   C     C_R   0.050266 0.860696 0.801439 0.289107
C19   C     C_R   0.009567 0.841114 0.725111 -0.158950
C20   C     C_R   0.067615 0.781079 0.679448 -0.020642
C21   C     C_R   0.157634 0.729136 0.713535 0.267426
C22   C     C_R   0.202588 0.753910 0.787502 -0.163681
C23   C     C_R   0.640562 0.858161 0.125103 0.561563
C24   C     C_R   0.148614 0.817394 0.831968 0.002267
C25   C     C_R   0.686708 0.809939 0.357271 0.596018
C26   C     C_R   0.681576 0.383494 0.399557 0.607633
C27   C     C_R   0.108037 0.812836 0.360062 0.578820
C28   C     C_R   0.674000 0.801135 0.584098 0.603979
C29   C     C_R   0.673689 0.372355 0.622522 0.556285
C30   C     C_R   0.033587 0.775974 0.597145 0.554688
C31   C     C_R   0.216824 0.859882 0.902740 0.577768
C32   C     C_R   0.612632 0.217349 0.859796 0.587076
C33   C     C_R   0.644996 0.870968 0.897232 0.613810
C34   C     C_R   0.529055 0.315760 0.204978 -0.131411
C35   C     C_R   0.524495 0.314814 0.286959 0.205636
C36   C     C_R   0.641297 0.317579 0.328699 0.006959
Cr1   Cr    Cr6+3 0.402240 0.783890 0.019450 1.051736
Cr2   Cr    Cr6+3 0.382360 0.097900 0.991800 1.045283
Cr3   Cr    Cr6+3 0.715380 0.118170 0.988700 1.018628
Cr4   Cr    Cr6+3 0.936650 0.882420 0.465510 1.104857
Cr5   Cr    Cr6+3 0.605770 0.565620 0.493360 1.069913
Cr6   Cr    Cr6+3 0.921340 0.550490 0.496380 1.060814
H1    H     H_    0.438048 0.307815 0.173102 0.184151
H2    H     H_    0.932638 0.871984 0.701696 0.097356
H3    H     H_    0.280314 0.722173 0.809928 0.171506
H4    H     H_    0.849246 0.317303 0.177705 0.202824
H5    H     H_    0.778277 0.093338 0.768996 0.132517
O1    O     O_R   0.521780 0.757110 0.108900 -0.493233
O2    O     O_R   0.513330 0.228330 0.898660 -0.425407
O3    O     O_R   0.739230 0.266130 0.888050 -0.489234
O4    O     O_R   0.712580 0.991850 0.918770 -0.542538
O5    O     O_3   0.499990 0.999980 0.999980 -0.326139
O6    O     O_R   0.083770 0.911170 0.376030 -0.436866
O7    O     O_R   0.808770 0.880340 0.383890 -0.436561
O8    O     O_R   0.584340 0.689460 0.394160 -0.477877
O9    O     O_R   0.614320 0.443940 0.423590 -0.443885
O10   O     O_R   0.805020 0.410040 0.421340 -0.443479
O11   O     O_R   0.049240 0.685450 0.403290 -0.479612
O12   O     O_R   0.275160 0.783810 0.101120 -0.471499
O13   O     O_R   0.077520 0.903010 0.551800 -0.511089
O14   O     O_R   0.802980 0.872780 0.546830 -0.504010
O15   O     O_R   0.578090 0.681300 0.569920 -0.491755
O16   O     O_R   0.608530 0.436370 0.586530 -0.527844
O17   O     O_R   0.798770 0.401880 0.597100 -0.532500
O18   O     O_R   0.043450 0.677890 0.566230 -0.474586
O19   O     O_3   0.821250 0.666180 0.485090 -0.327389
O20   O     O_R   0.237900 0.972600 0.090980 -0.501327
O21   O     O_R   0.511190 0.220540 0.061620 -0.496731
O22   O     O_R   0.736920 0.257720 0.063840 -0.505201
O23   O     O_R   0.710450 0.984050 0.081720 -0.497387
O24   O     O_R   0.524090 0.765520 0.933110 -0.495931
O25   O     O_R   0.277300 0.791600 0.938160 -0.516520
O26   O     O_R   0.240210 0.981010 0.915190 -0.520370
O27   O     O_3   0.201175 0.650686 0.676746 -0.492831
C37   C     C_3   0.089172 0.503712 0.695484 0.038418
H6    H     H_    0.112541 0.450013 0.652905 0.150514
H7    H     H_    0.979584 0.489560 0.686673 0.164807
C38   C     C_3   0.081138 0.428979 0.781451 -0.400793
H8    H     H_    0.190215 0.449855 0.796989 0.194251
H9    H     H_    0.034812 0.466451 0.824365 0.173736
H10   H     H_    0.005773 0.311382 0.787629 0.082208
S1    S     S_3+6 0.365205 0.296001 0.335189 0.013994
O28   O     O_2   0.385687 0.444082 0.334266 -0.282127
O29   O     O_2   0.236086 0.214560 0.291401 -0.262926
O30   O     O_3   0.333704 0.204875 0.430278 -0.502083
H11   H     H_    0.247977 0.205202 0.453809 0.344509
S2    S     S_3+6 0.863424 0.242080 0.337380 0.018203
O31   O     O_2   0.787539 0.144571 0.417065 -0.260096
O32   O     O_2   0.899783 0.160659 0.286581 -0.288875
O33   O     O_3   0.019551 0.389020 0.349621 -0.506644
H12   H     H_    0.093618 0.358112 0.352583 0.386491
S3    S     S_3+6 0.636247 0.589675 0.872105 0.023214
O34   O     O_2   0.705271 0.524465 0.829073 -0.305837
O35   O     O_2   0.731360 0.654814 0.935566 -0.250153
O36   O     O_3   0.468893 0.461291 0.916632 -0.544369
H13   H     H_    0.461754 0.482976 0.970053 0.360688
O37   O     O_3   0.445844 0.594379 0.716634 -0.526500
C39   C     C_3   0.442798 0.460795 0.728194 0.049318
H14   H     H_    0.401175 0.401532 0.790563 0.196821
H15   H     H_    0.552236 0.477042 0.714346 0.172629
C40   C     C_3   0.338527 0.365137 0.675130 -0.353834
H16   H     H_    0.359212 0.425904 0.612704 0.209253
H17   H     H_    0.350989 0.268805 0.675650 0.098051
H18   H     H_    0.224686 0.325071 0.698149 0.080465
O38   O     O_3   0.797501 0.087142 0.613125 -0.501832
C41   C     C_3   0.950052 0.161482 0.615684 -0.001074
H19   H     H_    0.995093 0.086907 0.624579 0.126986
H20   H     H_    0.975890 0.221072 0.664858 0.089092
C42   C     C_3   0.025691 0.267846 0.537147 -0.287504
H21   H     H_    0.977596 0.338653 0.521542 0.225655
H22   H     H_    0.143754 0.336781 0.541909 0.047684
H23   H     H_    0.014572 0.206731 0.489255 0.193636
O39   O     O_3   0.992175 0.918862 0.847046 -0.506144
C43   C     C_3   0.072773 0.072187 0.825449 0.004774
H24   H     H_    0.021999 0.109169 0.777931 0.096501
H25   H     H_    0.188729 0.115850 0.801942 0.126205
C44   C     C_3   0.073339 0.136992 0.898547 -0.307780
H26   H     H_    0.074675 0.067938 0.954412 0.209419
H27   H     H_    0.171324 0.246351 0.891892 0.099624
H28   H     H_    0.975482 0.147813 0.905247 0.150633

loop_
_geom_bond_atom_site_label_1
_geom_bond_atom_site_label_2
_ccdc_geom_bond_type
Cr3   O4    S    
C12   O22   A    
C29   O16   A    
C40   H16   S    
Cr4   O13   S    
C35   C36   A    
C38   H10   S    
S2    O31   D    
Cr6   O11   S    
C43   H24   S    
C7    C8    T    
Cr2   O2    S    
C20   C30   S    
O30   H11   S    
C12   O21   A    
C18   C24   A    
C18   C19   A    
C44   H27   S    
C5    C6    T    
C38   H9    S    
C31   O26   A    
C6    C25   S    
Cr2   O5    S    
C41   H19   S    
C15   C16   A    
Cr6   O10   S    
C34   C35   A    
Cr5   O8    S    
C9    C32   S    
S2    O33   S    
C11   S3    S    
O36   H13   S    
C16   C17   A    
C30   O13   A    
Cr6   O18   S    
C4    C12   S    
C9    C10   T    
C28   O14   A    
Cr3   O5    S    
C29   O17   A    
C40   H17   S    
Cr4   O19   S    
C21   C22   A    
C23   O23   A    
C17   C33   S    
Cr5   O15   S    
C16   H5    S    
C26   O10   A    
C35   S1    S    
O37   C39   S    
C4    C34   A    
O27   C37   S    
C43   C44   S    
C25   O7    A    
C42   H23   S    
Cr1   O5    S    
C38   H8    S    
C21   O27   S    
S3    O36   S    
Cr4   O14   S    
C37   H6    S    
Cr5   O9    S    
C5    C23   S    
Cr3   O3    S    
S3    O35   D    
Cr3   O22   S    
C2    S2    S    
C20   C21   A    
Cr1   O1    S    
C37   H7    S    
C32   O3    A    
Cr1   O12   S    
C26   C36   S    
C31   O25   A    
C1    O12   A    
Cr2   O21   S    
S1    O28   D    
C40   H18   S    
Cr4   O7    S    
S2    O32   D    
C22   C24   A    
C44   H28   S    
Cr5   O16   S    
C3    C4    A    
S1    O30   S    
Cr6   O17   S    
C19   H2    S    
O39   C43   S    
C2    C36   A    
C11   C17   A    
C23   O1    A    
C1    C7    S    
C39   H15   S    
C34   H1    S    
C25   O8    A    
C27   O11   A    
C26   O9    A    
C43   H25   S    
C27   O6    A    
Cr5   O19   S    
C33   O4    A    
C39   C40   S    
O38   C41   S    
C3    H4    S    
S1    O29   D    
C15   O38   S    
C19   C20   A    
Cr1   O24   S    
C2    C3    A    
C24   C31   S    
C44   H26   S    
C11   C13   A    
C10   C29   S    
O33   H12   S    
C41   H20   S    
C42   H22   S    
S3    O34   D    
C1    O20   A    
Cr3   O23   S    
C13   O37   S    
C37   C38   S    
C32   O2    A    
C30   O18   A    
C33   O24   A    
Cr4   O6    S    
C22   H3    S    
Cr2   O20   S    
C39   H14   S    
Cr1   O25   S    
C42   H21   S    
Cr6   O19   S    
C8    C27   S    
C18   O39   S    
C14   C15   A    
C14   C28   S    
C13   C14   A    
C41   C42   S    
Cr2   O26   S    
C28   O15   A    
