data_mof_unit_31342.cif
_audit_creation_date              2012-12-10T20:44:48-0500
_audit_creation_method            fapswitch 2.2
_symmetry_space_group_name_H-M    P1
_symmetry_Int_Tables_number       1
_space_group_crystal_system       triclinic
_cell_length_a                    9.846389
_cell_length_b                    10.690481
_cell_length_c                    16.767115
_cell_angle_alpha                 89.456532
_cell_angle_beta                  94.373046
_cell_angle_gamma                 89.30894
_cell_volume                      1759.58862844

loop_
_atom_site_label
_atom_site_type_symbol
_atom_type_description
_atom_site_fract_x
_atom_site_fract_y
_atom_site_fract_z
_atom_type_partial_charge
Br1   Br    Br    0.721160 0.297918 0.104648 -0.525880
C1    C     C_R   0.500228 0.259872 0.497405 0.916720
C2    C     C_R   0.497874 0.129137 0.482708 -0.178041
C3    C     C_R   0.372525 0.068331 0.473142 -0.308527
C4    C     C_R   0.517498 0.499682 0.653627 0.873416
C5    C     C_R   0.369145 0.939037 0.469841 0.472819
C6    C     C_R   0.494020 0.871860 0.480292 -0.237643
C7    C     C_R   0.616040 0.934718 0.473552 0.069046
C8    C     C_3   0.749391 0.923164 0.522248 -0.422695
C9    C     C_3   0.750997 0.064811 0.523590 -0.479169
C10   C     C_R   0.080690 0.476293 0.568951 0.229997
C11   C     C_R   0.062816 0.531519 0.433119 -0.134740
C12   C     C_R   0.653513 0.492109 0.784694 -0.231395
C13   C     C_R   0.918931 0.532425 0.433252 -0.132643
C14   C     C_R   0.937889 0.476523 0.569000 0.218442
C15   C     C_3   0.940266 0.359086 0.617693 -0.515352
C16   C     C_R   0.498406 0.740297 0.496154 0.909069
C17   C     C_3   0.094219 0.358572 0.617397 -0.502263
C18   C     C_R   0.482426 0.497522 0.346658 0.874637
C19   C     C_R   0.526669 0.499037 0.740560 -0.031407
C20   C     C_R   0.406464 0.503451 0.780111 -0.222192
C21   C     C_R   0.412352 0.495355 0.862467 -0.174316
C22   C     C_R   0.538999 0.482464 0.906575 0.342286
C23   C     C_R   0.571286 0.385054 0.147026 0.292643
C24   C     C_R   0.659346 0.484662 0.867715 -0.160052
C25   C     C_3   0.186957 0.865850 0.391694 0.114805
C26   C     C_3   0.088134 0.973895 0.367498 -0.401609
C27   C     C_3   0.998145 0.943325 0.292215 -0.898721
C28   C     C_R   0.580866 0.413390 0.227707 -0.262033
C29   C     C_R   0.452544 0.420213 0.099480 0.266325
C30   C     C_R   0.471996 0.473161 0.261606 -0.078628
C31   C     C_R   0.350487 0.499291 0.215284 -0.216146
C32   C     C_R   0.341052 0.472586 0.134299 -0.217988
C33   C     C_R   0.617953 0.062469 0.474497 0.142799
H1    H     H_    0.672786 0.387201 0.263996 0.186386
H2    H     H_    0.146292 0.373412 0.677593 0.200327
H3    H     H_    0.135231 0.279124 0.583800 0.218296
H4    H     H_    0.757225 0.477897 0.901739 0.161054
H5    H     H_    0.747557 0.491208 0.755269 0.156329
H6    H     H_    0.264435 0.542791 0.241229 0.158096
H7    H     H_    0.318078 0.499134 0.891755 0.150183
H8    H     H_    0.249478 0.498646 0.097691 0.162178
H9    H     H_    0.307508 0.512450 0.747614 0.160422
H10   H     H_    0.277102 0.119395 0.474655 0.183603
H11   H     H_    0.128610 0.777899 0.390720 0.166532
H12   H     H_    0.739920 0.880110 0.582188 0.207231
H13   H     H_    0.264214 0.854597 0.346759 0.107443
H14   H     H_    0.022219 0.993164 0.416978 0.233889
H15   H     H_    0.146442 0.059501 0.355780 0.219743
H16   H     H_    0.061900 0.923760 0.241719 0.267834
H17   H     H_    0.929724 0.024310 0.275632 0.283239
H18   H     H_    0.934427 0.860586 0.303025 0.255171
H19   H     H_    0.830376 0.881714 0.487635 0.210316
H20   H     H_    0.741461 0.103456 0.584281 0.202087
H21   H     H_    0.833261 0.105387 0.489981 0.199881
H22   H     H_    0.109500 0.554346 0.378638 0.137318
H23   H     H_    0.857655 0.557075 0.379025 0.156230
H24   H     H_    0.904079 0.374317 0.678002 0.199472
H25   H     H_    0.892039 0.280184 0.584318 0.214801
N1    N     N_2   0.547531 0.472395 0.990391 -0.150546
N2    N     N_2   0.447792 0.418610 0.015835 -0.178709
N3    N     N_R   0.142860 0.499130 0.500540 -0.103569
N4    N     N_R   0.857210 0.499170 0.500530 -0.107540
O1    O     O_R   0.614690 0.316790 0.499990 -0.615206
O2    O     O_R   0.385350 0.316760 0.500000 -0.625102
O3    O     O_R   0.627460 0.498860 0.616130 -0.621114
O4    O     O_R   0.398120 0.498820 0.616130 -0.619252
O5    O     O_R   0.614650 0.683240 0.500000 -0.619879
O6    O     O_R   0.385310 0.683210 0.500010 -0.568445
O7    O     O_R   0.601880 0.501180 0.383870 -0.628863
O8    O     O_R   0.372540 0.501140 0.383870 -0.632721
O9    O     O_3   0.244575 0.880849 0.470919 -0.620280
Zn1   Zn    Zn3+2 0.653130 0.500020 0.499990 0.942940
Zn2   Zn    Zn3+2 0.346870 0.499980 0.500010 0.958665

loop_
_geom_bond_atom_site_label_1
_geom_bond_atom_site_label_2
_ccdc_geom_bond_type
C26   H14   S    
O8    Zn2   S    
O1    Zn1   S    
C10   C17   S    
C16   O6    A    
C5    C6    A    
C20   H9    S    
C24   H4    S    
C11   N3    A    
C8    C9    S    
C28   H1    S    
C18   O8    A    
C30   C31   A    
C29   C32   A    
C4    O4    A    
C10   N3    A    
C18   C30   S    
C31   C32   A    
C1    O2    A    
O7    Zn1   S    
C22   C24   A    
C1    C2    S    
C6    C7    A    
C28   C30   A    
C4    C19   S    
C7    C33   A    
C20   C21   A    
C5    O9    S    
C9    H21   S    
C27   H18   S    
C25   H11   S    
C12   C24   A    
C25   C26   S    
C11   H22   S    
C17   H2    S    
C25   H13   S    
N1    N2    D    
C32   H8    S    
C27   H16   S    
C3    C5    A    
C17   H3    S    
C11   C13   A    
C8    H12   S    
C31   H6    S    
C22   N1    S    
C9    H20   S    
C27   H17   S    
C23   C29   A    
C12   H5    S    
C21   H7    S    
C8    H19   S    
C13   N4    A    
C2    C3    A    
C9    C33   S    
C26   H15   S    
O6    Zn2   S    
C25   O9    S    
C19   C20   A    
C1    O1    A    
Br1   C23   S    
C15   C17   S    
C29   N2    S    
C26   C27   S    
O4    Zn2   S    
C13   H23   S    
C14   N4    A    
C21   C22   A    
C4    O3    A    
C18   O7    A    
C15   H24   S    
N4    Zn1   S    
C2    C33   A    
C6    C16   S    
O5    Zn1   S    
C23   C28   A    
O3    Zn1   S    
C10   C14   A    
C12   C19   A    
N3    Zn2   S    
O2    Zn2   S    
C14   C15   S    
C3    H10   S    
C7    C8    S    
C16   O5    A    
C15   H25   S    
