data_mof_unit_66051.cif
_audit_creation_date              2012-12-10T20:48:19-0500
_audit_creation_method            fapswitch 2.2
_symmetry_space_group_name_H-M    P1
_symmetry_Int_Tables_number       1
_space_group_crystal_system       triclinic
_cell_length_a                    16.027881
_cell_length_b                    19.230077
_cell_length_c                    19.253077
_cell_angle_alpha                 94.965621
_cell_angle_beta                  94.891211
_cell_angle_gamma                 90.669972
_cell_volume                      5889.24493854

loop_
_atom_site_label
_atom_site_type_symbol
_atom_type_description
_atom_site_fract_x
_atom_site_fract_y
_atom_site_fract_z
_atom_type_partial_charge
C1    C     C_R   0.507027 0.310774 0.493579 0.503267
C2    C     C_R   0.434948 0.804147 0.550660 -0.157109
C3    C     C_R   0.436327 0.120236 0.484680 0.096690
C4    C     C_R   0.491907 0.689465 0.507565 0.509713
C5    C     C_R   0.431339 0.193786 0.488203 0.024954
C6    C     C_R   0.515353 0.088164 0.486933 0.247693
C7    C     C_R   0.506776 0.234244 0.492506 -0.000630
C8    C     C_R   0.584315 0.201409 0.494999 -0.156250
C9    C     C_R   0.589122 0.128718 0.491584 0.097010
C10   C     C_R   0.487720 0.489776 0.233500 0.043278
C11   C     C_R   0.488474 0.551170 0.197856 -0.014998
C12   C     C_1   0.110998 0.482261 0.483139 -0.046408
C13   C     C_R   0.493945 0.545065 0.125416 -0.074210
C14   C     C_R   0.497571 0.478973 0.087691 0.208755
C15   C     C_R   0.494111 0.418982 0.123409 -0.118228
C16   C     C_R   0.508985 0.508811 0.690050 0.532817
C17   C     C_R   0.488924 0.424193 0.195550 -0.158820
C18   C     C_R   0.530854 0.458292 0.875347 -0.100887
C19   C     C_R   0.532871 0.455419 0.802849 -0.185435
C20   C     C_R   0.508988 0.520602 0.913018 0.205245
C21   C     C_R   0.512308 0.514135 0.766858 0.070206
C22   C     C_R   0.492748 0.577114 0.804777 0.074752
C23   C     C_1   0.888872 0.517905 0.517109 -0.045162
C24   C     C_R   0.491748 0.579694 0.877458 -0.104889
C25   C     C_R   0.490540 0.492721 0.310055 0.503004
C26   C     C_R   0.723986 0.510041 0.509873 0.505410
C27   C     C_R   0.275868 0.490020 0.490144 0.500869
C28   C     C_1   0.813560 0.514354 0.513853 0.014198
C29   C     C_2   0.978843 0.521927 0.520770 -0.120754
C30   C     C_2   0.021032 0.478220 0.479528 -0.122254
C31   C     C_3   0.479799 0.623582 0.234089 -0.267077
C32   C     C_3   0.564135 0.662398 0.245745 -0.410135
C33   C     C_3   0.346002 0.227954 0.489761 -0.244341
C34   C     C_1   0.186304 0.485801 0.486310 0.012157
C35   C     C_3   0.333759 0.263857 0.562033 -0.426938
C36   C     C_R   0.493379 0.766288 0.513390 0.006540
C37   C     C_R   0.555898 0.802233 0.483301 -0.136603
C38   C     C_R   0.560294 0.875374 0.489648 0.129061
C39   C     C_R   0.498611 0.913245 0.525003 0.241780
C40   C     C_R   0.437794 0.876917 0.556348 -0.142248
H1    H     H_    0.988200 0.439074 0.442716 0.135993
H2    H     H_    0.391353 0.905387 0.584447 0.119824
H3    H     H_    0.386682 0.777560 0.574975 0.144823
H4    H     H_    0.641445 0.232708 0.498282 0.129026
H5    H     H_    0.518326 0.677861 0.790987 0.222205
H6    H     H_    0.415440 0.655425 0.780974 0.231639
H7    H     H_    0.556093 0.714588 0.273602 0.141035
H8    H     H_    0.609842 0.632990 0.277896 0.186890
H9    H     H_    0.589375 0.669627 0.194832 0.143313
H10   H     H_    0.435515 0.653927 0.201444 0.131778
H11   H     H_    0.452179 0.621862 0.284841 0.161885
H12   H     H_    0.602675 0.773320 0.456006 0.130625
H13   H     H_    0.340665 0.225580 0.602079 0.157809
H14   H     H_    0.379710 0.307351 0.576474 0.151347
H15   H     H_    0.269880 0.285625 0.561878 0.136663
H16   H     H_    0.337263 0.265472 0.449359 0.174086
H17   H     H_    0.293847 0.189432 0.476384 0.180275
H18   H     H_    0.357747 0.051674 0.522251 0.252048
H19   H     H_    0.362496 0.041919 0.433968 0.252175
H20   H     H_    0.666710 0.933445 0.505069 0.238621
H21   H     H_    0.664867 0.875444 0.434694 0.213982
H22   H     H_    0.717296 0.132124 0.492762 0.219674
H23   H     H_    0.548429 0.406747 0.774644 0.132031
H24   H     H_    0.677962 0.072022 0.539671 0.235596
H25   H     H_    0.545969 0.411893 0.901573 0.143556
H26   H     H_    0.496270 0.367887 0.095206 0.124593
H27   H     H_    0.488283 0.376815 0.222158 0.131272
H28   H     H_    0.494905 0.592398 0.098781 0.136326
H29   H     H_    0.476284 0.627991 0.906449 0.114006
H30   H     H_    0.011672 0.561076 0.557580 0.137777
N1    N     N_2   0.495315 0.987312 0.530891 -0.264549
N2    N     N_2   0.521368 0.014664 0.480305 -0.170671
N3    N     N_2   0.503977 0.470730 0.014167 -0.244146
N4    N     N_2   0.503795 0.526975 0.986427 -0.253781
N5    N     N_3   0.475160 0.638858 0.769897 -0.597961
N6    N     N_3   0.360870 0.078273 0.477455 -0.647413
N7    N     N_3   0.628148 0.910868 0.462323 -0.568411
N8    N     N_3   0.668828 0.095205 0.492521 -0.591417
O1    O     O_3   0.500000 0.500000 0.500000 -0.435869
O2    O     O_R   0.688130 0.469010 0.547620 -0.533845
O3    O     O_R   0.315580 0.449250 0.449280 -0.542078
O4    O     O_R   0.680710 0.547310 0.468650 -0.538815
O5    O     O_R   0.315580 0.534430 0.534450 -0.538276
O6    O     O_R   0.456860 0.545290 0.655940 -0.504327
O7    O     O_R   0.446440 0.450430 0.339790 -0.540704
O8    O     O_R   0.557290 0.347960 0.537250 -0.542556
O9    O     O_R   0.539410 0.656320 0.467010 -0.552225
O10   O     O_R   0.456880 0.340240 0.450910 -0.548789
O11   O     O_R   0.446420 0.655480 0.544820 -0.535073
O12   O     O_R   0.557280 0.467820 0.657110 -0.553120
O13   O     O_R   0.539420 0.536460 0.347160 -0.546858
Zn1   Zn    Zn3+2 0.430910 0.557800 0.557800 0.953057
Zn2   Zn    Zn3+2 0.574380 0.447110 0.559460 0.937763
Zn3   Zn    Zn3+2 0.563780 0.559000 0.446630 0.927453
Zn4   Zn    Zn3+2 0.430930 0.436090 0.436110 0.927715

loop_
_geom_bond_atom_site_label_1
_geom_bond_atom_site_label_2
_ccdc_geom_bond_type
C4    C36   S    
C16   O12   A    
C16   C21   S    
O4    Zn3   S    
C35   H13   S    
O7    Zn4   S    
N3    N4    D    
C4    O11   A    
C3    C6    A    
C6    C9    A    
H18   N6    S    
C7    C8    A    
C4    O9    A    
C18   H25   S    
C6    N2    S    
O5    Zn1   S    
C37   C38   A    
C23   C29   S    
C36   C37   A    
C19   C21   A    
O1    Zn2   S    
C38   C39   A    
O3    Zn4   S    
C10   C17   A    
O9    Zn3   S    
C16   O6    A    
C18   C19   A    
C20   C24   A    
C19   H23   S    
C8    C9    A    
C5    C33   S    
C30   H1    S    
C1    O10   A    
C40   H2    S    
O10   Zn4   S    
C11   C31   S    
C26   O4    A    
C21   C22   A    
C35   H14   S    
C32   H8    S    
C22   N5    S    
H6    N5    S    
C24   H29   S    
C27   C34   S    
H20   N7    S    
C17   H27   S    
C25   O13   A    
C35   H15   S    
C14   N3    S    
C27   O3    A    
O1    Zn3   S    
H21   N7    S    
C39   C40   A    
C5    C7    A    
C37   H12   S    
C15   H26   S    
C26   O2    A    
O1    Zn4   S    
C29   C30   D    
O8    Zn2   S    
C31   C32   S    
C2    H3    S    
C25   O7    A    
C20   N4    S    
C23   C28   T    
O11   Zn1   S    
C3    N6    S    
O1    Zn1   S    
C10   C25   S    
C32   H7    S    
C22   C24   A    
C31   H10   S    
C12   C34   T    
O12   Zn2   S    
C29   H30   S    
C2    C36   A    
C1    O8    A    
C15   C17   A    
C33   H17   S    
C12   C30   S    
C1    C7    S    
H24   N8    S    
H22   N8    S    
C8    H4    S    
C31   H11   S    
C3    C5    A    
C38   N7    S    
C26   C28   S    
H5    N5    S    
C27   O5    A    
N1    N2    D    
O13   Zn3   S    
C11   C13   A    
C33   H16   S    
C33   C35   S    
C18   C20   A    
C9    N8    S    
C32   H9    S    
C10   C11   A    
C2    C40   A    
C39   N1    S    
C14   C15   A    
O6    Zn1   S    
O2    Zn2   S    
C13   C14   A    
H19   N6    S    
C13   H28   S    
