data_mof_unit_33008.cif
_audit_creation_date              2012-12-11T14:08:31-0500
_audit_creation_method            fapswitch 2.2
_symmetry_space_group_name_H-M    P1
_symmetry_Int_Tables_number       1
_space_group_crystal_system       triclinic
_cell_length_a                    10.984122
_cell_length_b                    10.917392
_cell_length_c                    18.622871
_cell_angle_alpha                 91.193406
_cell_angle_beta                  90.510601
_cell_angle_gamma                 59.632353
_cell_volume                      1926.39649428

loop_
_atom_site_label
_atom_site_type_symbol
_atom_type_description
_atom_site_fract_x
_atom_site_fract_y
_atom_site_fract_z
_atom_type_partial_charge
C1    C     C_R   0.297531 0.621517 0.614532 0.566525
C2    C     C_2   0.768301 0.182179 0.711364 -0.180964
C3    C     C_2   0.267797 0.640624 0.691670 0.229525
C4    C     C_R   0.659355 0.627492 0.598473 0.546067
C5    C     C_2   0.162256 0.674135 0.835352 -0.057475
C6    C     C_2   0.249989 0.546003 0.807301 -0.170492
C7    C     C_2   0.275371 0.532547 0.729296 -0.146816
C8    C     C_2   0.619390 0.616747 0.311586 -0.094222
C9    C     C_2   0.630678 0.658368 0.156344 -0.119497
C10   C     C_2   0.701146 0.531834 0.188330 -0.158939
C11   C     C_2   0.676415 0.510032 0.263136 -0.176400
C12   C     C_3   0.628454 0.641635 0.800988 0.176123
C13   C     C_2   0.676496 0.132949 0.333992 -0.061886
C14   C     C_2   0.653204 0.143017 0.179878 -0.145662
C15   C     C_2   0.632148 0.055944 0.221420 -0.153529
C16   C     C_R   0.628194 0.229229 0.602300 0.541720
C17   C     C_2   0.601257 0.086841 0.297827 0.246904
C18   C     C_2   0.119527 0.682377 0.345396 -0.101742
C19   C     C_2   0.114354 0.692161 0.190947 -0.094584
C20   C     C_2   0.040574 0.806415 0.234604 -0.148457
C21   C     C_2   0.071057 0.802791 0.310450 -0.163941
C22   C     C_R   0.701886 0.102497 0.897902 0.522689
C23   C     C_3   0.734413 0.696384 0.806701 0.071065
C24   C     C_R   0.759547 0.713434 0.883509 0.577198
C25   C     C_R   0.120102 0.703809 0.908545 0.512991
C26   C     C_R   0.675266 0.106635 0.104969 0.540354
C27   C     C_R   0.692132 0.687801 0.094492 0.543255
C28   C     C_R   0.214463 0.651939 0.404840 0.556163
C29   C     C_R   0.087666 0.712996 0.115268 0.547524
C30   C     C_R   0.614615 0.587242 0.386842 0.575500
C31   C     C_R   0.621561 0.221428 0.397705 0.563620
C32   C     C_3   0.669453 0.839533 0.766181 -0.294192
C33   C     C_3   0.633406 0.818097 0.687783 -0.265881
C34   C     C_3   0.690646 0.658185 0.672061 0.017247
C35   C     C_3   0.876321 0.590983 0.768749 -0.235633
C36   C     C_3   0.164809 0.889367 0.710086 0.023095
C37   C     C_3   0.230203 0.976979 0.686375 -0.248175
C38   C     C_3   0.118574 0.129168 0.669118 -0.488548
C39   C     C_3   0.380657 0.101199 0.290633 0.024463
C40   C     C_3   0.287027 0.262275 0.281090 -0.263188
C41   C     C_3   0.153069 0.298488 0.239314 -0.480775
C42   C     C_3   0.555629 0.529321 0.882887 0.021773
C43   C     C_3   0.606822 0.457740 0.955345 -0.246583
C44   C     C_3   0.490061 0.450008 0.995149 -0.470588
C45   C     C_3   0.852227 0.578553 0.688095 -0.244902
C46   C     C_3   0.623044 0.598775 0.723042 -0.189719
C47   C     C_2   0.676621 0.161916 0.671798 -0.130922
C48   C     C_2   0.680583 0.172115 0.829404 -0.113992
C49   C     C_2   0.789247 0.149368 0.788137 -0.155433
Cr1   Cr    Cr6+3 0.393010 0.398050 0.501480 1.013560
Cr2   Cr    Cr6+3 0.398820 0.707980 0.501630 1.007576
Cr3   Cr    Cr6+3 0.708140 0.393940 0.496850 0.995609
Cr4   Cr    Cr6+3 0.937950 0.938450 0.008940 1.001707
Cr5   Cr    Cr6+3 0.626180 0.937030 0.994750 0.998585
Cr6   Cr    Cr6+3 0.937790 0.625760 0.001410 1.008604
H1    H     H_    0.745837 0.878095 0.765954 0.116773
H2    H     H_    0.299435 0.433109 0.702894 0.113758
H3    H     H_    0.095836 0.760999 0.800979 0.127276
H4    H     H_    0.571915 0.922945 0.793374 0.136346
H5    H     H_    0.720958 0.401219 0.280601 0.126910
H6    H     H_    0.535737 0.745905 0.179989 0.094908
H7    H     H_    0.576599 0.726530 0.296546 0.121986
H8    H     H_    0.630482 0.964444 0.198322 0.144649
H9    H     H_    0.657356 0.234386 0.200871 0.067979
H10   H     H_    0.768557 0.127899 0.309426 0.038975
H11   H     H_    0.967040 0.909970 0.212985 0.156742
H12   H     H_    0.678463 0.481097 0.717441 0.150006
H13   H     H_    0.073462 0.893456 0.334022 0.148398
H14   H     H_    0.108111 0.595834 0.323163 0.104154
H15   H     H_    0.680905 0.859590 0.649770 0.128346
H16   H     H_    0.904383 0.624337 0.656184 0.130358
H17   H     H_    0.522091 0.733799 0.814674 0.122949
H18   H     H_    0.513161 0.637584 0.707678 0.153925
H19   H     H_    0.103415 0.942528 0.759265 0.129713
H20   H     H_    0.087709 0.891779 0.670014 0.148875
H21   H     H_    0.297311 0.979825 0.730640 0.150378
H22   H     H_    0.297095 0.927434 0.638179 0.199938
H23   H     H_    0.923587 0.483951 0.792762 0.171218
H24   H     H_    0.048819 0.130204 0.625302 0.158263
H25   H     H_    0.170862 0.187702 0.651176 0.145699
H26   H     H_    0.055002 0.184084 0.717769 0.138649
H27   H     H_    0.790508 0.442728 0.161597 0.152136
H28   H     H_    0.318094 0.063497 0.319593 0.152196
H29   H     H_    0.408156 0.043283 0.238116 0.116656
H30   H     H_    0.257206 0.315714 0.334747 0.193299
H31   H     H_    0.345766 0.303857 0.251717 0.156795
H32   H     H_    0.180322 0.248022 0.184940 0.156232
H33   H     H_    0.087582 0.415307 0.233378 0.158688
H34   H     H_    0.904106 0.463657 0.673496 0.143179
H35   H     H_    0.090215 0.261170 0.268300 0.149046
H36   H     H_    0.518053 0.879267 0.679757 0.123097
H37   H     H_    0.189739 0.587397 0.210318 0.079830
H38   H     H_    0.953014 0.628130 0.775806 0.103614
H39   H     H_    0.515473 0.471621 0.850019 0.147252
H40   H     H_    0.466959 0.638994 0.894284 0.135817
H41   H     H_    0.698465 0.349081 0.947342 0.188573
H42   H     H_    0.642210 0.519287 0.988786 0.191240
H43   H     H_    0.398363 0.558303 0.004694 0.154577
H44   H     H_    0.530218 0.399487 0.047884 0.148805
H45   H     H_    0.894454 0.103863 0.810409 0.142100
H46   H     H_    0.455200 0.385850 0.963549 0.158535
H47   H     H_    0.824645 0.229356 0.688127 0.149798
H48   H     H_    0.574440 0.223707 0.807339 0.100241
H49   H     H_    0.621588 0.112925 0.695000 0.102835
H50   H     H_    0.298881 0.452518 0.840543 0.110746
O1    O     O_R   0.507110 0.256280 0.580300 -0.523693
O2    O     O_R   0.837080 0.593860 0.915300 -0.477827
O3    O     O_R   0.064770 0.636080 0.932550 -0.521532
O4    O     O_R   0.280830 0.527190 0.577940 -0.522717
O5    O     O_R   0.068250 0.829200 0.092940 -0.514584
O6    O     O_R   0.799650 0.057040 0.080330 -0.497778
O7    O     O_R   0.586130 0.079760 0.077080 -0.510602
O8    O     O_R   0.627700 0.809630 0.066580 -0.498721
O9    O     O_R   0.816140 0.597180 0.075920 -0.515084
O10   O     O_R   0.045360 0.639170 0.081440 -0.494997
O11   O     O_3   0.833980 0.833750 0.001700 -0.264415
O12   O     O_R   0.524640 0.695370 0.425100 -0.485683
O13   O     O_R   0.261360 0.738990 0.584270 -0.524420
O14   O     O_R   0.532590 0.694780 0.574370 -0.516608
O15   O     O_R   0.744470 0.503750 0.577000 -0.525242
O16   O     O_R   0.698520 0.277230 0.571620 -0.502707
O17   O     O_R   0.498530 0.256920 0.419280 -0.458658
O18   O     O_R   0.272880 0.527780 0.428680 -0.506737
O19   O     O_R   0.252780 0.739630 0.423250 -0.519116
O20   O     O_3   0.273536 0.750945 0.728761 -0.613786
O21   O     O_3   0.500673 0.067650 0.333370 -0.537105
O22   O     O_3   0.670855 0.523323 0.846160 -0.554071
O23   O     O_R   0.735890 0.504390 0.415980 -0.500191
O24   O     O_R   0.690560 0.277820 0.422350 -0.534984
O25   O     O_3   0.499990 0.499990 0.499980 -0.285567
O26   O     O_R   0.089190 0.825870 0.932320 -0.514931
O27   O     O_R   0.819070 0.053960 0.931440 -0.499302
O28   O     O_R   0.607070 0.076440 0.916460 -0.534550
O29   O     O_R   0.647110 0.806550 0.917690 -0.513156

loop_
_geom_bond_atom_site_label_1
_geom_bond_atom_site_label_2
_ccdc_geom_bond_type
Cr4   O5    S    
C22   C48   S    
C26   O7    A    
C45   H16   S    
C18   C21   D    
C36   O20   S    
Cr1   O17   S    
C43   C44   S    
Cr3   O23   S    
C28   O18   A    
C12   O22   S    
C13   H10   S    
C12   C23   S    
C38   H25   S    
C5    H3    S    
C9    H6    S    
Cr3   O24   S    
C20   H11   S    
C36   C37   S    
C36   H20   S    
C39   H29   S    
C3    C7    D    
C33   H36   S    
C5    C6    D    
C44   H44   S    
C17   O21   S    
Cr6   O11   S    
C2    H47   S    
Cr5   O29   S    
Cr5   O8    S    
Cr2   O13   S    
C40   H31   S    
C19   H37   S    
Cr1   O25   S    
C1    O4    A    
C44   H43   S    
C19   C20   D    
Cr5   O11   S    
Cr2   O14   S    
C23   C24   S    
C4    O14   A    
C34   C46   S    
C45   H34   S    
C9    C10   D    
Cr4   O11   S    
C16   O1    A    
Cr4   O6    S    
C18   H14   S    
C41   H35   S    
C12   H17   S    
C39   O21   S    
Cr2   O19   S    
C16   C47   S    
Cr2   O25   S    
C43   H41   S    
C30   O23   A    
C35   H38   S    
C41   H32   S    
C4    C34   S    
C22   O28   A    
C42   H40   S    
C29   O5    A    
C18   C28   S    
C12   C46   S    
C39   C40   S    
C34   C45   S    
Cr5   O28   S    
C37   H22   S    
C10   H27   S    
Cr1   O4    S    
Cr6   O2    S    
C1    C3    S    
C40   H30   S    
C16   O16   A    
C37   C38   S    
C2    C49   S    
Cr3   O16   S    
C14   H9    S    
C3    O20   S    
C33   C34   S    
Cr5   O7    S    
C24   O2    A    
C14   C26   S    
Cr4   O27   S    
C36   H19   S    
C42   O22   S    
Cr4   O26   S    
Cr3   O15   S    
C40   C41   S    
Cr6   O9    S    
C37   H21   S    
C23   C35   S    
C38   H26   S    
C33   H15   S    
C5    C25   S    
C42   C43   S    
C11   H5    S    
C35   C45   S    
C27   O8    A    
C9    C27   S    
C24   O29   A    
C15   C17   S    
C41   H33   S    
C48   C49   D    
C47   H49   S    
C22   O27   A    
C42   H39   S    
C13   C31   S    
Cr1   O18   S    
C43   H42   S    
C31   O17   A    
C44   H46   S    
C28   O19   A    
C6    C7    S    
C30   O12   A    
C2    C47   D    
C35   H23   S    
C13   C17   D    
Cr6   O3    S    
C8    C30   S    
C23   C32   S    
C39   H28   S    
C46   H12   S    
C21   H13   S    
C19   C29   S    
C32   C33   S    
C49   H45   S    
Cr3   O25   S    
C48   H48   S    
Cr6   O10   S    
C8    C11   D    
Cr2   O12   S    
C6    H50   S    
C32   H1    S    
C1    O13   A    
C29   O10   A    
C10   C11   S    
C27   O9    A    
C20   C21   S    
C31   O24   A    
C38   H24   S    
Cr1   O1    S    
C15   H8    S    
C14   C15   D    
C4    O15   A    
C32   H4    S    
C26   O6    A    
C7    H2    S    
C46   H18   S    
C25   O3    A    
C8    H7    S    
C25   O26   A    
