data_mof_unit_45068.cif
_audit_creation_date              2012-10-26T19:56:43-0400
_audit_creation_method            fapswitch 2.2
_symmetry_space_group_name_H-M    P1
_symmetry_Int_Tables_number       1
_space_group_crystal_system       triclinic
_cell_length_a                    15.905395
_cell_length_b                    15.300902
_cell_length_c                    9.915681
_cell_angle_alpha                 89.467587
_cell_angle_beta                  58.81182
_cell_angle_gamma                 89.541218
_cell_volume                      2064.27525501

loop_
_atom_site_label
_atom_site_type_symbol
_atom_type_description
_atom_site_fract_x
_atom_site_fract_y
_atom_site_fract_z
_atom_type_partial_charge
C1    C     C_R   0.369925 0.117436 0.563622 0.518017
C2    C     C_2   0.489898 0.993665 0.084118 0.091762
C3    C     C_2   0.009947 0.507217 0.915922 0.096310
C4    C     C_2   0.989947 0.506863 0.083976 0.102663
C5    C     C_2   0.297464 0.813597 0.604439 -0.019590
C6    C     C_2   0.708977 0.179881 0.392829 -0.017994
C7    C     C_2   0.701281 0.811883 0.400522 -0.003064
C8    C     C_2   0.290651 0.180900 0.604546 -0.022701
C9    C     C_2   0.791581 0.319449 0.606657 -0.025854
C10   C     C_2   0.202407 0.686495 0.395559 -0.013240
C11   C     C_2   0.201918 0.312349 0.400944 -0.015368
C12   C     C_R   0.627846 0.880588 0.437490 0.516559
C13   C     C_2   0.797625 0.687027 0.600005 -0.002238
C14   C     C_2   0.290031 0.778832 0.487007 -0.108492
C15   C     C_2   0.708338 0.224431 0.509727 -0.090204
C16   C     C_2   0.691976 0.763281 0.521489 -0.080691
C17   C     C_2   0.258189 0.191384 0.503771 -0.082816
C18   C     C_2   0.791547 0.276206 0.489114 -0.091148
C19   C     C_2   0.209468 0.721681 0.513049 -0.103267
C20   C     C_2   0.188562 0.259646 0.520230 -0.085462
C21   C     C_2   0.761872 0.695476 0.503564 -0.082434
C22   C     C_2   0.658292 0.012447 0.008533 0.425418
C23   C     C_R   0.629546 0.117514 0.435795 0.525154
C24   C     C_2   0.344176 0.023132 0.989948 0.403494
C25   C     C_2   0.158422 0.487607 0.009053 0.411689
C26   C     C_2   0.842154 0.484937 0.990923 0.388521
C27   C     C_2   0.787379 0.186423 0.223225 0.256607
C28   C     C_2   0.234357 0.788106 0.773514 0.234250
C29   C     C_2   0.252731 0.230750 0.753864 0.265252
C30   C     C_2   0.783136 0.802606 0.233011 0.214377
C31   C     C_2   0.265892 0.711546 0.226341 0.227073
C32   C     C_2   0.714590 0.310439 0.776647 0.253349
C33   C     C_2   0.770621 0.745001 0.737324 0.217945
C34   C     C_R   0.371745 0.881184 0.563644 0.518485
C35   C     C_2   0.288503 0.308352 0.236649 0.252609
C36   C     C_R   0.871185 0.618507 0.563014 0.515988
C37   C     C_R   0.128014 0.380690 0.437497 0.515274
C38   C     C_R   0.128216 0.618840 0.436370 0.527584
C39   C     C_R   0.870559 0.382341 0.564134 0.516343
C40   C     C_2   0.509956 0.991516 0.916025 0.094635
Cu1   Cu    Cu3+1 0.522650 0.000000 0.349410 0.992770
Cu2   Cu    Cu3+1 0.477350 0.000000 0.650590 0.994418
Cu3   Cu    Cu3+1 0.022650 0.500000 0.349410 1.000936
Cu4   Cu    Cu3+1 0.977350 0.500000 0.650590 0.988996
H1    H     H_    0.643416 0.220234 0.626460 0.202598
H2    H     H_    0.584138 0.978008 0.821097 0.193267
H3    H     H_    0.915076 0.516191 0.179912 0.168182
H4    H     H_    0.084567 0.517540 0.819972 0.186861
H5    H     H_    0.713068 0.987730 0.033183 0.103525
H6    H     H_    0.285540 0.999060 0.975104 0.120198
H7    H     H_    0.212887 0.513727 0.032155 0.108037
H8    H     H_    0.786606 0.509931 0.968300 0.102060
H9    H     H_    0.804073 0.130014 0.147717 0.121196
H10   H     H_    0.214487 0.836700 0.864367 0.138396
H11   H     H_    0.297972 0.236243 0.805959 0.143440
H12   H     H_    0.345044 0.795490 0.366670 0.193643
H13   H     H_    0.778067 0.835668 0.140155 0.120752
H14   H     H_    0.286204 0.662614 0.135872 0.125388
H15   H     H_    0.698292 0.365484 0.854854 0.122979
H16   H     H_    0.791926 0.726515 0.821464 0.124777
H17   H     H_    0.286831 0.344530 0.143392 0.126900
H18   H     H_    0.288070 0.150804 0.399421 0.211193
H19   H     H_    0.630082 0.773971 0.640102 0.177400
H20   H     H_    0.154193 0.705334 0.633416 0.197429
H21   H     H_    0.855724 0.281763 0.371910 0.208394
H22   H     H_    0.785262 0.650486 0.406153 0.171282
H23   H     H_    0.122266 0.266673 0.634974 0.206423
H24   H     H_    0.414669 0.985879 0.180092 0.173837
N1    N     N_2   0.443290 0.000000 0.876860 -0.267673
N2    N     N_2   0.556710 0.000000 0.123140 -0.267927
N3    N     N_2   0.943290 0.500000 0.876860 -0.268187
N4    N     N_2   0.056710 0.500000 0.123140 -0.259303
O1    O     O_R   0.422430 0.089640 0.419570 -0.470591
O2    O     O_R   0.615830 0.910350 0.326090 -0.538586
O3    O     O_R   0.615830 0.089650 0.326090 -0.500445
O4    O     O_R   0.384170 0.910350 0.673910 -0.518919
O5    O     O_R   0.884170 0.589650 0.673910 -0.538989
O6    O     O_R   0.115830 0.410350 0.326090 -0.518278
O7    O     O_R   0.115830 0.589650 0.326090 -0.516505
O8    O     O_R   0.884170 0.410350 0.673910 -0.503573
O9    O     O_2   0.685192 0.056225 0.889556 -0.466419
O10   O     O_2   0.324381 0.075322 0.094957 -0.518095
O11   O     O_2   0.185853 0.442277 0.892772 -0.497273
O12   O     O_R   0.577570 0.910360 0.580430 -0.496522
O13   O     O_2   0.816659 0.438550 0.106536 -0.484649
O14   O     O_2   0.829408 0.255058 0.163990 -0.436504
O15   O     O_2   0.209681 0.712364 0.813225 -0.518254
O16   O     O_2   0.170471 0.262628 0.823870 -0.455918
O17   O     O_2   0.857801 0.761149 0.196314 -0.505680
O18   O     O_2   0.290363 0.787262 0.186035 -0.525446
O19   O     O_2   0.673251 0.241143 0.832950 -0.430380
O20   O     O_2   0.727967 0.814588 0.756101 -0.523042
O21   O     O_2   0.363229 0.268013 0.203595 -0.457041
O22   O     O_R   0.577570 0.089640 0.580430 -0.483644
O23   O     O_R   0.422430 0.910360 0.419570 -0.515563
O24   O     O_R   0.922430 0.589640 0.419570 -0.491339
O25   O     O_R   0.077570 0.410360 0.580430 -0.474395
O26   O     O_R   0.077570 0.589640 0.580430 -0.511298
O27   O     O_R   0.922430 0.410360 0.419570 -0.489594
O28   O     O_R   0.384170 0.089650 0.673910 -0.520042

loop_
_geom_bond_atom_site_label_1
_geom_bond_atom_site_label_2
_ccdc_geom_bond_type
C15   C18   S    
C14   H12   S    
C16   C21   S    
C12   O2    A    
C21   H22   S    
C1    C8    S    
Cu1   Cu2   S    
C20   H23   S    
C38   O26   A    
C37   O25   A    
Cu3   O6    S    
C40   H2    S    
Cu3   N4    S    
C8    C29   S    
C31   H14   S    
Cu4   O5    S    
Cu3   O27   S    
C2    H24   S    
C36   O5    A    
C32   O19   D    
C38   O7    A    
Cu3   O7    S    
C30   H13   S    
C3    H4    S    
C9    C39   S    
C17   C20   S    
C12   O12   A    
Cu4   N3    S    
C11   C37   S    
C24   O10   D    
C29   O16   D    
C9    C32   S    
Cu1   O2    S    
Cu4   O26   S    
C10   C31   S    
C16   H19   S    
C19   H20   S    
C6    C15   D    
C7    C30   S    
C26   N3    S    
C30   O17   D    
C1    O28   A    
C24   N1    S    
C35   O21   D    
C24   H6    S    
C7    C12   S    
C11   C20   D    
C40   N1    D    
C22   O9    D    
Cu4   O8    S    
Cu2   O12   S    
C34   O23   A    
C13   C36   S    
C33   O20   D    
C28   H10   S    
C29   H11   S    
Cu2   N1    S    
C18   H21   S    
C27   O14   D    
C3    N3    D    
Cu3   Cu4   S    
C25   H7    S    
C13   C33   S    
C26   H8    S    
Cu2   O28   S    
C17   H18   S    
Cu1   O3    S    
C5    C28   S    
Cu4   O25   S    
C36   O24   A    
C39   O27   A    
C6    C27   S    
C10   C19   D    
C31   O18   D    
C5    C34   S    
C28   O15   D    
Cu3   O24   S    
C13   C21   D    
C35   H17   S    
C25   N4    S    
C5    C14   D    
C22   H5    S    
C7    C16   D    
C33   H16   S    
C15   H1    S    
C3    C4    S    
C4    N4    D    
Cu2   O22   S    
C14   C19   S    
C23   O3    A    
C27   H9    S    
C37   O6    A    
Cu2   O4    S    
C8    C17   D    
C23   O22   A    
C10   C38   S    
C1    O1    A    
C39   O8    A    
C11   C35   S    
Cu1   O23   S    
C26   O13   D    
C6    C23   S    
Cu1   O1    S    
C2    C40   S    
C9    C18   D    
C25   O11   D    
C32   H15   S    
C2    N2    D    
C22   N2    S    
C34   O4    A    
Cu1   N2    S    
C4    H3    S    
