data_mof_unit_17929.cif
_audit_creation_date              2013-03-05T15:49:52-0500
_audit_creation_method            fapswitch 2.2
_symmetry_space_group_name_H-M    P1
_symmetry_Int_Tables_number       1
_space_group_crystal_system       triclinic
_cell_length_a                    27.731187
_cell_length_b                    12.981742
_cell_length_c                    11.74898
_cell_angle_alpha                 99.365856
_cell_angle_beta                  92.799748
_cell_angle_gamma                 91.876326
_cell_volume                      4164.70254897

loop_
_atom_site_label
_atom_site_type_symbol
_atom_site_description
_atom_site_fract_x
_atom_site_fract_y
_atom_site_fract_z
_atom_type_partial_charge
O1    O     O_R   0.502540 0.354460 0.582000 -0.542350
O2    O     O_R   0.497460 0.645540 0.418000 -0.596413
O3    O     O_R   0.496500 0.341410 0.386200 -0.585240
O4    O     O_R   0.503500 0.658590 0.613800 -0.585482
C1    C     C_R   0.500148 0.299691 0.478927 0.801761
C2    C     C_R   0.500027 0.700315 0.520975 0.798139
O5    O     O_R   0.433290 0.506540 0.597890 -0.614344
O6    O     O_R   0.566710 0.493460 0.402110 -0.577007
O7    O     O_R   0.427240 0.493490 0.402090 -0.589953
O8    O     O_R   0.572760 0.506510 0.597910 -0.584898
C3    C     C_R   0.407499 0.500343 0.501271 0.809648
C4    C     C_R   0.592543 0.500155 0.499044 0.809139
Cu1   Cu    Cu3+1 0.503580 0.507730 0.615930 0.953418
Cu2   Cu    Cu3+1 0.496420 0.492270 0.384070 0.949518
C5    C     C_R   0.177769 0.426418 0.545739 0.601807
C6    C     C_R   0.822928 0.599863 0.507359 0.581779
O9    O     O_2   0.202165 0.339543 0.554205 -0.539105
O10   O     O_2   0.797282 0.685692 0.502713 -0.541270
N1    N     N_R   0.202228 0.511400 0.518921 -0.456372
N2    N     N_R   0.798610 0.505554 0.498115 -0.455537
C7    C     C_R   0.179191 0.598509 0.499012 0.593026
C8    C     C_R   0.822020 0.414732 0.497002 0.619170
C9    C     C_R   0.282668 0.518843 0.617805 0.459795
C10   C     C_R   0.724228 0.508501 0.602739 0.461178
C11   C     C_R   0.333048 0.514879 0.612432 -0.320321
C12   C     C_R   0.673586 0.507270 0.602097 -0.317422
C13   C     C_R   0.325170 0.494264 0.403280 -0.214798
C14   C     C_R   0.668950 0.495000 0.393554 -0.197145
C15   C     C_R   0.275121 0.497643 0.408104 -0.189440
C16   C     C_R   0.719284 0.496143 0.393742 -0.197410
C17   C     C_R   0.253817 0.509752 0.514822 0.331871
C18   C     C_R   0.746875 0.502849 0.497873 0.333752
C19   C     C_R   0.102793 0.517150 0.537594 -0.137092
C20   C     C_R   0.898942 0.513452 0.522000 -0.135462
C21   C     C_R   0.127622 0.428894 0.561956 -0.130619
C22   C     C_R   0.873998 0.607091 0.522175 -0.125944
C23   C     C_R   0.101676 0.347525 0.603265 -0.038597
C24   C     C_R   0.900811 0.704180 0.541480 -0.044251
C25   C     C_R   0.128639 0.602834 0.505045 -0.044618
C26   C     C_R   0.872864 0.415949 0.507636 -0.046889
C27   C     C_R   0.354558 0.502760 0.505403 -0.068802
C28   C     C_R   0.645669 0.500620 0.497800 -0.078918
H1    H     H_    0.340799 0.484864 0.319700 0.168924
H2    H     H_    0.648337 0.489990 0.312009 0.200174
H3    H     H_    0.252749 0.490427 0.328825 0.158619
H4    H     H_    0.736940 0.492126 0.313041 0.158848
C29   C     C_R   0.974780 0.424553 0.543249 0.016813
C30   C     C_R   0.027256 0.609173 0.525738 0.020835
C31   C     C_R   0.976615 0.612372 0.539487 -0.041608
C32   C     C_R   0.025649 0.430185 0.565959 -0.041663
C33   C     C_R   0.950086 0.516918 0.535192 0.041714
C34   C     C_R   0.051944 0.519084 0.543834 0.043059
C35   C     C_R   0.948552 0.328341 0.521017 -0.314836
C36   C     C_R   0.053190 0.690628 0.487275 -0.322392
C37   C     C_R   0.898139 0.322773 0.504057 0.444036
C38   C     C_R   0.103373 0.689376 0.478163 0.439086
O11   O     O_2   0.795784 0.323995 0.486930 -0.475019
O12   O     O_2   0.205458 0.680444 0.473985 -0.465311
C39   C     C_R   0.051226 0.349968 0.608510 0.328593
C40   C     C_R   0.951430 0.706798 0.555154 0.329496
H5    H     H_    0.656146 0.511801 0.683176 0.158988
H6    H     H_    0.355304 0.521716 0.691892 0.148100
H7    H     H_    0.967302 0.255986 0.512522 0.188502
H8    H     H_    0.034358 0.754439 0.459229 0.188836
C41   C     C_R   0.501562 0.813384 0.532470 -0.134134
C42   C     C_R   0.499126 0.186571 0.466787 -0.133584
C43   C     C_R   0.461935 0.022090 0.372372 -0.168154
C44   C     C_R   0.539483 0.977551 0.625585 -0.140579
C45   C     C_R   0.468921 0.128907 0.378565 -0.280135
C46   C     C_R   0.532097 0.870876 0.620092 -0.277655
C47   C     C_R   0.524998 0.136050 0.546767 0.374919
C48   C     C_R   0.476105 0.863823 0.451733 0.349881
C49   C     C_R   0.516557 0.028604 0.542960 0.057058
C50   C     C_R   0.484819 0.971096 0.455082 0.055755
H9    H     H_    0.551643 0.832538 0.682403 0.170318
H10   H     H_    0.449251 0.167203 0.316409 0.171274
H11   H     H_    0.437821 0.980166 0.303804 0.202340
H12   H     H_    0.563769 0.019385 0.693843 0.204629
N3    N     N_R   0.508960 0.519350 0.790140 -0.222077
N4    N     N_R   0.491040 0.480650 0.209860 -0.221624
C51   C     C_R   0.451057 0.404907 0.027571 -0.086562
C52   C     C_R   0.540855 0.610417 0.974446 -0.084831
C53   C     C_R   0.456251 0.415795 0.148697 -0.058237
C54   C     C_R   0.536998 0.597778 0.853209 -0.061200
C55   C     C_R   0.521514 0.539643 0.153424 0.558567
C56   C     C_R   0.482308 0.451710 0.844808 0.558462
C57   C     C_R   0.515091 0.539167 0.032547 -0.074606
C58   C     C_R   0.482367 0.464541 0.967468 -0.083149
H13   H     H_    0.555986 0.652207 0.808729 0.146424
H14   H     H_    0.432131 0.372070 0.194743 0.145272
O13   O     O_3   0.458703 0.364417 0.782297 -0.707827
H15   H     H_    0.441002 0.385840 0.716296 0.353913
O14   O     O_3   0.562179 0.591371 0.209516 -0.742659
H16   H     H_    0.554361 0.621769 0.287785 0.366969
C59   C     C_R   0.409601 0.338240 0.969967 0.191446
C60   C     C_R   0.406879 0.230990 0.975708 -0.120969
C61   C     C_R   0.367375 0.168476 0.922789 -0.128887
C62   C     C_R   0.330225 0.212642 0.864628 -0.093233
C63   C     C_R   0.332421 0.319491 0.859583 -0.136814
C64   C     C_R   0.371805 0.382377 0.912551 -0.137824
H17   H     H_    0.435430 0.195877 0.020567 0.124080
H18   H     H_    0.365544 0.085772 0.926945 0.136454
H19   H     H_    0.299673 0.164139 0.823734 0.137298
H20   H     H_    0.303539 0.353494 0.814801 0.158767
H21   H     H_    0.373003 0.465190 0.908547 0.109724
C65   C     C_R   0.567414 0.705776 0.036460 0.175711
C66   C     C_R   0.616363 0.724472 0.017982 -0.130538
C67   C     C_R   0.641154 0.814762 0.076342 -0.124201
C68   C     C_R   0.617229 0.887165 0.152808 -0.101221
C69   C     C_R   0.568384 0.869735 0.170669 -0.129165
C70   C     C_R   0.543420 0.779755 0.112282 -0.108748
H22   H     H_    0.635338 0.668812 0.959239 0.122055
H23   H     H_    0.678945 0.828564 0.062371 0.138733
H24   H     H_    0.636513 0.956889 0.198015 0.139335
H25   H     H_    0.549856 0.925980 0.229644 0.144371
H26   H     H_    0.505521 0.767336 0.126560 0.142594
C71   C     C_R   0.126362 0.263205 0.651655 0.231479
C72   C     C_R   0.155119 0.286652 0.755128 -0.069184
C73   C     C_R   0.178657 0.207226 0.800052 -0.143681
C74   C     C_R   0.173229 0.104004 0.742769 -0.102364
C75   C     C_R   0.144175 0.079978 0.640567 -0.117526
C76   C     C_R   0.120709 0.159222 0.595094 -0.059820
H27   H     H_    0.159568 0.366397 0.800114 0.134769
H28   H     H_    0.201131 0.225682 0.879216 0.133159
H29   H     H_    0.191479 0.042630 0.777653 0.141798
H30   H     H_    0.139916 0.999972 0.596481 0.159692
H31   H     H_    0.098437 0.139875 0.515630 0.129065
C77   C     C_R   0.877279 0.805847 0.554956 0.248446
C78   C     C_R   0.860364 0.849608 0.662124 -0.063177
C79   C     C_R   0.838125 0.945638 0.674466 -0.139440
C80   C     C_R   0.832782 0.998337 0.580154 -0.075141
C81   C     C_R   0.849836 0.955274 0.473438 -0.135261
C82   C     C_R   0.872266 0.859485 0.460835 -0.086320
H32   H     H_    0.864264 0.809160 0.735525 0.125375
H33   H     H_    0.824974 0.979132 0.757059 0.140656
H34   H     H_    0.815472 0.072550 0.589783 0.184344
H35   H     H_    0.845669 0.996105 0.400480 0.160354
H36   H     H_    0.885381 0.826712 0.377877 0.122158
O15   O     O_3   0.752448 0.515631 0.704059 -0.724929
H37   H     H_    0.731114 0.519204 0.769796 0.319030
O16   O     O_3   0.260706 0.532096 0.721873 -0.734962
H38   H     H_    0.285949 0.539039 0.785714 0.309324
O17   O     O_3   0.873341 0.226835 0.482978 -0.693992
H39   H     H_    0.896452 0.170312 0.484392 0.315274
O18   O     O_3   0.127884 0.771320 0.441219 -0.675928
H40   H     H_    0.104976 0.825785 0.427934 0.313379
O19   O     O_3   0.028775 0.278629 0.666172 -0.741842
H41   H     H_    0.001109 0.312337 0.705336 0.336293
O20   O     O_3   0.974661 0.802793 0.594225 -0.743631
H42   H     H_    0.002851 0.791889 0.645490 0.333674
O21   O     O_3   0.442574 0.811056 0.369923 -0.743913
H43   H     H_    0.427678 0.751874 0.401120 0.333325
O22   O     O_3   0.558517 0.188945 0.628516 -0.718309
H44   H     H_    0.572882 0.249029 0.597948 0.327992

loop_
_geom_bond_atom_site_label_1
_geom_bond_atom_site_label_2
_geom_bond_distance
_ccdc_geom_bond_type
C57   C58   1.407200 A    
Cu1   N3    2.025478 S    
O14   H16   0.977410 S    
C13   C15   1.393669 A    
C49   C50   1.419613 A    
C76   H31   1.083225 S    
C59   C60   1.404599 A    
C43   H11   1.083151 S    
C71   C76   1.404404 A    
N1    C17   1.434520 S    
C77   C78   1.403732 A    
C8    O11   1.349424 S    
C61   C62   1.398016 A    
O20   H42   0.991436 S    
C73   H28   1.082579 S    
C19   C34   1.416411 A    
C5    N1    1.364349 A    
C20   C33   1.417622 A    
C19   C25   1.417829 A    
C31   C40   1.421073 A    
O1    C1    1.298179 A    
C32   C39   1.421485 A    
N1    C7    1.363955 A    
C12   H5    1.083251 S    
C10   C12   1.403549 A    
C56   O13   1.373178 S    
N3    C54   1.355199 A    
C51   C59   1.482180 S    
C56   C58   1.423451 A    
O17   H39   0.991528 S    
C42   C45   1.399255 A    
C65   C66   1.404631 A    
C62   H19   1.082556 S    
C47   O22   1.383604 S    
O4    Cu1   1.962726 S    
C67   C68   1.398194 A    
C45   H10   1.083974 S    
C66   H22   1.083228 S    
C14   C28   1.404790 A    
C38   O18   1.383386 S    
C69   C70   1.397914 A    
C4    C28   1.473875 S    
C72   C73   1.398332 A    
C55   O14   1.375022 S    
C2    C41   1.450998 S    
O19   H41   0.991355 S    
C81   C82   1.398151 A    
C31   C33   1.412651 A    
C32   C34   1.411443 A    
O21   H43   0.990413 S    
C70   H26   1.083319 S    
Cu2   N4    2.025480 S    
C61   H18   1.082319 S    
C6    N2    1.364168 A    
C72   H27   1.083258 S    
C26   C37   1.413496 A    
C35   C37   1.400295 A    
C63   H20   1.082000 S    
C82   H36   1.083089 S    
C60   H17   1.083261 S    
O2    C2    1.297195 A    
C77   C82   1.403193 A    
N4    C53   1.355771 A    
C5    C21   1.413505 A    
C51   C53   1.406816 A    
O18   H40   0.991712 S    
C29   C32   1.420094 A    
C65   C70   1.407108 A    
C55   C57   1.421628 A    
C10   O15   1.380743 S    
C44   H12   1.083142 S    
C36   C38   1.401375 A    
C37   O17   1.382854 S    
C48   C50   1.399435 A    
C80   H34   1.082380 S    
C11   C27   1.405999 A    
O13   H15   0.980601 S    
C47   C49   1.399867 A    
C74   H29   1.082287 S    
C29   C33   1.414218 A    
C81   H35   1.082268 S    
C14   H2    1.082900 S    
C15   H3    1.082872 S    
C43   C45   1.383422 A    
C9    C17   1.403848 A    
C67   H23   1.082333 S    
C30   C36   1.406086 A    
O7    Cu2   1.940638 S    
C10   C18   1.402486 A    
C42   C47   1.411900 A    
N4    C55   1.384904 A    
C13   C27   1.404076 A    
O5    C3    1.301464 A    
C25   C38   1.413602 A    
C7    C25   1.409592 A    
C30   C34   1.414515 A    
O6    C4    1.304526 A    
C48   O21   1.383619 S    
C8    C26   1.408746 A    
C60   C61   1.398683 A    
C52   C57   1.428938 A    
C64   H21   1.083202 S    
C43   C50   1.400691 A    
C73   C74   1.398062 A    
O7    C3    1.302777 A    
C75   C76   1.398566 A    
C23   C39   1.404548 A    
O3    Cu2   1.962726 S    
O8    C4    1.300400 A    
C68   H24   1.082329 S    
C24   C40   1.403745 A    
O4    C2    1.295183 A    
C30   C31   1.422598 A    
C79   H33   1.082279 S    
N2    C8    1.362953 A    
C52   C54   1.405417 A    
C20   C26   1.418532 A    
O1    Cu1   1.963583 S    
C54   H13   1.082736 S    
C66   C67   1.398663 A    
C80   C81   1.398321 A    
C74   C75   1.398348 A    
C12   C28   1.406016 A    
C78   C79   1.398469 A    
N2    C18   1.433822 S    
C5    O9    1.348856 S    
C53   H14   1.082926 S    
O6    Cu2   1.949675 S    
C21   C23   1.421357 A    
C59   C64   1.406413 A    
C16   H4    1.082766 S    
C1    C42   1.451319 S    
O3    C1    1.294336 A    
O8    Cu1   1.940638 S    
C24   C77   1.480304 S    
O15   H37   0.991688 S    
C11   H6    1.083272 S    
C41   C48   1.412065 A    
C71   C72   1.405523 A    
C63   C64   1.398719 A    
C29   C35   1.404633 A    
C75   H30   1.082520 S    
C14   C16   1.395313 A    
C79   C80   1.398254 A    
C44   C49   1.400904 A    
C7    O12   1.349226 S    
C15   C17   1.400045 A    
O16   H38   0.991631 S    
C6    C22   1.416581 A    
C16   C18   1.399754 A    
C35   H7    1.081270 S    
C36   H8    1.080681 S    
C22   C24   1.421967 A    
C19   C21   1.416969 A    
C3    C27   1.472492 S    
C20   C22   1.417946 A    
C40   O20   1.382410 S    
C52   C65   1.483259 S    
O2    Cu2   1.963581 S    
C51   C58   1.430269 A    
C78   H32   1.083099 S    
C13   H1    1.083077 S    
O5    Cu1   1.949680 S    
C9    C11   1.403859 A    
C23   C71   1.484485 S    
C6    O10   1.348388 S    
C62   C63   1.397440 A    
C68   C69   1.397551 A    
C46   H9    1.083947 S    
C44   C46   1.383803 A    
C9    O16   1.380821 S    
O22   H44   0.990394 S    
Cu1   Cu2   2.695762 S    
C69   H25   1.082548 S    
N3    C56   1.384663 A    
C41   C46   1.399024 A    
C39   O19   1.382718 S    
