data_mof_unit_36371.cif
_audit_creation_date              2012-12-10T17:11:26-0500
_audit_creation_method            fapswitch 2.2
_symmetry_space_group_name_H-M    P1
_symmetry_Int_Tables_number       1
_space_group_crystal_system       triclinic
_cell_length_a                    15.038939
_cell_length_b                    13.061526
_cell_length_c                    11.837958
_cell_angle_alpha                 100.534856
_cell_angle_beta                  93.296489
_cell_angle_gamma                 93.219981
_cell_volume                      2277.09513786

loop_
_atom_site_label
_atom_site_type_symbol
_atom_type_description
_atom_site_fract_x
_atom_site_fract_y
_atom_site_fract_z
_atom_type_partial_charge
C1    C     C_R   0.499474 0.299437 0.478111 0.895797
C2    C     C_R   0.566685 0.875809 0.618558 0.339307
C3    C     C_R   0.544730 0.139026 0.545138 0.154743
C4    C     C_R   0.457027 0.860967 0.454694 0.148559
C5    C     C_R   0.532180 0.030590 0.541397 0.018453
C6    C     C_R   0.469915 0.969273 0.458284 0.019505
C7    C     C_R   0.417416 0.396683 0.021404 0.303382
C8    C     C_R   0.582286 0.603920 0.979657 0.319286
C9    C     C_R   0.417701 0.415372 0.142389 0.364643
C10   C     C_R   0.581596 0.585684 0.857859 0.304058
C11   C     C_R   0.542700 0.536974 0.156818 0.377177
C12   C     C_R   0.501476 0.700557 0.521829 0.905137
C13   C     C_R   0.457400 0.462798 0.843161 0.368334
C14   C     C_R   0.531909 0.535667 0.034536 -0.152940
C15   C     C_R   0.469004 0.463199 0.965199 -0.256769
C16   C     C_R   0.329308 0.497515 0.500414 0.934441
C17   C     C_R   0.670610 0.503417 0.499790 0.939379
C18   C     C_R   0.818625 0.600159 0.532426 0.095745
C19   C     C_R   0.180658 0.401563 0.472516 0.085900
C20   C     C_R   0.766925 0.505474 0.498208 -0.131743
C21   C     C_R   0.232906 0.496246 0.503036 -0.136039
C22   C     C_R   0.805155 0.411782 0.460985 0.288428
C23   C     C_R   0.029812 0.308151 0.456670 0.259185
C24   C     C_R   0.195129 0.590416 0.540202 0.294388
C25   C     C_R   0.898455 0.409251 0.468751 -0.011534
C26   C     C_R   0.101692 0.593057 0.535981 -0.014373
C27   C     C_R   0.952901 0.503153 0.502609 -0.039241
C28   C     C_R   0.047064 0.499102 0.505752 -0.038837
C29   C     C_R   0.913352 0.600658 0.532490 0.011455
C30   C     C_R   0.086436 0.401426 0.477870 0.015008
C31   C     C_R   0.937658 0.313678 0.449016 -0.255891
C32   C     C_R   0.062361 0.688498 0.557206 -0.255008
C33   C     C_3   0.745705 0.747253 0.477276 -0.620471
C34   C     C_R   0.970247 0.693871 0.558907 0.266376
C35   C     C_3   0.262173 0.256606 0.517573 -0.589590
C36   C     C_3   0.048190 0.155221 0.541776 -0.698030
C37   C     C_3   0.954442 0.851303 0.697613 -0.734736
C38   C     C_3   0.415371 0.765462 0.258919 -0.599950
C39   C     C_3   0.585266 0.234903 0.740862 -0.627111
C40   C     C_3   0.296585 0.456770 0.802674 -0.595705
C41   C     C_3   0.702835 0.546362 0.200868 -0.601279
C42   C     C_3   0.738985 0.596497 0.825647 -0.693014
C43   C     C_3   0.258474 0.380412 0.165866 -0.609849
C44   C     C_R   0.506931 0.814420 0.533827 -0.112039
C45   C     C_R   0.494754 0.185459 0.465892 -0.114870
C46   C     C_R   0.422892 0.016836 0.378719 -0.288656
C47   C     C_R   0.579469 0.982821 0.620665 -0.290536
C48   C     C_R   0.435667 0.123706 0.380578 0.336565
Cu1   Cu    Cu3+1 0.506660 0.507730 0.615930 0.976457
Cu2   Cu    Cu3+1 0.493340 0.492270 0.384070 0.977019
H1    H     H_    0.897035 0.240784 0.431948 0.162749
H2    H     H_    0.271251 0.174003 0.479549 0.225634
H3    H     H_    0.218518 0.258082 0.590094 0.229280
H4    H     H_    0.327921 0.295267 0.551710 0.212929
H5    H     H_    0.409601 0.269877 0.910995 0.311063
H6    H     H_    0.646865 0.740904 0.996771 0.352964
H7    H     H_    0.774512 0.282555 0.353448 0.316449
H8    H     H_    0.227538 0.720854 0.644967 0.317824
H9    H     H_    0.044397 0.160086 0.367999 0.239858
H10   H     H_    0.087534 0.085146 0.534008 0.226532
H11   H     H_    0.976388 0.129867 0.541404 0.218283
H12   H     H_    0.102812 0.761439 0.571250 0.161700
H13   H     H_    0.069344 0.207713 0.625032 0.234996
H14   H     H_    0.954220 0.839389 0.520942 0.249807
H15   H     H_    0.916827 0.922810 0.709589 0.231622
H16   H     H_    0.026771 0.874740 0.715565 0.223746
H17   H     H_    0.932601 0.802583 0.760051 0.232366
H18   H     H_    0.326782 0.822689 0.382388 0.256054
H19   H     H_    0.379347 0.808242 0.199620 0.189820
H20   H     H_    0.396004 0.681006 0.230829 0.239181
H21   H     H_    0.488370 0.778439 0.251765 0.230011
H22   H     H_    0.674647 0.177704 0.618513 0.255357
H23   H     H_    0.375070 0.971864 0.314630 0.152779
H24   H     H_    0.619472 0.190694 0.800223 0.191619
H25   H     H_    0.511959 0.223834 0.746675 0.211630
H26   H     H_    0.606073 0.318925 0.769777 0.240252
H27   H     H_    0.654268 0.882782 0.748563 0.320589
H28   H     H_    0.349155 0.115947 0.249218 0.326478
H29   H     H_    0.378369 0.331589 0.756106 0.235674
H30   H     H_    0.243771 0.420407 0.735867 0.208018
H31   H     H_    0.302308 0.542076 0.803283 0.227782
H32   H     H_    0.275876 0.443520 0.887413 0.229609
H33   H     H_    0.619193 0.670913 0.237998 0.271935
H34   H     H_    0.627483 0.027708 0.684583 0.151695
H35   H     H_    0.755291 0.586217 0.266315 0.208388
H36   H     H_    0.723351 0.555575 0.114701 0.228464
H37   H     H_    0.698406 0.461893 0.204839 0.228243
H38   H     H_    0.638554 0.656049 0.730748 0.346849
H39   H     H_    0.739536 0.514482 0.779546 0.242404
H40   H     H_    0.757169 0.599734 0.918487 0.233843
H41   H     H_    0.790627 0.645039 0.792789 0.220727
H42   H     H_    0.363822 0.341404 0.270397 0.337281
H43   H     H_    0.231929 0.427605 0.242630 0.213648
H44   H     H_    0.217726 0.305196 0.142243 0.228515
H45   H     H_    0.795162 0.738647 0.645249 0.295011
H46   H     H_    0.251198 0.423737 0.093720 0.216927
H47   H     H_    0.730267 0.827889 0.515204 0.229530
H48   H     H_    0.684609 0.706722 0.429367 0.222618
H49   H     H_    0.799194 0.751852 0.417090 0.221633
H50   H     H_    0.194821 0.261736 0.357275 0.274952
N1    N     N_R   0.516670 0.519360 0.790130 -0.242889
N2    N     N_2   0.617956 0.590720 0.224423 -0.359422
N3    N     N_2   0.651934 0.636103 0.809005 -0.414718
N4    N     N_2   0.350569 0.359862 0.191494 -0.360906
N5    N     N_R   0.483330 0.480640 0.209870 -0.272774
N6    N     N_2   0.773213 0.692449 0.567716 -0.414467
N7    N     N_2   0.224150 0.309269 0.430580 -0.417103
N8    N     N_2   0.063699 0.207577 0.446165 -0.427659
N9    N     N_2   0.936605 0.794702 0.580592 -0.427072
N10   N     N_2   0.390813 0.798800 0.376103 -0.404655
N11   N     N_2   0.610540 0.201468 0.624061 -0.398633
N12   N     N_2   0.380641 0.411709 0.776349 -0.369600
O1    O     O_R   0.504720 0.354460 0.582000 -0.582227
O2    O     O_3   0.631232 0.689228 0.045323 -0.766580
O3    O     O_3   0.749060 0.323353 0.421515 -0.744473
O4    O     O_3   0.251675 0.678971 0.576558 -0.744766
O5    O     O_3   0.614528 0.829322 0.696010 -0.747727
O6    O     O_3   0.388317 0.169657 0.302264 -0.738935
O7    O     O_R   0.495280 0.645540 0.418000 -0.580250
O8    O     O_R   0.493480 0.341410 0.386200 -0.559529
O9    O     O_R   0.506520 0.658590 0.613800 -0.559288
O10   O     O_R   0.375880 0.506510 0.597910 -0.555466
O11   O     O_R   0.624120 0.493490 0.402090 -0.557907
O12   O     O_R   0.364640 0.493450 0.402110 -0.602912
O13   O     O_R   0.635360 0.506550 0.597890 -0.598918
O14   O     O_3   0.368252 0.309497 0.961844 -0.716954

loop_
_geom_bond_atom_site_label_1
_geom_bond_atom_site_label_2
_ccdc_geom_bond_type
C25   C31   A    
Cu1   O1    S    
C38   H20   S    
C26   C32   A    
C16   C21   S    
H33   N2    S    
C35   H3    S    
C17   O13   A    
C42   N3    S    
C17   C20   S    
H7    O3    S    
C40   N12   S    
C41   H36   S    
C5    C47   A    
H29   N12   S    
Cu2   O8    S    
C10   N3    S    
H28   O6    S    
C24   C26   A    
C42   H41   S    
C13   N12   S    
H27   O5    S    
Cu1   N1    S    
C5    C6    A    
C11   C14   A    
C27   C29   A    
C23   N8    S    
C9    N5    A    
C43   H44   S    
C41   N2    S    
C33   H48   S    
C39   H24   S    
C16   O10   A    
C43   N4    S    
C17   O11   A    
C12   O9    A    
C2    C44   A    
C22   C25   A    
C37   H15   S    
C11   N5    A    
Cu2   N5    S    
C40   H30   S    
C39   H25   S    
C38   N10   S    
C36   H13   S    
C37   N9    S    
C8    O2    S    
C39   N11   S    
H22   N11   S    
C35   H4    S    
H8    O4    S    
C1    O1    A    
C2    O5    S    
C41   H37   S    
C46   C48   A    
C33   N6    S    
Cu2   O7    S    
C23   C30   A    
C40   H32   S    
Cu2   O12   S    
C4    C6    A    
C3    N11   S    
C48   O6    S    
C4    C44   A    
C3    C5    A    
C47   H34   S    
C29   C34   A    
C3    C45   A    
C33   H49   S    
C1    O8    A    
C32   C34   A    
C18   N6    S    
H45   N6    S    
C12   O7    A    
H5    O14   S    
Cu1   O9    S    
C37   H16   S    
C43   H46   S    
C18   C29   A    
H18   N10   S    
C39   H26   S    
C22   O3    S    
C20   C22   A    
C24   O4    S    
C13   C15   A    
C13   N1    A    
C36   H11   S    
C35   H2    S    
H38   N3    S    
C41   H35   S    
C45   C48   A    
C7    C9    A    
C4    N10   S    
C38   H21   S    
H50   N7    S    
C8    C14   A    
C6    C46   A    
C19   C21   A    
C40   H31   S    
C10   N1    A    
Cu2   O11   S    
C31   H1    S    
C36   H10   S    
C2    C47   A    
C25   C27   A    
Cu1   O13   S    
C26   C28   A    
H9    N8    S    
C42   H39   S    
C28   C30   A    
C16   O12   A    
C32   H12   S    
C12   C44   S    
C1    C45   S    
H14   N9    S    
C9    N4    S    
Cu1   O10   S    
C37   H17   S    
C7    C15   A    
C43   H43   S    
C11   N2    S    
C18   C20   A    
C7    O14   S    
C38   H19   S    
C35   N7    S    
H42   N4    S    
C36   N8    S    
C8    C10   A    
Cu1   Cu2   S    
C21   C24   A    
C27   C28   A    
C34   N9    S    
H6    O2    S    
C14   C15   A    
C33   H47   S    
C42   H40   S    
C19   C30   A    
C46   H23   S    
C23   C31   A    
C19   N7    S    
