data_mof_unit_37771.cif
_audit_creation_date              2012-12-10T20:20:51-0500
_audit_creation_method            fapswitch 2.2
_symmetry_space_group_name_H-M    P1
_symmetry_Int_Tables_number       1
_space_group_crystal_system       triclinic
_cell_length_a                    19.224609
_cell_length_b                    18.447865
_cell_length_c                    10.656484
_cell_angle_alpha                 89.944612
_cell_angle_beta                  90.422269
_cell_angle_gamma                 89.480668
_cell_volume                      3779.0940255

loop_
_atom_site_label
_atom_site_type_symbol
_atom_type_description
_atom_site_fract_x
_atom_site_fract_y
_atom_site_fract_z
_atom_type_partial_charge
C1    C     C_R   0.365502 0.500443 0.498367 0.888909
C2    C     C_R   0.035527 0.503983 0.335100 -0.112240
C3    C     C_R   0.071491 0.505210 0.450860 -0.101702
C4    C     C_R   0.927982 0.494268 0.450924 -0.100361
C5    C     C_R   0.036786 0.499598 0.565702 0.344578
C6    C     C_R   0.963831 0.497158 0.565840 0.342657
C7    C     C_R   0.540238 0.724791 0.585662 0.462667
C8    C     C_R   0.458766 0.725710 0.416189 0.467902
C9    C     C_R   0.538980 0.801958 0.590865 -0.205582
C10   C     C_R   0.460268 0.802790 0.410399 -0.201801
C11   C     C_R   0.499897 0.841483 0.500227 -0.072390
C12   C     C_R   0.634491 0.499605 0.498612 0.891196
C13   C     C_R   0.532917 0.961491 0.403683 -0.198674
C14   C     C_R   0.467582 0.962108 0.596738 -0.197195
C15   C     C_R   0.502721 0.500034 0.259943 0.895398
C16   C     C_R   0.503584 0.500009 0.739837 0.900986
C17   C     C_R   0.533401 0.037646 0.404098 -0.125974
C18   C     C_R   0.467704 0.038226 0.596774 -0.127842
C19   C     C_R   0.500650 0.076958 0.500516 0.230461
C20   C     C_R   0.500084 0.922915 0.500105 0.177376
C21   C     C_R   0.563443 0.196816 0.498947 0.263691
C22   C     C_R   0.437278 0.197586 0.502112 0.294219
C23   C     C_R   0.816795 0.558422 0.441103 -0.189924
C24   C     C_R   0.561523 0.273461 0.498797 -0.106147
C25   C     C_R   0.438679 0.274194 0.501863 -0.139679
C26   C     C_R   0.500486 0.158227 0.500399 0.000915
C27   C     C_R   0.486474 0.560374 0.062775 0.125095
C28   C     C_R   0.486605 0.560079 0.935589 0.149541
C29   C     C_R   0.513144 0.501285 0.128634 -0.179723
C30   C     C_R   0.514097 0.501431 0.871145 -0.163568
C31   C     C_R   0.553720 0.448176 0.066518 -0.087969
C32   C     C_R   0.554756 0.448785 0.934799 -0.087571
C33   C     C_3   0.416436 0.595043 0.925553 -0.511803
C34   C     C_R   0.183116 0.442466 0.434468 -0.181732
C35   C     C_3   0.416195 0.595781 0.067743 -0.437719
C36   C     C_R   0.745507 0.431819 0.499882 -0.228800
C37   C     C_R   0.254089 0.567489 0.505998 -0.195522
C38   C     C_R   0.816963 0.428221 0.484419 0.468902
C39   C     C_R   0.182454 0.571061 0.490175 0.494659
C40   C     C_R   0.852604 0.492580 0.454886 0.116625
C41   C     C_R   0.146957 0.507443 0.454584 0.102700
C42   C     C_R   0.594356 0.392164 0.135709 0.171584
C43   C     C_R   0.662387 0.406797 0.176147 -0.157675
C44   C     C_R   0.703372 0.351569 0.229027 -0.141319
C45   C     C_R   0.745511 0.561230 0.457681 -0.209240
C46   C     C_R   0.676636 0.281847 0.242480 -0.124903
C47   C     C_R   0.608726 0.267139 0.203108 -0.141076
C48   C     C_R   0.567542 0.322131 0.150131 -0.101409
C49   C     C_R   0.599639 0.396426 0.866898 0.171189
C50   C     C_R   0.576416 0.325912 0.842217 -0.095514
C51   C     C_R   0.621625 0.274657 0.789888 -0.153434
C52   C     C_R   0.689991 0.293572 0.761595 -0.120892
C53   C     C_R   0.713349 0.363706 0.786198 -0.147707
C54   C     C_R   0.668250 0.415183 0.838118 -0.169086
C55   C     C_R   0.576384 0.840948 0.692237 0.127150
C56   C     C_R   0.254554 0.439684 0.450819 -0.213153
C57   C     C_R   0.554727 0.833888 0.817240 -0.166569
C58   C     C_R   0.588643 0.871934 0.912803 -0.145328
C59   C     C_R   0.644325 0.917111 0.884231 -0.111474
C60   C     C_R   0.666340 0.924128 0.760103 -0.124819
C61   C     C_R   0.632644 0.886086 0.664270 -0.124944
C62   C     C_R   0.422217 0.842267 0.309369 0.128801
C63   C     C_R   0.441504 0.832501 0.183552 -0.179465
C64   C     C_R   0.406446 0.870219 0.088036 -0.147794
C65   C     C_R   0.351962 0.917766 0.117426 -0.107084
C66   C     C_R   0.332256 0.927458 0.242347 -0.122103
C67   C     C_R   0.709646 0.497938 0.487424 -0.118705
C68   C     C_R   0.367068 0.889723 0.338147 -0.118356
C69   C     C_R   0.922799 0.496980 0.215134 0.166060
C70   C     C_R   0.919976 0.559052 0.138795 -0.135669
C71   C     C_R   0.882949 0.558093 0.025356 -0.139417
C72   C     C_R   0.848415 0.495346 0.987586 -0.085339
C73   C     C_R   0.850921 0.433413 0.063133 -0.149249
C74   C     C_R   0.888033 0.434093 0.176526 -0.186376
C75   C     C_R   0.074212 0.507342 0.214993 0.158436
C76   C     C_R   0.075052 0.447505 0.133576 -0.134055
C77   C     C_R   0.111065 0.450917 0.020228 -0.144216
C78   C     C_R   0.290243 0.502110 0.487017 -0.131696
C79   C     C_R   0.146652 0.513857 0.987693 -0.080999
C80   C     C_R   0.146180 0.573537 0.068389 -0.133840
C81   C     C_R   0.110010 0.570445 0.181601 -0.171177
C82   C     C_R   0.962753 0.497703 0.335123 -0.114481
H1    H     H_    0.558368 0.932509 0.328272 0.137597
H2    H     H_    0.418507 0.651569 0.106306 0.234460
H3    H     H_    0.718026 0.382310 0.520643 0.178284
H4    H     H_    0.281428 0.616169 0.533382 0.183594
H5    H     H_    0.844466 0.607816 0.419847 0.148657
H6    H     H_    0.155624 0.393632 0.408430 0.148420
H7    H     H_    0.718539 0.612661 0.446462 0.173849
H8    H     H_    0.281787 0.388961 0.434393 0.158949
H9    H     H_    0.684113 0.460294 0.163916 0.129841
H10   H     H_    0.756158 0.362531 0.258325 0.152580
H11   H     H_    0.708603 0.239195 0.283091 0.144917
H12   H     H_    0.441908 0.933622 0.672013 0.139006
H13   H     H_    0.588092 0.213070 0.213246 0.137844
H14   H     H_    0.515338 0.309976 0.118156 0.116428
H15   H     H_    0.523834 0.310487 0.865430 0.117156
H16   H     H_    0.603745 0.220177 0.771777 0.150966
H17   H     H_    0.724921 0.253831 0.721038 0.149593
H18   H     H_    0.766493 0.378111 0.765433 0.171733
H19   H     H_    0.687101 0.469079 0.858524 0.127257
H20   H     H_    0.616447 0.713434 0.706877 0.322922
H21   H     H_    0.378604 0.716138 0.304235 0.319417
H22   H     H_    0.511386 0.799325 0.840289 0.130366
H23   H     H_    0.558818 0.066008 0.328390 0.146024
H24   H     H_    0.571686 0.866553 0.008949 0.129603
H25   H     H_    0.670435 0.946644 0.958277 0.125975
H26   H     H_    0.709485 0.959101 0.738130 0.137836
H27   H     H_    0.650120 0.891943 0.568437 0.132624
H28   H     H_    0.483811 0.795974 0.159739 0.132950
H29   H     H_    0.421547 0.862687 0.991262 0.128056
H30   H     H_    0.324944 0.947010 0.043390 0.127715
H31   H     H_    0.289956 0.964177 0.264941 0.139403
H32   H     H_    0.351158 0.897448 0.434527 0.136188
H33   H     H_    0.664566 0.194053 0.501559 0.327687
H34   H     H_    0.442439 0.067007 0.672604 0.151895
H35   H     H_    0.336140 0.195977 0.502531 0.328661
H36   H     H_    0.898945 0.364842 0.477224 0.331700
H37   H     H_    0.100083 0.634044 0.487562 0.329122
H38   H     H_    0.946437 0.608012 0.167233 0.127183
H39   H     H_    0.881050 0.605992 0.966670 0.139125
H40   H     H_    0.819888 0.494687 0.899668 0.149994
H41   H     H_    0.824240 0.384829 0.033634 0.146169
H42   H     H_    0.890169 0.385577 0.233692 0.134285
H43   H     H_    0.047900 0.398347 0.158047 0.128934
H44   H     H_    0.111442 0.404746 0.957644 0.140159
H45   H     H_    0.609542 0.303353 0.498123 0.156672
H46   H     H_    0.174553 0.516396 0.899958 0.162885
H47   H     H_    0.173702 0.622273 0.043056 0.142566
H48   H     H_    0.109517 0.617255 0.242787 0.139292
H49   H     H_    0.049668 0.467459 0.738329 0.337831
H50   H     H_    0.952669 0.525217 0.740600 0.340944
H51   H     H_    0.390416 0.304577 0.502834 0.143459
H52   H     H_    0.418837 0.650116 0.883399 0.213157
H53   H     H_    0.375944 0.560335 0.109440 0.202467
H54   H     H_    0.376657 0.558657 0.883881 0.196782
N1    N     N_R   0.500000 0.689440 0.500000 -0.119215
N2    N     N_R   0.500000 0.310560 0.500000 -0.110113
O1    O     O_R   0.398180 0.560840 0.499970 -0.582171
O2    O     O_3   0.415865 0.684999 0.340231 -0.752094
O3    O     O_3   0.625767 0.159002 0.500395 -0.784255
O4    O     O_3   0.375193 0.160497 0.501586 -0.775785
O5    O     O_3   0.849190 0.361433 0.499131 -0.794347
O6    O     O_3   0.149815 0.636957 0.511256 -0.775051
O7    O     O_3   0.075877 0.495212 0.674987 -0.775605
O8    O     O_3   0.925821 0.499001 0.675547 -0.776784
O9    O     O_R   0.601820 0.560840 0.500030 -0.585729
O10   O     O_R   0.398180 0.439210 0.499910 -0.635860
O11   O     O_R   0.601820 0.439210 0.500090 -0.631092
O12   O     O_R   0.499990 0.560820 0.316770 -0.570732
O13   O     O_R   0.500010 0.560820 0.683230 -0.565921
O14   O     O_R   0.499990 0.439200 0.316710 -0.614937
O15   O     O_R   0.500010 0.439200 0.683290 -0.619466
O16   O     O_3   0.581001 0.683034 0.665379 -0.736705
Zn1   Zn    Zn3+2 0.500000 0.581210 0.500000 1.030620
Zn2   Zn    Zn3+2 0.500000 0.418790 0.500000 0.954848

loop_
_geom_bond_atom_site_label_1
_geom_bond_atom_site_label_2
_ccdc_geom_bond_type
C74   H42   S    
C79   H46   S    
H33   O3    S    
C34   C56   A    
C23   C45   A    
C66   H31   S    
C27   C29   A    
C38   O5    S    
C14   C18   A    
C54   H19   S    
C66   C68   A    
C43   C44   A    
C61   H27   S    
C81   H48   S    
C36   C67   A    
C39   C41   A    
C53   C54   A    
C7    O16   S    
C12   O9    A    
C31   C42   S    
O11   Zn2   S    
C5    C6    A    
C6    O8    S    
C16   C30   S    
C23   C40   A    
C56   C78   A    
N1    Zn1   S    
C18   C19   A    
C73   C74   A    
C19   C26   S    
C69   C82   S    
C33   C35   S    
C33   H52   S    
O14   Zn2   S    
C70   H38   S    
C73   H41   S    
C22   C25   A    
C45   C67   A    
C24   H45   S    
H49   O7    S    
C70   C71   A    
C9    C55   S    
O13   Zn1   S    
O9    Zn1   S    
H20   O16   S    
C60   H26   S    
C72   C73   A    
C51   H16   S    
C56   H8    S    
C59   C60   A    
C38   C40   A    
C23   H5    S    
C76   H43   S    
C10   C62   S    
C34   C41   A    
C15   O14   A    
C21   C26   A    
C44   C46   A    
C15   C29   S    
C77   C79   A    
C53   H18   S    
C12   C67   S    
C11   C20   S    
C5    O7    S    
C1    C78   S    
C51   C52   A    
C14   C20   A    
C37   H4    S    
C76   C77   A    
C4    C6    A    
H36   O5    S    
C18   H34   S    
C7    N1    A    
C75   C81   A    
C64   H29   S    
C42   C48   A    
C24   N2    A    
C58   C59   A    
C59   H25   S    
C63   C64   A    
C60   C61   A    
C58   H24   S    
C75   C76   A    
C65   H30   S    
C4    C40   S    
C62   C63   A    
C17   H23   S    
C47   C48   A    
O1    Zn1   S    
C22   O4    S    
C50   C51   A    
C69   C74   A    
C34   H6    S    
O15   Zn2   S    
C9    C11   A    
C8    C10   A    
C28   C33   S    
C49   C50   A    
O12   Zn1   S    
C55   C57   A    
C2    C82   A    
C42   C43   A    
H37   O6    S    
C16   O15   A    
C25   H51   S    
C52   C53   A    
N2    Zn2   S    
C7    C9    A    
C57   H22   S    
C46   C47   A    
C3    C41   S    
C50   H15   S    
C45   H7    S    
C48   H14   S    
C13   C20   A    
C72   H40   S    
C12   O11   A    
C71   H39   S    
C31   C32   A    
C35   H53   S    
C80   C81   A    
C3    C5    A    
C1    O1    A    
C25   N2    A    
C35   H2    S    
C62   C68   A    
C36   H3    S    
C37   C78   A    
C13   H1    S    
C52   H17   S    
C13   C17   A    
C8    O2    S    
C27   C35   S    
C64   C65   A    
C63   H28   S    
C28   C30   A    
H35   O4    S    
H50   O8    S    
C71   C72   A    
C29   C31   A    
H21   O2    S    
C30   C32   A    
C33   H54   S    
C44   H10   S    
C57   C58   A    
C46   H11   S    
C55   C61   A    
C36   C38   A    
C17   C19   A    
C2    C3    A    
C16   O13   A    
C69   C70   A    
C80   H47   S    
C43   H9    S    
C32   C49   S    
C10   C11   A    
C2    C75   S    
C21   O3    S    
C79   C80   A    
C4    C82   A    
C39   O6    S    
C37   C39   A    
C65   C66   A    
C22   C26   A    
C21   C24   A    
C27   C28   A    
C47   H13   S    
C8    N1    A    
C1    O10   A    
O10   Zn2   S    
C14   H12   S    
C15   O12   A    
C77   H44   S    
C49   C54   A    
C68   H32   S    
