data_mof_unit_29493.cif
_audit_creation_date              2012-12-10T18:38:58-0500
_audit_creation_method            fapswitch 2.2
_symmetry_space_group_name_H-M    P1
_symmetry_Int_Tables_number       1
_space_group_crystal_system       triclinic
_cell_length_a                    10.879911
_cell_length_b                    11.566346
_cell_length_c                    10.71603
_cell_angle_alpha                 89.997759
_cell_angle_beta                  89.67917
_cell_angle_gamma                 90.009038
_cell_volume                      1348.49279055

loop_
_atom_site_label
_atom_site_type_symbol
_atom_type_description
_atom_site_fract_x
_atom_site_fract_y
_atom_site_fract_z
_atom_type_partial_charge
C1    C     C_R   0.500055 0.281030 0.499996 1.073929
C2    C     C_3   0.121212 0.486552 0.501736 -0.359948
C3    C     C_3   0.878780 0.486609 0.498211 -0.359946
C4    C     C_1   0.500091 0.839001 0.499990 -0.142293
C5    C     C_1   0.500152 0.940869 0.499983 0.055080
C6    C     C_R   0.257168 0.493632 0.500730 0.907604
C7    C     C_R   0.742835 0.493737 0.499262 0.907582
C8    C     C_1   0.500009 0.499984 0.069589 0.118217
C9    C     C_1   0.499996 0.499984 0.930411 0.117727
C10   C     C_R   0.500017 0.718961 0.499997 0.846977
C11   C     C_1   0.500153 0.160961 0.499983 -0.117994
C12   C     C_3   0.072864 0.412799 0.624989 -0.306557
C13   C     C_3   0.075786 0.427484 0.368601 -0.345355
C14   C     C_3   0.924151 0.426376 0.630741 -0.345610
C15   C     C_3   0.927079 0.413886 0.374232 -0.306243
C16   C     C_1   0.500184 0.059110 0.499978 0.026931
C17   C     C_3   0.071710 0.617024 0.508564 0.788527
C18   C     C_3   0.928364 0.617118 0.492705 0.788211
N1    N     N_1   0.500000 0.500010 0.180630 -0.040405
N2    N     N_1   0.500000 0.500010 0.819370 -0.040604
O1    O     O_R   0.500000 0.334450 0.602530 -0.573037
O2    O     O_R   0.500000 0.334450 0.397470 -0.573106
O3    O     O_R   0.314800 0.499980 0.602530 -0.572005
O4    O     O_R   0.314800 0.499980 0.397470 -0.600076
O5    O     O_R   0.685200 0.499980 0.602530 -0.600575
O6    O     O_R   0.685200 0.499980 0.397470 -0.571581
O7    O     O_R   0.500000 0.665550 0.602530 -0.615165
O8    O     O_R   0.500000 0.665550 0.397470 -0.614658
Zn1   Zn    Zn3+2 0.500000 0.500000 0.636920 1.076474
Zn2   Zn    Zn3+2 0.500000 0.500000 0.363080 1.076945
C19   C     C_2   0.123418 0.443269 0.758415 1.052360
O9    O     O_2   0.098908 0.377866 0.845205 -0.546262
O10   O     O_R   0.190580 0.542756 0.786731 -0.722246
H1    H     H_    0.213373 0.548371 0.878185 0.346531
C20   C     C_2   0.118219 0.502855 0.251840 1.006428
O11   O     O_2   0.204960 0.471964 0.186016 -0.598274
O12   O     O_R   0.055698 0.602481 0.214331 -0.680502
H2    H     H_    0.092038 0.639394 0.136590 0.358400
C21   C     C_2   0.881729 0.500711 0.748259 1.007489
O13   O     O_2   0.794912 0.469286 0.813698 -0.597050
O14   O     O_R   0.944314 0.599967 0.786831 -0.680475
H3    H     H_    0.907980 0.636186 0.864948 0.358088
C22   C     C_2   0.876527 0.445530 0.241125 1.051888
O15   O     O_2   0.900962 0.380873 0.153675 -0.546709
O16   O     O_R   0.809399 0.545276 0.213851 -0.722615
H4    H     H_    0.786577 0.551696 0.122466 0.345714
C23   C     C_2   0.126043 0.288339 0.615588 0.987471
O17   O     O_2   0.063792 0.203580 0.592821 -0.534650
O18   O     O_R   0.250479 0.270588 0.642523 -0.776759
H5    H     H_    0.274587 0.185923 0.640632 0.354200
C24   C     C_2   0.138329 0.310263 0.336395 1.038305
O19   O     O_2   0.230736 0.277044 0.389458 -0.633304
O20   O     O_R   0.099278 0.249124 0.230814 -0.695006
H6    H     H_    0.149705 0.176916 0.214497 0.371937
C25   C     C_2   0.861513 0.308915 0.661727 1.037999
O21   O     O_2   0.768998 0.276312 0.608408 -0.634401
O22   O     O_R   0.900536 0.246774 0.766632 -0.695110
H7    H     H_    0.850017 0.174469 0.782209 0.371808
C26   C     C_2   0.873851 0.289333 0.382410 0.987712
O23   O     O_2   0.936078 0.204393 0.404378 -0.534979
O24   O     O_R   0.749407 0.271784 0.355299 -0.775725
H8    H     H_    0.725209 0.187123 0.356553 0.354407
O25   O     O_3   0.099809 0.668682 0.623960 -0.635861
H9    H     H_    0.186939 0.694030 0.624300 0.345696
O26   O     O_3   0.123712 0.688384 0.414483 -0.689221
H10   H     H_    0.213014 0.698896 0.428281 0.301539
O27   O     O_3   0.876420 0.687657 0.587521 -0.689352
H11   H     H_    0.787185 0.698581 0.573674 0.301944
O28   O     O_3   0.900280 0.669808 0.377852 -0.635751
H12   H     H_    0.813073 0.694900 0.377681 0.345289

loop_
_geom_bond_atom_site_label_1
_geom_bond_atom_site_label_2
_ccdc_geom_bond_type
C10   O7    A    
C25   O21   D    
C19   O10   S    
C1    O1    A    
O12   H2    S    
O25   H9    S    
O7    Zn1   S    
C11   C16   T    
C9    N2    T    
C17   O26   S    
C20   O11   D    
C7    O5    A    
C13   C15   S    
C22   O15   D    
C2    C12   S    
C18   O28   S    
O8    Zn2   S    
C14   C25   S    
C14   C21   S    
C15   C22   S    
C1    O2    A    
C23   O18   S    
C13   C24   S    
O20   H6    S    
C17   O25   S    
C2    C17   S    
C22   O16   S    
O22   H7    S    
C2    C6    S    
C3    C14   S    
C7    O6    A    
C12   C23   S    
C6    O3    A    
O3    Zn1   S    
C6    O4    A    
C20   O12   S    
C12   C14   S    
C17   C18   S    
C3    C7    S    
N2    Zn1   S    
C25   O22   S    
C12   C19   S    
O5    Zn1   S    
O24   H8    S    
C19   O9    D    
O28   H12   S    
C26   O24   S    
C8    N1    T    
O4    Zn2   S    
C4    C10   S    
C24   O19   D    
C23   O17   D    
C26   O23   D    
O10   H1    S    
C3    C18   S    
C21   O14   S    
O26   H10   S    
O14   H3    S    
O1    Zn1   S    
C10   O8    A    
C21   O13   D    
O18   H5    S    
C2    C13   S    
C8    C9    S    
C3    C15   S    
O2    Zn2   S    
C24   O20   S    
C18   O27   S    
O16   H4    S    
N1    Zn2   S    
C15   C26   S    
C13   C20   S    
O27   H11   S    
C4    C5    T    
C5    C16   S    
O6    Zn2   S    
C1    C11   S    
