data_mof_unit_33360.cif
_audit_creation_date              2012-12-10T20:45:31-0500
_audit_creation_method            fapswitch 2.2
_symmetry_space_group_name_H-M    P1
_symmetry_Int_Tables_number       1
_space_group_crystal_system       triclinic
_cell_length_a                    10.794158
_cell_length_b                    10.643873
_cell_length_c                    9.903158
_cell_angle_alpha                 89.985368
_cell_angle_beta                  91.017505
_cell_angle_gamma                 90.517227
_cell_volume                      1137.56436312

loop_
_atom_site_label
_atom_site_type_symbol
_atom_type_description
_atom_site_fract_x
_atom_site_fract_y
_atom_site_fract_z
_atom_type_partial_charge
C1    C     C_R   0.499260 0.260407 0.500019 0.881251
C2    C     C_R   0.193567 0.613629 0.983083 -0.213306
C3    C     C_R   0.932221 0.505952 0.380503 -0.193625
C4    C     C_R   0.872929 0.509279 0.504454 -0.096726
C5    C     C_R   0.942209 0.523669 0.625587 0.035159
C6    C     C_R   0.069083 0.520933 0.619695 -0.235239
C7    C     C_R   0.127933 0.514685 0.495793 -0.084135
C8    C     C_R   0.058759 0.516615 0.373974 -0.043110
C9    C     C_R   0.885206 0.679687 0.795817 -0.205487
C10   C     C_R   0.846390 0.714453 0.923289 -0.378826
C11   C     C_R   0.811484 0.622796 0.017308 0.413842
C12   C     C_R   0.260270 0.505135 0.498461 0.861532
C13   C     C_R   0.815661 0.494825 0.982367 0.447114
C14   C     C_R   0.854639 0.458539 0.852114 0.316325
C15   C     C_R   0.889201 0.553046 0.758502 -0.014000
C16   C     C_R   0.553396 0.064496 0.604624 0.154410
C17   C     C_R   0.492360 0.128466 0.501481 -0.068213
C18   C     C_R   0.418685 0.064315 0.405800 -0.222150
C19   C     C_R   0.418751 0.934266 0.405419 -0.229700
C20   C     C_R   0.491414 0.871244 0.501764 -0.089089
C21   C     C_R   0.552303 0.936209 0.605264 0.024937
C22   C     C_3   0.685776 0.930904 0.649903 0.235870
C23   C     C_R   0.498738 0.739525 0.499989 0.917873
C24   C     C_3   0.686632 0.073755 0.648287 -0.538925
C25   C     C_R   0.505096 0.390080 0.071402 0.219303
C26   C     C_R   0.502222 0.609430 0.071689 -0.019559
C27   C     C_R   0.502831 0.609474 0.928231 -0.177554
C28   C     C_R   0.506068 0.389891 0.929075 0.145130
C29   C     C_3   0.414448 0.283241 0.924162 0.251515
C30   C     C_3   0.415029 0.283701 0.077955 -0.597337
C31   C     C_R   0.740070 0.502767 0.501623 0.905988
C32   C     C_R   0.199304 0.699862 0.088862 -0.151692
C33   C     C_R   0.158091 0.665485 0.216389 -0.136438
C34   C     C_R   0.111574 0.543766 0.239834 0.048638
C35   C     C_R   0.106616 0.455594 0.132254 0.466954
C36   C     C_R   0.147354 0.492441 0.004746 -0.180354
H1    H     H_    0.225910 0.640835 0.884475 0.163324
H2    H     H_    0.365591 0.883488 0.328912 0.152721
H3    H     H_    0.698148 0.889517 0.752149 0.143491
H4    H     H_    0.698622 0.115462 0.750444 0.217660
H5    H     H_    0.746276 0.116801 0.569977 0.198156
H6    H     H_    0.502488 0.698036 0.124944 0.147299
H7    H     H_    0.235287 0.793679 0.071888 0.147129
H8    H     H_    0.503665 0.698081 0.874949 0.158424
H9    H     H_    0.457215 0.199013 0.124764 0.214741
H10   H     H_    0.161035 0.734304 0.297007 0.135771
H11   H     H_    0.880175 0.499870 0.287031 0.265317
H12   H     H_    0.121861 0.527546 0.713004 0.162239
H13   H     H_    0.914761 0.752026 0.726220 0.225609
H14   H     H_    0.844598 0.813234 0.949199 0.170996
N1    N     N_R   0.499160 0.499140 0.142800 -0.079291
N2    N     N_R   0.499160 0.499180 0.857150 -0.135319
O1    O     O_R   0.500020 0.316790 0.614690 -0.578067
O2    O     O_R   0.500000 0.316760 0.385350 -0.627844
O3    O     O_R   0.316770 0.500030 0.614670 -0.637932
O4    O     O_R   0.316750 0.499990 0.385330 -0.625869
O5    O     O_R   0.500000 0.683240 0.614650 -0.630942
O6    O     O_R   0.499980 0.683210 0.385310 -0.628084
O7    O     O_R   0.683250 0.500010 0.614670 -0.614040
O8    O     O_R   0.683230 0.499970 0.385330 -0.555445
Zn1   Zn    Zn3+2 0.500010 0.500020 0.653130 0.967860
Zn2   Zn    Zn3+2 0.499990 0.499980 0.346870 0.998093
O9    O     O_3   0.772412 0.655848 0.144252 -0.744426
H15   H     H_    0.774643 0.748657 0.153029 0.324918
O10   O     O_3   0.781826 0.407879 0.078853 -0.753229
H16   H     H_    0.788377 0.321751 0.042288 0.375408
O11   O     O_3   0.858946 0.331848 0.821321 -0.788243
H17   H     H_    0.881866 0.319956 0.725989 0.342252
H18   H     H_    0.364503 0.114291 0.330377 0.165058
O12   O     O_3   0.763833 0.876908 0.553593 -0.760329
H19   H     H_    0.746604 0.916258 0.464311 0.347605
H20   H     H_    0.324415 0.308679 0.876127 0.150360
O13   O     O_3   0.463475 0.172621 0.869814 -0.737195
H21   H     H_    0.545021 0.156459 0.914235 0.331362
H22   H     H_    0.325405 0.311551 0.121589 0.213869
O14   O     O_3   0.063854 0.333706 0.146573 -0.767046
H23   H     H_    0.051797 0.314947 0.243291 0.335154
H24   H     H_    0.143172 0.426040 0.922198 0.158112

loop_
_geom_bond_atom_site_label_1
_geom_bond_atom_site_label_2
_ccdc_geom_bond_type
O6    Zn2   S    
C23   O6    A    
C16   C21   A    
C24   H5    S    
C11   C13   A    
O13   H21   S    
C30   H9    S    
C35   C36   A    
C7    C8    A    
C13   O10   S    
C25   C28   A    
C26   C27   A    
C6    H12   S    
O8    Zn2   S    
C28   C29   S    
C18   C19   A    
C11   O9    S    
N2    Zn1   S    
C5    C6    A    
C29   O13   S    
C2    C32   A    
C34   C35   A    
C31   O7    A    
C1    O1    A    
O1    Zn1   S    
C27   H8    S    
C19   C20   A    
C16   C17   A    
C14   O11   S    
O12   H19   S    
C9    C10   A    
C29   H20   S    
C18   H18   S    
C16   C24   S    
C13   C14   A    
C33   H10   S    
N1    Zn2   S    
C17   C18   A    
C7    C12   S    
C35   O14   S    
O7    Zn1   S    
O11   H17   S    
C12   O3    A    
C9    H13   S    
O14   H23   S    
C3    C8    A    
O2    Zn2   S    
C31   O8    A    
C1    O2    A    
C25   N1    A    
C29   C30   S    
C19   H2    S    
C20   C23   S    
C33   C34   A    
C8    C34   S    
C12   O4    A    
C22   C24   S    
C3    C4    A    
C10   H14   S    
C27   N2    A    
C26   H6    S    
C2    C36   A    
C25   C30   S    
C23   O5    A    
C4    C5    A    
O5    Zn1   S    
C6    C7    A    
C1    C17   S    
C32   C33   A    
C9    C15   A    
C36   H24   S    
C26   N1    A    
C30   H22   S    
C28   N2    A    
C2    H1    S    
C22   H3    S    
O3    Zn1   S    
C3    H11   S    
C24   H4    S    
C32   H7    S    
O4    Zn2   S    
C5    C15   S    
C4    C31   S    
C10   C11   A    
O9    H15   S    
C20   C21   A    
O10   H16   S    
C14   C15   A    
C21   C22   S    
C22   O12   S    
