data_mof_unit_15767.cif
_audit_creation_date              2013-03-05T15:43:01-0500
_audit_creation_method            fapswitch 2.2
_symmetry_space_group_name_H-M    P1
_symmetry_Int_Tables_number       1
_space_group_crystal_system       triclinic
_cell_length_a                    10.47811
_cell_length_b                    10.663802
_cell_length_c                    10.060963
_cell_angle_alpha                 86.847447
_cell_angle_beta                  102.407777
_cell_angle_gamma                 89.797227
_cell_volume                      1096.12197753

loop_
_atom_site_label
_atom_site_type_symbol
_atom_site_description
_atom_site_fract_x
_atom_site_fract_y
_atom_site_fract_z
_atom_type_partial_charge
O1    O     O_R   0.499980 0.319060 0.613030 -0.647320
O2    O     O_R   0.500020 0.319100 0.386910 -0.608057
C1    C     C_R   0.503728 0.262656 0.504646 0.829194
O3    O     O_R   0.317800 0.500000 0.570840 -0.583620
O4    O     O_R   0.317840 0.500040 0.344720 -0.587245
C2    C     C_R   0.257597 0.506917 0.444276 0.987258
Zn1   Zn    Zn3+2 0.499970 0.499970 0.650990 0.983003
Zn2   Zn    Zn3+2 0.500030 0.500030 0.349010 0.948759
O5    O     O_R   0.499980 0.680900 0.613090 -0.625641
O6    O     O_R   0.500020 0.680940 0.386970 -0.606567
O7    O     O_R   0.682160 0.499960 0.655280 -0.593294
O8    O     O_R   0.682200 0.500000 0.429160 -0.607034
C3    C     C_R   0.488539 0.737369 0.493617 0.878021
C4    C     C_R   0.742408 0.505246 0.554683 0.894773
C5    C     C_2   0.117506 0.529986 0.414699 -0.176880
C6    C     C_2   0.066320 0.611738 0.489272 0.427616
C7    C     C_2   0.881955 0.529651 0.577447 -0.096774
C8    C     C_2   0.925414 0.605549 0.484588 -0.017588
C9    C     C_2   0.432447 0.930000 0.579581 -0.173585
C10   C     C_2   0.448873 0.867370 0.473245 0.013225
H1    H     H_    0.441269 0.884875 0.680550 0.132508
C11   C     C_2   0.421837 0.065228 0.566033 -0.014453
C12   C     C_2   0.515701 0.129250 0.520569 0.374409
C13   C     C_2   0.438324 0.580464 0.908981 -0.046730
N1    N     N_2   0.501330 0.501330 0.852460 0.080562
H2    H     H_    0.386323 0.657204 0.844729 0.110801
C14   C     C_2   0.421396 0.566775 0.054053 0.125864
N2    N     N_2   0.501370 0.501360 0.148130 -0.180865
H3    H     H_    0.591406 0.479264 0.130200 0.215520
N3    N     N_3   0.836722 0.681971 0.382304 -0.439042
H4    H     H_    0.865171 0.775541 0.389600 0.159990
H5    H     H_    0.844284 0.655360 0.286051 0.177557
O9    O     O_3   0.548853 0.395694 0.927172 -0.598627
C15   C     C_3   0.460862 0.296712 0.891118 0.188296
H6    H     H_    0.511628 0.224143 0.845563 0.161890
H7    H     H_    0.369092 0.326413 0.816662 0.157758
C16   C     C_3   0.425333 0.236919 0.020091 -0.381288
H8    H     H_    0.516041 0.211615 0.097251 0.247769
H9    H     H_    0.367377 0.304930 0.063507 0.242472
C17   C     C_3   0.344158 0.119594 0.990317 -1.003286
H10   H     H_    0.251708 0.144454 0.916114 0.270631
H11   H     H_    0.319774 0.079526 0.085843 0.285348
H12   H     H_    0.399402 0.047593 0.948853 0.261168
N4    N     N_3   0.314173 0.630493 0.089564 -0.401418
H13   H     H_    0.227980 0.597350 0.030076 0.161994
H14   H     H_    0.320579 0.726170 0.063500 0.150580
O10   O     O_3   0.149195 0.675446 0.591068 -0.639323
C18   C     C_3   0.094899 0.791255 0.617699 0.063707
H15   H     H_    0.987621 0.790340 0.608925 0.148689
H16   H     H_    0.117908 0.866369 0.545795 0.135531
C19   C     C_3   0.153843 0.823592 0.763954 -0.328154
H17   H     H_    0.146580 0.740803 0.833626 0.216712
H18   H     H_    0.258339 0.847047 0.774299 0.204994
C20   C     C_3   0.081668 0.934092 0.806387 -1.010484
H19   H     H_    0.088529 0.019373 0.739924 0.264816
H20   H     H_    0.125438 0.953015 0.913785 0.275758
H21   H     H_    0.977136 0.911594 0.799653 0.262417
N5    N     N_3   0.971810 0.465846 0.689367 -0.463914
H22   H     H_    0.009367 0.533001 0.758666 0.210915
H23   H     H_    0.921351 0.401573 0.740399 0.172881
N6    N     N_3   0.038471 0.461459 0.308610 -0.484989
H24   H     H_    0.991073 0.525012 0.230898 0.183422
H25   H     H_    0.969028 0.409853 0.348077 0.200688
N7    N     N_3   0.421282 0.926510 0.337603 -0.427335
H26   H     H_    0.504188 0.917675 0.296410 0.225427
H27   H     H_    0.345645 0.877714 0.277811 0.169078
N8    N     N_3   0.311906 0.127130 0.599566 -0.493039
H28   H     H_    0.309152 0.098528 0.699732 0.186941
H29   H     H_    0.227179 0.094625 0.536742 0.194542
O11   O     O_3   0.622217 0.068011 0.489003 -0.636482
C21   C     C_3   0.742321 0.111139 0.565393 0.073521
H30   H     H_    0.799908 0.028171 0.617904 0.162479
H31   H     H_    0.732139 0.173928 0.647863 0.071077
C22   C     C_3   0.820069 0.178573 0.470982 -0.358489
H32   H     H_    0.760442 0.257075 0.411271 0.231755
H33   H     H_    0.909263 0.218779 0.533833 0.178310
C23   C     C_3   0.861037 0.089719 0.373218 -0.816592
H34   H     H_    0.923340 0.011988 0.431195 0.225881
H35   H     H_    0.917984 0.142077 0.307713 0.238418
H36   H     H_    0.773718 0.050011 0.306821 0.283188

loop_
_geom_bond_atom_site_label_1
_geom_bond_atom_site_label_2
_geom_bond_distance
_ccdc_geom_bond_type
C10   N7    1.441599 S    
C21   C22   1.531196 S    
Zn1   O7    1.900200 S    
N8    H28   1.043170 S    
O6    C3    1.286005 A    
O11   C21   1.418895 S    
C8    N3    1.441598 S    
O4    Zn2   1.900200 S    
C15   C16   1.532047 S    
C1    C12   1.424883 S    
O10   C18   1.420390 S    
Zn1   N1    2.024820 S    
C13   C14   1.507019 S    
C7    N5    1.439763 S    
Zn2   O8    1.905853 S    
C19   C20   1.526578 S    
N7    H26   1.045801 S    
C17   H12   1.111074 S    
C18   H16   1.111596 S    
C7    C8    1.355553 D    
C5    N6    1.438505 S    
C21   H30   1.110764 S    
C16   H9    1.109632 S    
N7    H27   1.045579 S    
N6    H25   1.045426 S    
C23   H34   1.110330 S    
N4    H13   1.045001 S    
N3    H5    1.042897 S    
N8    H29   1.045442 S    
C12   O11   1.393898 S    
N2    H3    1.026796 S    
C19   H17   1.109911 S    
N6    H24   1.043893 S    
C22   H33   1.111678 S    
O3    Zn1   1.905853 S    
O4    C2    1.298672 A    
C6    O10   1.401086 S    
Zn2   O6    1.987130 S    
C17   H10   1.109786 S    
C9    H1    1.085174 S    
C16   H8    1.112153 S    
O8    C4    1.289041 A    
O2    C1    1.291728 A    
C16   C17   1.522427 S    
C15   H7    1.117267 S    
C23   H35   1.110406 S    
N3    H4    1.044339 S    
Zn2   N2    2.023381 S    
O7    C4    1.301768 A    
C20   H20   1.109171 S    
C11   N8    1.436136 S    
C2    C5    1.451015 S    
O3    C2    1.291879 A    
N1    O9    1.350547 S    
C22   H32   1.109827 S    
N5    H23   1.045668 S    
C5    C6    1.360934 D    
C9    C11   1.442620 S    
O9    C15   1.414580 S    
C13   N1    1.296726 D    
C6    C8    1.468862 S    
C15   H6    1.110300 S    
C23   H36   1.110798 S    
C21   H31   1.116608 S    
C14   N2    1.291155 D    
Zn1   O5    1.946044 S    
O5    C3    1.296064 A    
C11   C12   1.344000 D    
C18   H15   1.108587 S    
O1    Zn1   1.987129 S    
N4    H14   1.045394 S    
C3    C10   1.436886 S    
C19   H18   1.108184 S    
N5    H22   1.045376 S    
C20   H19   1.110674 S    
C14   N4    1.430166 S    
C20   H21   1.110674 S    
C18   C19   1.527207 S    
O2    Zn2   1.946043 S    
C9    C10   1.333098 D    
C13   H2    1.082466 S    
C17   H11   1.110249 S    
O1    C1    1.281706 A    
C22   C23   1.526635 S    
C4    C7    1.457235 S    
