data_mof_unit_61520.cif
_audit_creation_date              2012-12-10T16:54:33-0500
_audit_creation_method            fapswitch 2.2
_symmetry_space_group_name_H-M    P1
_symmetry_Int_Tables_number       1
_space_group_crystal_system       triclinic
_cell_length_a                    18.887255
_cell_length_b                    18.635791
_cell_length_c                    19.085268
_cell_angle_alpha                 109.640961
_cell_angle_beta                  110.320058
_cell_angle_gamma                 109.077315
_cell_volume                      5130.51387542

loop_
_atom_site_label
_atom_site_type_symbol
_atom_type_description
_atom_site_fract_x
_atom_site_fract_y
_atom_site_fract_z
_atom_type_partial_charge
Br1   Br    Br    0.681044 0.435979 0.863074 -0.211292
Br2   Br    Br    0.700398 0.302509 0.735117 -0.219155
Br3   Br    Br    0.656540 0.599359 0.823975 -0.227714
Br4   Br    Br    0.844536 0.646904 0.966171 -0.327502
Br5   Br    Br    0.270087 0.283136 0.690674 -0.409754
Br6   Br    Br    0.302416 0.570311 0.201785 -0.363240
Br7   Br    Br    0.252761 0.313159 0.190684 -0.357469
Br8   Br    Br    0.590109 0.570673 0.307758 -0.345439
Br9   Br    Br    0.731243 0.807497 0.593187 -0.354173
Br10  Br    Br    0.779586 0.697339 0.775806 -0.336570
C1    C     C_R   0.387191 0.380215 0.505051 0.736749
C2    C     C_2   0.184210 0.485290 0.162045 0.056921
C3    C     C_2   0.240191 0.414636 0.235496 0.069496
C4    C     C_R   0.622397 0.502806 0.620301 0.966014
C5    C     C_2   0.294138 0.484036 0.318025 0.217710
C6    C     C_2   0.730969 0.753025 0.419456 0.416911
C7    C     C_2   0.816642 0.791847 0.477659 0.237415
C8    C     C_2   0.669135 0.679013 0.417707 0.119326
C9    C     C_2   0.669859 0.690880 0.491762 0.077601
C10   C     C_R   0.989789 0.380592 0.871536 0.978443
C11   C     C_R   0.873653 0.497190 0.872093 1.032938
C12   C     C_3   0.804668 0.495924 0.805384 -0.324246
C13   C     C_R   0.997411 0.620401 0.115170 0.824406
C14   C     C_R   0.115069 0.495898 0.109984 0.888097
C15   C     C_R   0.996941 0.117003 0.618181 0.887515
C16   C     C_R   0.615136 0.620200 0.497231 0.949147
C17   C     C_R   0.118731 0.121116 0.501822 0.806026
C18   C     C_R   0.994982 0.874823 0.382143 0.820998
C19   C     C_R   0.881071 0.874949 0.493978 0.841223
C20   C     C_2   0.914518 0.172007 0.671892 0.269368
C21   C     C_2   0.990881 0.174520 0.686953 0.195393
C22   C     C_2   0.912246 0.231922 0.744427 0.416440
C23   C     C_3   0.813546 0.589294 0.844063 -0.077853
C24   C     C_2   0.976850 0.316207 0.793180 -0.261931
C25   C     C_2   0.027767 0.756204 0.333098 0.458267
C26   C     C_2   0.976353 0.791427 0.315540 0.243403
C27   C     C_2   0.016301 0.682748 0.260158 0.332678
C28   C     C_R   0.374474 0.494972 0.379818 0.958602
C29   C     C_2   0.013295 0.691554 0.191606 0.236232
C30   C     C_3   0.755343 0.491408 0.661676 0.161351
C31   C     C_3   0.822354 0.483343 0.729083 0.064392
C32   C     C_3   0.735261 0.588403 0.780023 0.426094
C33   C     C_3   0.640236 0.416098 0.692197 0.604042
C34   C     C_3   0.709390 0.419561 0.770392 0.541160
C35   C     C_3   0.687228 0.501186 0.688256 -0.348808
C36   C     C_2   0.251825 0.262831 0.578500 0.239765
C37   C     C_2   0.182023 0.192009 0.503114 0.289894
C38   C     C_2   0.312914 0.332886 0.575797 -0.112543
C39   C     C_2   0.340927 0.312649 0.520208 0.330335
C40   C     C_2   0.167198 0.415608 0.174160 0.342333
H1    H     H_    0.329904 0.400171 0.615630 0.151942
H2    H     H_    0.209953 0.522745 0.321813 0.340947
H3    H     H_    0.636454 0.749142 0.331625 0.375106
H4    H     H_    0.907083 0.784590 0.560936 0.377735
H5    H     H_    0.792784 0.126037 0.591530 0.364527
H6    H     H_    0.114618 0.226927 0.770312 0.378833
H7    H     H_    0.810640 0.137209 0.723685 0.362639
H8    H     H_    0.125414 0.758242 0.415116 0.370166
H9    H     H_    0.843506 0.403894 0.653649 0.356585
H10   H     H_    0.868592 0.775594 0.230103 0.380105
H11   H     H_    0.034827 0.582059 0.233366 0.329009
H12   H     H_    0.720337 0.429467 0.598407 0.257450
H13   H     H_    0.025621 0.768137 0.142115 0.383974
H14   H     H_    0.523656 0.405671 0.653159 0.313468
H15   H     H_    0.551834 0.323631 0.569217 0.348214
H16   H     H_    0.022946 0.340047 0.773440 0.138165
H17   H     H_    0.889997 0.535553 0.755208 0.151112
H18   H     H_    0.873390 0.635103 0.849822 0.166216
H19   H     H_    0.848236 0.609250 0.701723 0.361592
H20   H     H_    0.115179 0.133268 0.376622 0.363501
H21   H     H_    0.355281 0.224123 0.444317 0.364177
H22   H     H_    0.083201 0.305512 0.152816 0.372455
O1    O     O_R   0.410160 0.358490 0.449530 -0.622830
O2    O     O_R   0.947260 0.090430 0.537750 -0.566137
O3    O     O_R   0.142120 0.090460 0.551650 -0.572241
O4    O     O_R   0.408940 0.460590 0.550490 -0.630612
O5    O     O_R   0.038780 0.090460 0.448320 -0.619011
O6    O     O_R   0.052740 0.909570 0.462250 -0.553716
O7    O     O_R   0.949410 0.909570 0.358910 -0.627627
O8    O     O_R   0.961220 0.909540 0.551680 -0.632715
O9    O     O_R   0.857880 0.909540 0.448350 -0.544223
O10   O     O_R   0.592130 0.448950 0.541040 -0.628880
O11   O     O_R   0.590910 0.551050 0.642000 -0.574901
O12   O     O_R   0.046300 0.460610 0.904690 -0.637417
O13   O     O_R   0.591060 0.539410 0.449510 -0.574188
O14   O     O_R   0.589840 0.641510 0.550470 -0.577949
O15   O     O_R   0.409090 0.448950 0.358000 -0.589950
O16   O     O_R   0.407870 0.551050 0.458960 -0.575344
O17   O     O_R   0.944170 0.358540 0.904780 -0.538200
O18   O     O_3   0.794989 0.558852 0.646845 -0.714916
O19   O     O_3   0.163829 0.192206 0.426158 -0.724669
O20   O     O_3   0.328898 0.228500 0.481097 -0.697440
O21   O     O_3   0.082398 0.347656 0.132208 -0.706537
O22   O     O_3   0.274147 0.548384 0.351061 -0.715954
O23   O     O_R   0.851630 0.449030 0.902680 -0.574344
O24   O     O_3   0.701152 0.783951 0.365642 -0.718742
O25   O     O_3   0.843072 0.750256 0.521095 -0.736582
O26   O     O_3   0.839766 0.113455 0.591030 -0.732496
O27   O     O_3   0.061720 0.224342 0.771248 -0.762979
O28   O     O_3   0.847545 0.201966 0.762775 -0.682578
O29   O     O_3   0.093276 0.790950 0.416878 -0.738483
O30   O     O_3   0.817194 0.401503 0.690301 -0.707970
O31   O     O_3   0.903305 0.745665 0.232903 -0.715564
O32   O     O_3   0.013159 0.610644 0.267904 -0.740366
O33   O     O_3   0.035387 0.773422 0.198549 -0.733061
O34   O     O_R   0.953760 0.551100 0.902590 -0.642056
O35   O     O_3   0.569089 0.411248 0.703792 -0.678711
O36   O     O_3   0.609368 0.339420 0.614549 -0.713051
O37   O     O_R   0.942140 0.539520 0.083620 -0.584927
O38   O     O_R   0.044270 0.641590 0.083530 -0.614765
O39   O     O_R   0.034680 0.449030 0.085720 -0.578836
O40   O     O_R   0.136800 0.551100 0.085630 -0.590075
O41   O     O_R   0.050590 0.090430 0.641090 -0.607401
Zn1   Zn    Zn3+2 0.500810 0.431830 0.432590 1.113135
Zn2   Zn    Zn3+2 0.499190 0.568170 0.567410 1.131148
Zn3   Zn    Zn3+2 0.926030 0.431910 0.994210 1.172250
Zn4   Zn    Zn3+2 0.062410 0.568220 0.994100 1.064866
Zn5   Zn    Zn3+2 0.069000 0.000000 0.569000 1.119589
Zn6   Zn    Zn3+2 0.931000 0.000000 0.431000 1.110544

loop_
_geom_bond_atom_site_label_1
_geom_bond_atom_site_label_2
_ccdc_geom_bond_type
C15   C21   S    
Br3   C32   S    
Br10  C32   S    
C7    C19   S    
C25   C26   D    
C14   O40   A    
C24   H16   S    
C5    O22   S    
C31   H17   S    
O5    Zn6   S    
O2    Zn6   S    
O3    Zn5   S    
C26   O31   S    
C23   C32   S    
O13   Zn1   S    
C25   C27   S    
C8    C9    D    
C1    O4    A    
Br6   C2    S    
O40   Zn4   S    
C12   C31   S    
O4    Zn2   S    
C30   H12   S    
C31   O30   S    
C15   O2    A    
C9    C16   S    
C18   O7    A    
O15   Zn1   S    
O37   Zn3   S    
Br4   C23   S    
Br9   C9    S    
C38   H1    S    
C12   C34   S    
H21   O20   S    
H20   O19   S    
Br2   C34   S    
O12   Zn4   S    
O7    Zn6   S    
H4    O25   S    
H2    O22   S    
O39   Zn3   S    
C21   O27   S    
H13   O33   S    
H10   O31   S    
C18   O6    A    
H15   O36   S    
C11   O34   A    
C10   C24   S    
O17   Zn3   S    
C11   C12   S    
H3    O24   S    
C14   O39   A    
C4    O11   A    
C12   C23   S    
C17   O3    A    
O38   Zn4   S    
C4    C35   S    
O8    Zn5   S    
C30   C35   S    
C13   O37   A    
C36   C38   S    
C6    O24   S    
O11   Zn2   S    
H11   O32   S    
O10   Zn1   S    
C1    O1    A    
C6    C7    D    
C11   O23   A    
C25   O29   S    
H7    O28   S    
Br8   C8    S    
O1    Zn1   S    
C22   O28   S    
C28   O16   A    
O14   Zn2   S    
C32   C35   S    
C22   C24   D    
C33   C34   S    
C5    C28   S    
C19   O9    A    
C1    C39   S    
C15   O41   A    
Br1   C34   S    
O23   Zn3   S    
C16   O14   A    
H8    O29   S    
C33   O35   S    
C33   C35   S    
H22   O21   S    
C38   C39   D    
C10   O12   A    
O34   Zn4   S    
C4    O10   A    
C39   O20   S    
H19   O18   S    
H14   O35   S    
C20   O26   S    
Br5   C36   S    
C17   C37   S    
C29   O33   S    
C13   O38   A    
C2    C14   S    
C36   C37   D    
C30   C31   S    
O6    Zn5   S    
H9    O30   S    
C37   O19   S    
C17   O5    A    
C27   O32   S    
C2    C40   D    
C40   O21   S    
C10   O17   A    
O9    Zn6   S    
C28   O15   A    
O16   Zn2   S    
C3    C5    D    
C27   C29   D    
C20   C22   S    
C20   C21   D    
C19   O8    A    
C16   O13   A    
C13   C29   S    
H5    O26   S    
C3    C40   S    
C33   O36   S    
O41   Zn5   S    
Br7   C3    S    
C18   C26   S    
C6    C8    S    
H6    O27   S    
C30   O18   S    
C7    O25   S    
C23   H18   S    
