data_mof_unit_30722.cif
_audit_creation_date              2012-10-26T19:09:32-0400
_audit_creation_method            fapswitch 2.2
_symmetry_space_group_name_H-M    P1
_symmetry_Int_Tables_number       1
_space_group_crystal_system       triclinic
_cell_length_a                    10.769724
_cell_length_b                    9.518902
_cell_length_c                    19.355268
_cell_angle_alpha                 90.029464
_cell_angle_beta                  90.211109
_cell_angle_gamma                 89.993072
_cell_volume                      1984.20988951

loop_
_atom_site_label
_atom_site_type_symbol
_atom_type_description
_atom_site_fract_x
_atom_site_fract_y
_atom_site_fract_z
_atom_type_partial_charge
C1    C     C_R   0.262616 0.500025 0.499728 0.548549
C2    C     C_R   0.064789 0.513032 0.436177 -0.002162
C3    C     C_R   0.871411 0.499461 0.500107 0.018856
C4    C     C_R   0.128589 0.500539 0.499893 0.018856
C5    C     C_R   0.425291 0.074329 0.455661 0.011926
C6    C     C_R   0.574709 0.925670 0.544339 0.011926
C7    C     C_R   0.574727 0.074488 0.544338 0.012309
C8    C     C_R   0.425273 0.925512 0.455662 0.012309
C9    C     C_R   0.500571 0.627250 0.254948 -0.146727
C10   C     C_R   0.499429 0.372750 0.745052 -0.146727
C11   C     C_R   0.500978 0.627308 0.745123 -0.146807
C12   C     C_R   0.737383 0.499974 0.500272 0.548550
C13   C     C_R   0.499021 0.372692 0.254877 -0.146807
C14   C     C_R   0.500612 0.627276 0.182983 -0.124221
C15   C     C_R   0.499388 0.372724 0.817017 -0.124221
C16   C     C_R   0.501084 0.627319 0.817090 -0.124199
C17   C     C_R   0.498916 0.372681 0.182910 -0.124199
C18   C     C_R   0.499782 0.499982 0.146227 0.034490
C19   C     C_R   0.500217 0.500018 0.853772 0.034490
C20   C     C_R   0.499856 0.499969 0.291501 0.005861
C21   C     C_R   0.500143 0.500030 0.708499 0.005860
C22   C     C_3   0.140071 0.482095 0.631337 -0.267492
C23   C     C_R   0.500131 0.500009 0.929919 0.344004
C24   C     C_3   0.171243 0.330780 0.651300 -0.428022
C25   C     C_3   0.859929 0.517905 0.368663 -0.267492
C26   C     C_3   0.828757 0.669220 0.348700 -0.428022
C27   C     C_3   0.862443 0.472306 0.631182 -0.272637
C28   C     C_3   0.828501 0.615692 0.661101 -0.436023
C29   C     C_3   0.137557 0.527693 0.368818 -0.272637
C30   C     C_3   0.171499 0.384308 0.338899 -0.436023
C31   C     C_R   0.499869 0.499991 0.070081 0.344004
C32   C     C_R   0.499844 0.499982 0.367415 0.533704
C33   C     C_R   0.500156 0.500018 0.632584 0.533704
C34   C     C_R   0.066085 0.488894 0.563779 -0.001131
C35   C     C_R   0.933915 0.511106 0.436221 -0.001131
C36   C     C_R   0.935211 0.486968 0.563823 -0.002162
Cu1   Cu    Cu3+1 0.500000 0.640660 0.500000 0.906038
Cu2   Cu    Cu3+1 0.500000 0.359340 0.500000 0.906038
H1    H     H_    0.501278 0.727018 0.281878 0.123530
H2    H     H_    0.634504 0.869733 0.579885 0.099193
H3    H     H_    0.634619 0.130634 0.579844 0.104338
H4    H     H_    0.365381 0.869366 0.420155 0.104338
H5    H     H_    0.085728 0.266528 0.655831 0.140224
H6    H     H_    0.232564 0.281736 0.612258 0.188896
H7    H     H_    0.220401 0.329971 0.701826 0.142512
H8    H     H_    0.227499 0.543201 0.627673 0.156437
H9    H     H_    0.090048 0.533601 0.674347 0.142448
H10   H     H_    0.779598 0.670028 0.298174 0.142512
H11   H     H_    0.767437 0.718264 0.387742 0.188896
H12   H     H_    0.498722 0.272982 0.718122 0.123530
H13   H     H_    0.914272 0.733472 0.344169 0.140224
H14   H     H_    0.909952 0.466399 0.325653 0.142449
H15   H     H_    0.772501 0.456799 0.372327 0.156437
H16   H     H_    0.912917 0.680206 0.669885 0.144161
H17   H     H_    0.765517 0.672972 0.625547 0.170122
H18   H     H_    0.780317 0.601360 0.711217 0.146029
H19   H     H_    0.776391 0.410198 0.623322 0.154320
H20   H     H_    0.914188 0.411264 0.670500 0.141640
H21   H     H_    0.219683 0.398639 0.288783 0.146029
H22   H     H_    0.234483 0.327028 0.374453 0.170122
H23   H     H_    0.501806 0.727072 0.718247 0.125150
H24   H     H_    0.087082 0.319793 0.330115 0.144161
H25   H     H_    0.085812 0.588735 0.329500 0.141640
H26   H     H_    0.223609 0.589802 0.376678 0.154320
H27   H     H_    0.498194 0.272928 0.281753 0.125150
H28   H     H_    0.501300 0.727171 0.156260 0.136121
H29   H     H_    0.498700 0.272829 0.843740 0.136121
H30   H     H_    0.501826 0.727207 0.843872 0.136409
H31   H     H_    0.498174 0.272793 0.156128 0.136409
H32   H     H_    0.365496 0.130267 0.420115 0.099193
N1    N     N_R   0.500000 0.852070 0.500000 -0.223180
N2    N     N_R   0.500000 0.147930 0.500000 -0.223180
N3    N     N_R   0.499095 0.377326 0.034315 -0.231789
N4    N     N_R   0.500905 0.622674 0.965685 -0.231789
N5    N     N_R   0.499219 0.377335 0.965611 -0.231813
N6    N     N_R   0.500781 0.622665 0.034389 -0.231813
O1    O     O_R   0.319640 0.618740 0.500000 -0.505691
O2    O     O_R   0.680360 0.381260 0.500000 -0.505691
O3    O     O_R   0.680360 0.618740 0.500000 -0.506526
O4    O     O_R   0.319640 0.381260 0.500000 -0.506526
O5    O     O_R   0.499980 0.618820 0.400140 -0.510906
O6    O     O_R   0.500020 0.381180 0.599860 -0.510905
O7    O     O_R   0.500020 0.618820 0.599860 -0.507943
O8    O     O_R   0.499980 0.381180 0.400140 -0.507943

loop_
_geom_bond_atom_site_label_1
_geom_bond_atom_site_label_2
_ccdc_geom_bond_type
C2    C35   A    
C29   H25   S    
C17   H31   S    
C1    O1    A    
C14   C18   A    
C19   C23   S    
C28   H18   S    
C13   H27   S    
C15   C19   A    
C32   O5    A    
Cu1   O3    S    
C29   C30   S    
N4    N6    A    
C2    C29   S    
C24   H7    S    
C8    H4    S    
C5    N2    A    
C10   C15   A    
C31   N3    A    
C21   C33   S    
C12   O3    A    
C9    H1    S    
C3    C12   S    
C30   H22   S    
C16   H30   S    
C33   O6    A    
C34   C36   A    
C26   H10   S    
C22   H9    S    
C29   H26   S    
Cu2   O6    S    
N3    N5    A    
Cu1   O5    S    
C32   O8    A    
C28   H17   S    
Cu2   N2    S    
C10   C21   A    
C6    N1    A    
C22   C34   S    
C4    C34   A    
C27   H19   S    
C26   H11   S    
C23   N5    A    
C7    N2    A    
C28   H16   S    
Cu2   O2    S    
C25   C26   S    
Cu1   O1    S    
C11   C21   A    
C12   O2    A    
C2    C4    A    
C9    C14   A    
Cu1   Cu2   S    
C11   C16   A    
C9    C20   A    
C3    C35   A    
C15   H29   S    
C30   H21   S    
C17   C18   A    
C14   H28   S    
C33   O7    A    
C25   C35   S    
C22   H8    S    
Cu1   N1    S    
C24   H6    S    
C22   C24   S    
C23   N4    A    
C10   H12   S    
C20   C32   S    
C1    O4    A    
C8    N1    A    
C13   C20   A    
Cu2   O8    S    
C25   H15   S    
C11   H23   S    
C5    H32   S    
C5    C8    A    
C6    C7    A    
C27   C36   S    
C13   C17   A    
C1    C4    S    
C30   H24   S    
C25   H14   S    
C26   H13   S    
C31   N6    A    
Cu2   O4    S    
C3    C36   A    
C27   H20   S    
C16   C19   A    
C6    H2    S    
C7    H3    S    
C27   C28   S    
C24   H5    S    
Cu1   O7    S    
C18   C31   S    
