data_mof_unit_34280.cif
_audit_creation_date              2012-12-11T15:17:40-0500
_audit_creation_method            fapswitch 2.2
_symmetry_space_group_name_H-M    P1
_symmetry_Int_Tables_number       1
_space_group_crystal_system       triclinic
_cell_length_a                    15.712815
_cell_length_b                    15.712838
_cell_length_c                    34.439689
_cell_angle_alpha                 89.987907
_cell_angle_beta                  89.988259
_cell_angle_gamma                 119.980356
_cell_volume                      7365.19717848

loop_
_atom_site_label
_atom_site_type_symbol
_atom_type_description
_atom_site_fract_x
_atom_site_fract_y
_atom_site_fract_z
_atom_type_partial_charge
C1    C     C_R   0.578889 0.441070 0.555557 0.580602
C2    C     C_R   0.558780 0.137530 0.555488 0.580192
C3    C     C_R   0.862594 0.421310 0.555426 0.580722
C4    C     C_R   0.441071 0.578888 0.055557 0.580603
C5    C     C_R   0.137530 0.558780 0.055487 0.580192
C6    C     C_R   0.421311 0.862594 0.055426 0.580723
C7    C     C_R   0.957001 0.506746 0.715742 0.366687
C8    C     C_R   0.492689 0.445843 0.716273 0.369609
C9    C     C_R   0.550117 0.047229 0.716356 0.367741
C10   C     C_R   0.506746 0.957011 0.215741 0.366690
C11   C     C_R   0.445855 0.492684 0.216271 0.369609
C12   C     C_R   0.047229 0.550115 0.216356 0.367743
C13   C     C_R   0.002645 0.441082 0.851142 0.081103
C14   C     C_R   0.559255 0.561181 0.851334 0.076950
C15   C     C_R   0.438818 0.003757 0.852985 0.061856
C16   C     C_R   0.441084 0.002655 0.351140 0.081101
C17   C     C_R   0.561186 0.559251 0.351333 0.076948
C18   C     C_R   0.003757 0.438819 0.352986 0.061854
C19   C     C_R   0.041413 0.449450 0.888782 0.060442
C20   C     C_R   0.550225 0.592066 0.888592 0.099432
C21   C     C_R   0.409095 0.962883 0.890168 0.099240
C22   C     C_R   0.449452 0.041422 0.388781 0.060439
C23   C     C_R   0.592065 0.550222 0.388593 0.099425
C24   C     C_R   0.962884 0.409097 0.390168 0.099237
C25   C     C_R   0.048106 0.607154 0.896694 0.094747
C26   C     C_R   0.394027 0.440047 0.897184 0.093876
C27   C     C_R   0.558394 0.952451 0.896387 0.055911
C28   C     C_R   0.607152 0.048107 0.396694 0.094745
C29   C     C_R   0.440051 0.394024 0.397182 0.093871
C30   C     C_R   0.952440 0.558389 0.396384 0.055906
C31   C     C_R   0.010461 0.598996 0.859067 0.063084
C32   C     C_R   0.402513 0.409862 0.859698 0.074825
C33   C     C_R   0.587172 0.991895 0.858727 0.079168
C34   C     C_R   0.598994 0.010464 0.359067 0.063083
C35   C     C_R   0.409869 0.402509 0.359696 0.074822
C36   C     C_R   0.991886 0.587167 0.358725 0.079166
C37   C     C_R   0.992567 0.518379 0.835648 0.047281
C38   C     C_R   0.482695 0.472550 0.836061 0.017649
C39   C     C_R   0.525188 0.012928 0.836441 0.048176
C40   C     C_R   0.518379 0.992574 0.335647 0.047281
C41   C     C_R   0.472558 0.482690 0.336059 0.017651
C42   C     C_R   0.012924 0.525186 0.336440 0.048177
C43   C     C_R   0.071198 0.536180 0.910634 0.046966
C44   C     C_R   0.464095 0.534867 0.910724 0.036796
C45   C     C_R   0.465153 0.930247 0.910983 0.046740
C46   C     C_R   0.536180 0.071201 0.410634 0.046968
C47   C     C_R   0.534867 0.464093 0.410723 0.036803
C48   C     C_R   0.930243 0.465153 0.410982 0.046742
C49   C     C_R   0.577181 0.442560 0.445554 0.583125
C50   C     C_R   0.557457 0.134597 0.445570 0.586986
C51   C     C_R   0.865572 0.422871 0.445616 0.586862
C52   C     C_R   0.442560 0.577181 0.945554 0.583123
C53   C     C_R   0.134596 0.557457 0.945570 0.586985
C54   C     C_R   0.422871 0.865573 0.945616 0.586862
C55   C     C_R   0.912533 0.453361 0.593707 0.036340
C56   C     C_R   0.547613 0.458042 0.594191 0.036190
C57   C     C_R   0.541200 0.088438 0.593979 0.035793
C58   C     C_R   0.453364 0.912537 0.093706 0.036340
C59   C     C_R   0.458045 0.547611 0.094190 0.036190
C60   C     C_R   0.088439 0.541200 0.093979 0.035792
C61   C     C_R   0.918791 0.384497 0.618324 0.059682
C62   C     C_R   0.617682 0.530527 0.619328 0.059835
C63   C     C_R   0.465582 0.081863 0.618386 0.061341
C64   C     C_R   0.384504 0.918806 0.118321 0.059684
C65   C     C_R   0.530533 0.617678 0.119326 0.059836
C66   C     C_R   0.081866 0.465583 0.118386 0.061340
C67   C     C_R   0.938236 0.405065 0.658125 0.079737
C68   C     C_R   0.596975 0.528025 0.659187 0.080589
C69   C     C_R   0.466856 0.063646 0.658314 0.080334
C70   C     C_R   0.405071 0.938253 0.158122 0.079737
C71   C     C_R   0.528035 0.596970 0.159185 0.080589
C72   C     C_R   0.063650 0.466856 0.158314 0.080332
C73   C     C_R   0.951970 0.494006 0.673354 0.046015
C74   C     C_R   0.506642 0.454266 0.673964 0.046670
C75   C     C_R   0.542668 0.051362 0.673897 0.046535
C76   C     C_R   0.494008 0.951980 0.173353 0.046017
C77   C     C_R   0.454276 0.506637 0.173962 0.046672
C78   C     C_R   0.051364 0.542667 0.173897 0.046535
C79   C     C_R   0.957246 0.567566 0.648287 0.064689
C80   C     C_R   0.432477 0.388460 0.648545 0.066232
C81   C     C_R   0.611588 0.046421 0.649090 0.066426
C82   C     C_R   0.567566 0.957246 0.148287 0.064692
C83   C     C_R   0.388467 0.432474 0.148543 0.066230
C84   C     C_R   0.046421 0.611587 0.149089 0.066431
C85   C     C_R   0.939369 0.547965 0.608206 0.098770
C86   C     C_R   0.452367 0.391264 0.608433 0.100211
C87   C     C_R   0.609748 0.063090 0.608888 0.099751
C88   C     C_R   0.547966 0.939366 0.108206 0.098770
C89   C     C_R   0.391268 0.452365 0.108432 0.100208
C90   C     C_R   0.063090 0.609747 0.108888 0.099755
C91   C     C_R   0.973953 0.518983 0.793943 0.361538
C92   C     C_R   0.480956 0.452340 0.794422 0.326042
C93   C     C_R   0.543619 0.030993 0.794615 0.375010
C94   C     C_R   0.518982 0.973960 0.293942 0.361537
C95   C     C_R   0.452352 0.480952 0.294420 0.326039
C96   C     C_R   0.030989 0.543615 0.294615 0.375008
Cr1   Cr    Cr6+3 0.522350 0.263930 0.500020 1.080123
Cr2   Cr    Cr6+3 0.736070 0.258420 0.500020 1.078994
Cr3   Cr    Cr6+3 0.741580 0.477650 0.500020 1.080624
Cr4   Cr    Cr6+3 0.263930 0.522350 0.000020 1.080122
Cr5   Cr    Cr6+3 0.258420 0.736070 0.000020 1.078995
Cr6   Cr    Cr6+3 0.477650 0.741580 0.000020 1.080624
N1    N     N_R   0.895874 0.441356 0.777060 -0.169085
N2    N     N_R   0.554709 0.444352 0.777705 -0.221916
N3    N     N_R   0.543561 0.108459 0.777362 -0.225210
N4    N     N_R   0.441351 0.895886 0.277058 -0.169087
N5    N     N_R   0.444358 0.554701 0.277703 -0.221919
N6    N     N_R   0.108457 0.543561 0.277362 -0.225214
N7    N     N_R   0.887415 0.435583 0.738608 -0.174711
N8    N     N_R   0.560329 0.440982 0.739260 -0.180098
N9    N     N_R   0.546904 0.116467 0.738886 -0.179173
N10   N     N_R   0.435579 0.887428 0.238607 -0.174715
N11   N     N_R   0.440988 0.560321 0.239257 -0.180105
N12   N     N_R   0.116467 0.546905 0.238886 -0.179172
N13   N     N_R   0.034379 0.584997 0.732649 -0.234773
N14   N     N_R   0.417998 0.452119 0.733028 -0.232211
N15   N     N_R   0.552435 0.970950 0.733649 -0.235028
N16   N     N_R   0.585000 0.034384 0.232648 -0.234772
N17   N     N_R   0.452138 0.417998 0.233026 -0.232205
N18   N     N_R   0.970947 0.552429 0.233648 -0.235027
N19   N     N_R   0.042759 0.590856 0.771115 -0.233131
N20   N     N_R   0.412369 0.455458 0.771479 -0.225796
N21   N     N_R   0.549282 0.963038 0.772142 -0.191545
N22   N     N_R   0.590858 0.042763 0.271114 -0.233131
N23   N     N_R   0.455477 0.412369 0.271477 -0.225794
N24   N     N_R   0.963032 0.549275 0.272141 -0.191542
O1    O     O_R   0.498680 0.159540 0.541860 -0.470056
O2    O     O_R   0.840460 0.339140 0.541860 -0.469278
O3    O     O_R   0.660860 0.501320 0.541860 -0.469933
O4    O     O_R   0.159540 0.498680 0.041860 -0.470056
O5    O     O_R   0.339140 0.840460 0.041860 -0.469278
O6    O     O_R   0.501320 0.660860 0.041860 -0.469932
O7    O     O_R   0.532760 0.358060 0.540030 -0.476055
O8    O     O_R   0.641940 0.174700 0.540030 -0.476117
O9    O     O_R   0.825300 0.467240 0.540030 -0.476119
O10   O     O_R   0.358060 0.532760 0.040030 -0.476054
O11   O     O_R   0.174700 0.641940 0.040030 -0.476119
O12   O     O_R   0.467240 0.825300 0.040030 -0.476119
O13   O     O_R   0.498590 0.161190 0.456930 -0.477075
O14   O     O_R   0.838810 0.337400 0.456930 -0.482205
O15   O     O_R   0.662600 0.501410 0.456930 -0.479309
O16   O     O_R   0.161190 0.498590 0.956930 -0.477077
O17   O     O_R   0.337400 0.838810 0.956930 -0.482204
O18   O     O_R   0.501410 0.662600 0.956930 -0.479309
O19   O     O_R   0.532680 0.359580 0.461300 -0.474809
O20   O     O_R   0.640420 0.173100 0.461300 -0.476668
O21   O     O_R   0.826900 0.467320 0.461300 -0.471073
O22   O     O_R   0.359580 0.532680 0.961300 -0.474809
O23   O     O_R   0.173100 0.640420 0.961300 -0.476668
O24   O     O_R   0.467320 0.826900 0.961300 -0.471073
O25   O     O_3   0.666667 0.333333 0.499990 -0.289446
O26   O     O_3   0.333333 0.666667 0.999990 -0.289445
N25   N     N_3   0.901346 0.291969 0.603190 -0.582985
H1    H     H_    0.841128 0.235198 0.617558 0.254499
H2    H     H_    0.963303 0.285238 0.608217 0.228763
N26   N     N_3   0.711555 0.604084 0.604651 -0.581928
H3    H     H_    0.720863 0.673554 0.610338 0.229364
H4    H     H_    0.766765 0.597438 0.618808 0.254777
N27   N     N_3   0.389739 0.097673 0.602882 -0.583565
H5    H     H_    0.321464 0.035362 0.608096 0.228587
H6    H     H_    0.392327 0.157999 0.616819 0.253613
N28   N     N_3   0.291980 0.901371 0.103185 -0.582990
H7    H     H_    0.235204 0.841158 0.117554 0.254498
H8    H     H_    0.285259 0.963334 0.108211 0.228762
N29   N     N_3   0.604090 0.711550 0.104649 -0.581929
H9    H     H_    0.673561 0.720856 0.110335 0.229362
H10   H     H_    0.597449 0.766761 0.118807 0.254777
N30   N     N_3   0.097678 0.389741 0.102882 -0.583564
H11   H     H_    0.035368 0.321465 0.108097 0.228587
H12   H     H_    0.158006 0.392332 0.116820 0.253613
N31   N     N_3   0.945573 0.622196 0.581858 -0.583128
H13   H     H_    0.005027 0.640687 0.563323 0.221278
H14   H     H_    0.960156 0.686720 0.596082 0.266115
N32   N     N_3   0.377716 0.325322 0.581771 -0.584158
H15   H     H_    0.360140 0.367868 0.563745 0.221568
H16   H     H_    0.312899 0.275317 0.595816 0.266068
N33   N     N_3   0.678429 0.057158 0.582824 -0.582886
H17   H     H_    0.638070 0.997245 0.564440 0.221469
H18   H     H_    0.728638 0.043392 0.597300 0.265354
N34   N     N_3   0.622195 0.945561 0.081860 -0.583127
H19   H     H_    0.640693 0.005016 0.063324 0.221280
H20   H     H_    0.686715 0.960137 0.096084 0.266112
N35   N     N_3   0.325322 0.377715 0.081770 -0.584158
H21   H     H_    0.367866 0.360138 0.063743 0.221568
H22   H     H_    0.275318 0.312899 0.095815 0.266067
N36   N     N_3   0.057158 0.678428 0.082824 -0.582886
H23   H     H_    0.997246 0.638069 0.064439 0.221468
H24   H     H_    0.043389 0.728635 0.097299 0.265353
N37   N     N_3   0.053123 0.371205 0.904405 -0.597595
H25   H     H_    0.984376 0.307324 0.905501 0.227944
H26   H     H_    0.099090 0.359175 0.886102 0.228494
N38   N     N_3   0.627696 0.683551 0.903361 -0.581878
H27   H     H_    0.692129 0.679582 0.904407 0.250517
H28   H     H_    0.638747 0.739323 0.883953 0.244646
N39   N     N_3   0.319882 0.951892 0.906264 -0.580523
H29   H     H_    0.326402 0.021353 0.907948 0.251230
H30   H     H_    0.262078 0.908622 0.887392 0.252317
N40   N     N_3   0.371209 0.053136 0.404404 -0.597594
H31   H     H_    0.307327 0.984390 0.405498 0.227947
H32   H     H_    0.359184 0.099105 0.386100 0.228493
N41   N     N_3   0.683541 0.627699 0.403365 -0.581883
H33   H     H_    0.679563 0.692127 0.404408 0.250521
H34   H     H_    0.739320 0.638752 0.383961 0.244648
N42   N     N_3   0.951897 0.319887 0.406266 -0.580525
H35   H     H_    0.021360 0.326411 0.407950 0.251231
H36   H     H_    0.908628 0.262083 0.387394 0.252319
N43   N     N_3   0.942680 0.335079 0.683682 -0.591318
H37   H     H_    0.997799 0.321418 0.674051 0.234727
H38   H     H_    0.875262 0.269604 0.682982 0.241316
N44   N     N_3   0.668169 0.599557 0.685262 -0.604416
H39   H     H_    0.684588 0.669673 0.676278 0.234457
H40   H     H_    0.732143 0.594805 0.684341 0.238798
N45   N     N_3   0.391904 0.058946 0.683632 -0.605170
H41   H     H_    0.323473 0.002989 0.674123 0.233796
H42   H     H_    0.392900 0.125902 0.682495 0.239710
N46   N     N_3   0.335088 0.942708 0.183678 -0.591319
H43   H     H_    0.321435 0.997832 0.174045 0.234726
H44   H     H_    0.269609 0.875294 0.182978 0.241317
N47   N     N_3   0.599569 0.668163 0.185260 -0.604416
H45   H     H_    0.669684 0.684580 0.176274 0.234458
H46   H     H_    0.594818 0.732137 0.184340 0.238799
N48   N     N_3   0.058953 0.391906 0.183632 -0.605169
H47   H     H_    0.002997 0.323475 0.174124 0.233796
H48   H     H_    0.125910 0.392906 0.182496 0.239712
N49   N     N_3   0.975650 0.660441 0.663350 -0.651333
H49   H     H_    0.923619 0.648134 0.684798 0.237016
H50   H     H_    0.045793 0.696649 0.675645 0.262071
N50   N     N_3   0.338486 0.315448 0.663278 -0.650363
H51   H     H_    0.349003 0.273620 0.684329 0.237617
H52   H     H_    0.304232 0.350800 0.676079 0.261611
N51   N     N_3   0.686812 0.029626 0.664517 -0.649523
H53   H     H_    0.725899 0.082348 0.685809 0.243374
H54   H     H_    0.653662 0.959782 0.677080 0.263157
N52   N     N_3   0.660437 0.975643 0.163351 -0.651334
H55   H     H_    0.648125 0.923613 0.184801 0.237019
H56   H     H_    0.696651 0.045787 0.175645 0.262070
N53   N     N_3   0.315455 0.338483 0.163277 -0.650363
H57   H     H_    0.273631 0.349000 0.184329 0.237617
H58   H     H_    0.350808 0.304227 0.176076 0.261608
N54   N     N_3   0.029626 0.686810 0.164517 -0.649522
H59   H     H_    0.082348 0.725897 0.185809 0.243378
H60   H     H_    0.959782 0.653660 0.177079 0.263157
N55   N     N_3   0.978953 0.356867 0.827452 -0.586717
H61   H     H_    0.925854 0.293771 0.841679 0.237067
H62   H     H_    0.042186 0.351735 0.823528 0.238244
N56   N     N_3   0.644577 0.624261 0.828628 -0.632858
H63   H     H_    0.622332 0.642830 0.802920 0.261001
H64   H     H_    0.681430 0.586274 0.821826 0.259220
N57   N     N_3   0.376363 0.029435 0.831646 -0.633806
H65   H     H_    0.355160 0.989622 0.805697 0.258053
H66   H     H_    0.415670 0.104538 0.825390 0.259140
N58   N     N_3   0.356871 0.978970 0.327449 -0.586719
H67   H     H_    0.293773 0.925871 0.341675 0.237068
H68   H     H_    0.351743 0.042206 0.323526 0.238245
N59   N     N_3   0.624265 0.644574 0.328627 -0.632854
H69   H     H_    0.642836 0.622329 0.302920 0.261001
H70   H     H_    0.586275 0.681424 0.321825 0.259219
N60   N     N_3   0.029439 0.376365 0.331647 -0.633803
H71   H     H_    0.989625 0.355160 0.305699 0.258052
H72   H     H_    0.104541 0.415677 0.325392 0.259141
N61   N     N_3   0.064887 0.689097 0.920484 -0.580789
H73   H     H_    0.998178 0.687858 0.923995 0.246979
H74   H     H_    0.113691 0.753848 0.905994 0.256947
N62   N     N_3   0.312741 0.374781 0.921239 -0.581150
H75   H     H_    0.315234 0.310056 0.925098 0.246233
H76   H     H_    0.247576 0.357354 0.906766 0.255486
N63   N     N_3   0.622970 0.933521 0.919628 -0.596212
H77   H     H_    0.688770 0.999445 0.923770 0.223578
H78   H     H_    0.637848 0.884332 0.904915 0.237055
N64   N     N_3   0.689094 0.064887 0.420484 -0.580792
H79   H     H_    0.687855 0.998177 0.423994 0.246982
H80   H     H_    0.753845 0.113691 0.405994 0.256947
N65   N     N_3   0.374784 0.312738 0.421237 -0.581152
H81   H     H_    0.310060 0.315233 0.425095 0.246233
H82   H     H_    0.357359 0.247575 0.406764 0.255488
N66   N     N_3   0.933497 0.622960 0.419623 -0.596207
H83   H     H_    0.999416 0.688766 0.423764 0.223580
H84   H     H_    0.884302 0.637825 0.404908 0.237051
N67   N     N_3   0.991393 0.673961 0.845094 -0.638359
H85   H     H_    0.918837 0.640497 0.835199 0.241612
H86   H     H_    0.038455 0.710396 0.821870 0.258672
N68   N     N_3   0.328084 0.315330 0.845992 -0.638719
H87   H     H_    0.362079 0.276219 0.836699 0.244819
H88   H     H_    0.292267 0.325167 0.822340 0.255607
N69   N     N_3   0.678472 0.008986 0.842361 -0.605980
H89   H     H_    0.736080 0.058245 0.860101 0.227777
H90   H     H_    0.678466 0.942498 0.841498 0.240197
N70   N     N_3   0.673957 0.991393 0.345093 -0.638357
H91   H     H_    0.640490 0.918837 0.335198 0.241612
H92   H     H_    0.710394 0.038456 0.321871 0.258673
N71   N     N_3   0.315339 0.328079 0.345988 -0.638718
H93   H     H_    0.276231 0.362076 0.336693 0.244822
H94   H     H_    0.325181 0.292264 0.322337 0.255605
N72   N     N_3   0.008975 0.678466 0.342357 -0.605980
H95   H     H_    0.058235 0.736074 0.360098 0.227780
H96   H     H_    0.942487 0.678459 0.341494 0.240200

loop_
_geom_bond_atom_site_label_1
_geom_bond_atom_site_label_2
_ccdc_geom_bond_type
C25   C31   A    
N2    N8    A    
N31   H13   S    
C83   N53   S    
Cr1   O19   S    
C26   C32   A    
N29   H9    S    
N13   N19   A    
C38   C92   S    
Cr5   O17   S    
C9    N15   A    
N41   H33   S    
C6    C58   S    
C36   C42   A    
N71   H93   S    
C63   N27   S    
Cr1   O1    S    
C11   N17   A    
C25   C43   A    
N59   H70   S    
C16   N58   S    
C2    C57   S    
C26   C44   A    
C47   C49   S    
N4    N10   A    
N45   H41   S    
Cr4   O26   S    
C30   N66   S    
C66   C72   A    
N31   H14   S    
C28   C46   A    
N68   H87   S    
C85   N31   S    
N52   H56   S    
C29   C47   A    
C18   C24   A    
C89   N35   S    
C30   C48   A    
N26   H3    S    
N71   H94   S    
C1    C56   S    
Cr6   O6    S    
N49   H50   S    
C1    O3    A    
N35   H22   S    
C41   C95   S    
Cr6   O12   S    
N61   H73   S    
C64   C70   A    
N18   N24   A    
C55   C85   A    
C80   N50   S    
C87   N33   S    
C77   C83   A    
C68   C74   A    
N55   H61   S    
N53   H58   S    
C65   N29   S    
C58   C88   A    
N64   H80   S    
C71   N47   S    
C53   O16   A    
C59   C89   A    
C7    N13   A    
N37   H26   S    
C95   N23   A    
N32   H15   S    
N5    N11   A    
C80   C86   A    
C36   N72   S    
C11   C77   S    
C93   N3    A    
C12   N18   A    
C33   C39   A    
C3    C55   S    
C43   C53   S    
C48   C51   S    
C27   N63   S    
N25   H1    S    
C63   C69   A    
C39   C93   S    
N34   H20   S    
N62   H75   S    
N55   H62   S    
C12   C78   S    
C72   C78   A    
N67   H85   S    
N27   H6    S    
Cr1   O25   S    
C88   N34   S    
N40   H31   S    
C67   C73   A    
N38   H27   S    
C32   C38   A    
N25   H2    S    
C31   N67   S    
Cr4   O4    S    
C13   C37   A    
C5    C60   S    
C4    O10   A    
C56   C62   A    
C51   O14   A    
C27   C45   A    
N30   H12   S    
C54   O17   A    
C96   N6    A    
C68   N44   S    
C52   O22   A    
C74   C80   A    
N53   H57   S    
N36   H24   S    
C53   O23   A    
N42   H35   S    
N41   H34   S    
N42   H36   S    
C84   N54   S    
C84   C90   A    
C90   N36   S    
C32   N68   S    
N50   H52   S    
N50   H51   S    
C20   C44   A    
C19   C43   A    
C46   C50   S    
C57   C63   A    
C21   C45   A    
Cr2   O25   S    
N45   H42   S    
C31   C37   A    
C58   C64   A    
Cr1   O7    S    
C83   C89   A    
N56   H64   S    
Cr4   O10   S    
C1    O7    A    
N57   H66   S    
Cr3   O3    S    
Cr5   O23   S    
Cr3   O9    S    
N43   H37   S    
C24   C48   A    
C14   C20   A    
C28   N64   S    
N46   H43   S    
N29   H10   S    
C7    C73   S    
C60   C90   A    
C91   N1    A    
N47   H45   S    
N61   H74   S    
Cr5   O11   S    
C50   O13   A    
C75   C81   A    
C13   C19   A    
N16   N22   A    
Cr2   O20   S    
N33   H18   S    
C17   N59   S    
C65   C71   A    
Cr3   O25   S    
C78   C84   A    
C27   C33   A    
C57   C87   A    
C34   N70   S    
C10   N10   A    
C86   N32   S    
N38   H28   S    
C6    O12   A    
N60   H72   S    
C30   C36   A    
N35   H21   S    
N69   H89   S    
C10   N16   A    
C92   N20   A    
C14   C38   A    
C79   N49   S    
C25   N61   S    
C61   C67   A    
C92   N2    A    
C56   C86   A    
N27   H5    S    
C17   C23   A    
C51   O21   A    
C72   N48   S    
N54   H60   S    
N49   H49   S    
N57   H65   S    
C49   O19   A    
N37   H25   S    
N51   H54   S    
N32   H16   S    
C52   O18   A    
C21   N39   S    
N48   H48   S    
C15   C39   A    
C81   C87   A    
C35   C41   A    
C95   N5    A    
Cr6   O26   S    
C16   C40   A    
C12   N12   A    
N17   N23   A    
C13   N55   S    
C64   N28   S    
N30   H11   S    
C22   C46   A    
Cr6   O24   S    
C45   C54   S    
N44   H39   S    
N44   H40   S    
C82   N52   S    
C70   C76   A    
C42   C96   S    
N52   H55   S    
C76   C82   A    
N59   H69   S    
Cr5   O5    S    
C40   C94   S    
C71   C77   A    
N51   H53   S    
C67   N43   S    
N34   H19   S    
N58   H68   S    
N28   H7    S    
N14   N20   A    
C35   N71   S    
C23   N41   S    
Cr3   O21   S    
N56   H63   S    
C24   N42   S    
C5    O4    A    
C16   C22   A    
C54   O24   A    
C29   N65   S    
C3    O2    A    
C10   C76   S    
C22   N40   S    
C33   N69   S    
C93   N21   A    
N46   H44   S    
C6    O5    A    
C73   C79   A    
C19   N37   S    
C61   N25   S    
C44   C52   S    
C20   N38   S    
N63   H77   S    
C2    O8    A    
C8    N8    A    
Cr3   O15   S    
Cr2   O2    S    
C49   O15   A    
N65   H81   S    
C15   N57   S    
C29   C35   A    
Cr2   O8    S    
Cr5   O26   S    
N68   H88   S    
C69   N45   S    
C66   N30   S    
N1    N7    A    
Cr6   O18   S    
N6    N12   A    
N70   H91   S    
C23   C47   A    
C18   C42   A    
N60   H71   S    
N15   N21   A    
C60   C66   A    
C70   N46   S    
C5    O11   A    
N69   H90   S    
N28   H8    S    
Cr4   O16   S    
C2    O1    A    
N72   H96   S    
C4    O6    A    
C50   O20   A    
N72   H95   S    
Cr4   O22   S    
C82   C88   A    
C96   N24   A    
C55   C61   A    
C4    C59   S    
N26   H4    S    
N54   H59   S    
N65   H82   S    
C79   C85   A    
C62   N26   S    
C69   C75   A    
C3    O9    A    
C62   C68   A    
N67   H86   S    
N3    N9    A    
N48   H47   S    
C11   N11   A    
C17   C41   A    
C18   N60   S    
C94   N4    A    
C8    N14   A    
C28   C34   A    
N39   H29   S    
C7    N7    A    
C15   C21   A    
C91   N19   A    
C26   N62   S    
N66   H83   S    
N62   H76   S    
N33   H17   S    
C81   N51   S    
Cr2   O14   S    
C8    C74   S    
N43   H38   S    
N64   H79   S    
C34   C40   A    
N40   H32   S    
C9    C75   S    
N39   H30   S    
N36   H23   S    
N66   H84   S    
Cr1   O13   S    
N47   H46   S    
C59   C65   A    
N63   H78   S    
C37   C91   S    
N70   H92   S    
N58   H67   S    
C14   N56   S    
C9    N9    A    
C94   N22   A    
