data_mof_unit_33143.cif
_audit_creation_date              2012-12-11T17:34:18-0500
_audit_creation_method            fapswitch 2.2
_symmetry_space_group_name_H-M    P1
_symmetry_Int_Tables_number       1
_space_group_crystal_system       triclinic
_cell_length_a                    23.925682
_cell_length_b                    7.213563
_cell_length_c                    20.543943
_cell_angle_alpha                 89.999239
_cell_angle_beta                  105.423759
_cell_angle_gamma                 89.999254
_cell_volume                      3417.97060905

loop_
_atom_site_label
_atom_site_type_symbol
_atom_type_description
_atom_site_fract_x
_atom_site_fract_y
_atom_site_fract_z
_atom_type_partial_charge
O1    O     O_R   0.449110 0.494310 0.552140 -0.540779
O2    O     O_R   0.550890 0.994310 0.447860 -0.540771
O3    O     O_R   0.440010 0.824420 0.415850 -0.534104
O4    O     O_R   0.559990 0.324420 0.584150 -0.534099
C1    C     C_R   0.424893 0.656310 0.391018 0.687966
C2    C     C_R   0.575107 0.156305 0.608981 0.687944
O5    O     O_R   0.442260 0.824040 0.549660 -0.540621
O6    O     O_R   0.557740 0.324040 0.450340 -0.540625
O7    O     O_R   0.553160 0.993960 0.582620 -0.531587
O8    O     O_R   0.446840 0.493960 0.417380 -0.531580
C3    C     C_R   0.429136 0.654632 0.568589 0.668803
C4    C     C_R   0.570863 0.154632 0.431411 0.668776
O9    O     O_3   0.536380 0.660670 0.510660 -0.372679
O10   O     O_3   0.463620 0.160670 0.489340 -0.372685
V1    V     V_3+5 0.493250 0.935680 0.498020 1.383728
V2    V     V_3+5 0.506750 0.435680 0.501980 1.383732
C5    C     C_R   0.828161 0.922890 0.177972 -0.136611
C6    C     C_R   0.171834 0.422886 0.822022 -0.136611
H1    H     H_    0.811979 0.799046 0.196627 0.105345
H2    H     H_    0.188014 0.299042 0.803364 0.105345
C7    C     C_R   0.865550 0.905358 0.135826 -0.168056
C8    C     C_R   0.134446 0.405355 0.864170 -0.168056
H3    H     H_    0.877608 0.767896 0.123275 0.120312
H4    H     H_    0.122388 0.267894 0.876720 0.120309
C9    C     C_R   0.887387 0.063866 0.110862 -0.051044
C10   C     C_R   0.112612 0.563864 0.889136 -0.051039
C11   C     C_R   0.870313 0.239789 0.129009 -0.169540
C12   C     C_R   0.129686 0.739786 0.870990 -0.169541
H5    H     H_    0.885840 0.365722 0.111049 0.126928
H6    H     H_    0.114161 0.865720 0.888952 0.126924
C13   C     C_R   0.833091 0.256747 0.170978 -0.142575
C14   C     C_R   0.166907 0.756743 0.829019 -0.142572
H7    H     H_    0.820854 0.393670 0.183997 0.105962
H8    H     H_    0.179144 0.893666 0.816000 0.105961
C15   C     C_R   0.811942 0.098791 0.195944 0.131618
C16   C     C_R   0.188053 0.598787 0.804050 0.131619
C17   C     C_1   0.772973 0.117885 0.238977 -0.063263
C18   C     C_1   0.227021 0.617881 0.761015 -0.063264
C19   C     C_1   0.739543 0.131466 0.273973 -0.055988
C20   C     C_1   0.260450 0.631461 0.726019 -0.055982
C21   C     C_R   0.660031 0.988889 0.310459 -0.137502
C22   C     C_R   0.339964 0.488884 0.689536 -0.137508
H9    H     H_    0.664703 0.874781 0.278284 0.104637
H10   H     H_    0.335293 0.374778 0.721712 0.104639
C23   C     C_R   0.617457 0.986790 0.346977 0.071286
C24   C     C_R   0.382540 0.486788 0.653020 0.071271
C25   C     C_R   0.613831 0.142527 0.389433 -0.091650
C26   C     C_R   0.386166 0.642527 0.610563 -0.091635
C27   C     C_R   0.652715 0.291493 0.392088 -0.185332
C28   C     C_R   0.347279 0.791489 0.607904 -0.185321
H11   H     H_    0.651409 0.411105 0.423507 0.134795
H12   H     H_    0.348584 0.911100 0.576484 0.134802
C29   C     C_R   0.694040 0.289273 0.354835 -0.152121
C30   C     C_R   0.305952 0.789266 0.645154 -0.152150
H13   H     H_    0.723021 0.406257 0.357948 0.113831
H14   H     H_    0.276969 0.906249 0.642038 0.113836
C31   C     C_R   0.697771 0.137803 0.313913 0.098883
C32   C     C_R   0.302222 0.637797 0.686078 0.098882
C33   C     C_R   0.648769 0.264322 0.790813 -0.163083
C34   C     C_R   0.351211 0.764555 0.209210 -0.163080
H15   H     H_    0.564736 0.306469 0.724378 0.109704
H16   H     H_    0.435242 0.806695 0.275645 0.109688
H17   H     H_    0.734263 0.286113 0.902668 0.126311
H18   H     H_    0.265707 0.786469 0.097368 0.126310
H19   H     H_    0.636894 0.331633 0.832388 0.114417
H20   H     H_    0.363075 0.831973 0.167647 0.114421
C35   C     C_R   0.619699 0.156450 0.674881 -0.038136
C36   C     C_R   0.380299 0.656481 0.325118 -0.038176
C37   C     C_R   0.899166 0.977227 0.769253 -0.156386
C38   C     C_R   0.100848 0.477047 0.230735 -0.156369
C39   C     C_R   0.859590 0.955420 0.706529 -0.119476
C40   C     C_R   0.140431 0.455156 0.293450 -0.119484
C41   C     C_R   0.801418 0.001331 0.697154 -0.157807
C42   C     C_R   0.198597 0.501137 0.302829 -0.157807
C43   C     C_R   0.781168 0.072786 0.750770 0.076911
C44   C     C_R   0.218835 0.572746 0.249227 0.076912
C45   C     C_R   0.822586 0.099403 0.814985 0.069681
C46   C     C_R   0.177410 0.599446 0.185021 0.069682
C47   C     C_R   0.721394 0.120474 0.742589 0.071738
C48   C     C_R   0.278604 0.620501 0.257411 0.071733
C49   C     C_R   0.705557 0.202260 0.798056 0.141518
C50   C     C_R   0.294429 0.702428 0.201959 0.141521
C51   C     C_R   0.746604 0.225601 0.860214 -0.200549
C52   C     C_R   0.253375 0.725848 0.139810 -0.200553
C53   C     C_R   0.803954 0.173098 0.868867 -0.197203
C54   C     C_R   0.196031 0.673284 0.131153 -0.197230
C55   C     C_R   0.676736 0.093375 0.681361 -0.215671
C56   C     C_R   0.323269 0.593337 0.318630 -0.215681
C57   C     C_R   0.607067 0.246833 0.729438 -0.172503
C58   C     C_R   0.392917 0.746998 0.270577 -0.172491
C59   C     C_R   0.881754 0.049237 0.823994 -0.084420
C60   C     C_R   0.118247 0.549207 0.176007 -0.084445
H21   H     H_    0.685191 0.029872 0.637450 0.099785
H22   H     H_    0.314823 0.529740 0.362530 0.099804
H23   H     H_    0.943811 0.935741 0.775374 0.107317
H24   H     H_    0.056209 0.435496 0.224609 0.107329
H25   H     H_    0.773437 0.980468 0.647156 0.108408
H26   H     H_    0.226585 0.480196 0.352820 0.108408
H27   H     H_    0.874049 0.900205 0.664767 0.120198
H28   H     H_    0.125982 0.399819 0.335200 0.120200
H29   H     H_    0.833871 0.193818 0.918081 0.121799
H30   H     H_    0.166109 0.694068 0.081945 0.121846
O11   O     O_R   0.053190 0.709680 0.082610 -0.532857
O12   O     O_R   0.946810 0.209680 0.917390 -0.532850
O13   O     O_R   0.057740 0.380240 0.950340 -0.538879
O14   O     O_R   0.942260 0.880240 0.049660 -0.538879
C61   C     C_R   0.071152 0.549424 0.932138 0.674689
C62   C     C_R   0.928848 0.049425 0.067861 0.674679
O15   O     O_R   0.060000 0.379940 0.084150 -0.531540
O16   O     O_R   0.940000 0.879940 0.915850 -0.531539
O17   O     O_R   0.949110 0.210100 0.052140 -0.539476
O18   O     O_R   0.050890 0.710100 0.947860 -0.539479
C63   C     C_R   0.074733 0.547828 0.109228 0.676339
C64   C     C_R   0.925268 0.047833 0.890772 0.676346
O19   O     O_3   0.963630 0.543720 0.989330 -0.372171
O20   O     O_3   0.036370 0.043720 0.010670 -0.372178
V3    V     V_3+5 0.006750 0.268680 0.001980 1.408186
V4    V     V_3+5 0.993250 0.768680 0.998020 1.408181
C65   C     C_3   0.576036 0.821692 0.339703 -0.337252
C66   C     C_3   0.579948 0.675791 0.286172 -0.356477
C67   C     C_3   0.534864 0.522311 0.279825 -0.745094
H31   H     H_    0.532268 0.474633 0.330213 0.240266
H32   H     H_    0.491720 0.571949 0.250583 0.219592
H33   H     H_    0.546928 0.402501 0.252423 0.222007
H34   H     H_    0.573309 0.742844 0.235957 0.199488
H35   H     H_    0.623495 0.610235 0.300747 0.203304
H36   H     H_    0.585048 0.748678 0.389016 0.195610
H37   H     H_    0.531072 0.876114 0.326645 0.171107
C68   C     C_3   0.423964 0.321694 0.660298 -0.337285
C69   C     C_3   0.420038 0.175756 0.713812 -0.356439
C70   C     C_3   0.465125 0.022270 0.720163 -0.745105
H38   H     H_    0.467781 0.974761 0.669778 0.240262
H39   H     H_    0.508252 0.071825 0.749488 0.219577
H40   H     H_    0.453016 0.902358 0.747481 0.222025
H41   H     H_    0.426665 0.242769 0.764031 0.199477
H42   H     H_    0.376491 0.110213 0.699217 0.203298
H43   H     H_    0.414964 0.248704 0.610982 0.195627
H44   H     H_    0.468928 0.376119 0.673373 0.171102

loop_
_geom_bond_atom_site_label_1
_geom_bond_atom_site_label_2
_ccdc_geom_bond_type
C18   C20   T    
C6    C16   A    
C11   H5    S    
C40   C42   A    
C21   H9    S    
C61   O18   A    
C38   H24   S    
C69   H41   S    
O1    C3    A    
C70   H40   S    
O2    C4    A    
C22   C32   A    
C24   C68   S    
C47   C55   A    
O15   V3    S    
C25   C27   A    
C70   H39   S    
C41   H25   S    
O13   C61   A    
C28   C30   A    
C42   C44   A    
C14   C16   A    
C8    H4    S    
O11   C63   A    
C44   C46   A    
C68   C69   S    
C1    C36   S    
C33   C57   A    
C66   H35   S    
C19   C31   S    
C55   H21   S    
C35   C57   A    
O20   V3    S    
C22   C24   A    
C23   C25   A    
C37   C39   A    
H18   C52   S    
C67   H33   S    
C34   C50   A    
C68   H44   S    
C12   H6    S    
C27   H11   S    
C36   C58   A    
C13   H7    S    
C60   C63   S    
O16   C64   A    
O15   C63   A    
C65   H37   S    
C23   C65   S    
C26   C28   A    
C34   H20   S    
O6    V2    S    
O14   V4    S    
C41   C43   A    
O13   V3    S    
C3    C26   S    
C22   H10   S    
C2    O7    A    
C4    C25   S    
C49   C51   A    
H15   C57   S    
C24   C26   A    
C29   H13   S    
C30   H14   S    
C20   C32   S    
C11   C13   A    
C44   C48   A    
C12   C14   A    
C48   C50   A    
C39   C41   A    
C29   C31   A    
C66   H34   S    
C37   H23   S    
C39   H27   S    
C5    C7    A    
O16   V4    S    
C14   H8    S    
O4    V2    S    
O5    C3    A    
C28   H12   S    
O6    C4    A    
O19   V4    S    
O1    V2    S    
O2    V1    S    
C43   C45   A    
C67   H31   S    
O12   C64   A    
O4    C2    A    
C2    C35   S    
C51   C53   A    
C50   C52   A    
C7    H3    S    
C36   C56   A    
C13   C15   A    
O11   V4    S    
C70   H38   S    
C54   H30   S    
O3    V1    S    
C66   C67   S    
C47   C49   A    
O12   V3    S    
C30   C32   A    
C7    C9    A    
C45   C59   A    
C42   H26   S    
C15   C17   S    
C6    C8    A    
C10   C12   A    
C69   H42   S    
C33   C49   A    
C52   C54   A    
O3    C1    A    
C10   C61   S    
C40   H28   S    
C65   C66   S    
C59   C64   S    
C34   C58   A    
C9    C11   A    
C35   C55   A    
C38   C60   A    
C62   O17   A    
O17   V3    S    
C46   C60   A    
C16   C18   S    
C69   C70   S    
O7    V1    S    
C21   C31   A    
C1    O8    A    
C17   C19   T    
O8    V2    S    
C33   H19   S    
O18   V4    S    
C46   C54   A    
O14   C62   A    
C27   C29   A    
H16   C58   S    
O5    V1    S    
C5    H1    S    
C6    H2    S    
C67   H32   S    
C53   H29   S    
C45   C53   A    
C68   H43   S    
C48   C56   A    
C8    C10   A    
O9    V2    S    
H17   C51   S    
C56   H22   S    
C21   C23   A    
O10   V1    S    
C38   C40   A    
C5    C15   A    
C37   C59   A    
C43   C47   A    
C9    C62   S    
C65   H36   S    
