data_mof_unit_47853.cif
_audit_creation_date              2013-03-05T15:58:35-0500
_audit_creation_method            fapswitch 2.2
_symmetry_space_group_name_H-M    P1
_symmetry_Int_Tables_number       1
_space_group_crystal_system       triclinic
_cell_length_a                    15.051769
_cell_length_b                    13.872898
_cell_length_c                    10.949374
_cell_angle_alpha                 90.004893
_cell_angle_beta                  86.464896
_cell_angle_gamma                 89.998351
_cell_volume                      2282.00644606

loop_
_atom_site_label
_atom_site_type_symbol
_atom_site_description
_atom_site_fract_x
_atom_site_fract_y
_atom_site_fract_z
_atom_type_partial_charge
O1    O     O_R   0.370260 0.582280 0.500030 -0.617225
O2    O     O_R   0.629740 0.417720 0.499970 -0.538367
O3    O     O_R   0.629740 0.582280 0.499970 -0.617301
O4    O     O_R   0.370260 0.417720 0.500030 -0.538744
C1    C     C_R   0.328691 0.500060 0.501103 0.891337
C2    C     C_R   0.671307 0.500059 0.498894 0.891671
O5    O     O_R   0.499980 0.582260 0.316850 -0.522068
O6    O     O_R   0.500020 0.417740 0.683150 -0.559780
O7    O     O_R   0.500020 0.582260 0.683150 -0.522142
O8    O     O_R   0.499980 0.417740 0.316850 -0.560052
C3    C     C_R   0.505175 0.499879 0.258887 0.940402
C4    C     C_R   0.494813 0.499884 0.741113 0.940481
Cu1   Cu    Cu3+1 0.500000 0.597420 0.500000 1.049618
Cu2   Cu    Cu3+1 0.500000 0.402580 0.500000 1.054436
C5    C     C_3   0.460164 0.577677 0.047941 0.335988
C6    C     C_3   0.540355 0.419104 0.951985 0.336490
C7    C     C_3   0.539967 0.577570 0.952056 0.336075
C8    C     C_3   0.459444 0.419212 0.048036 0.336556
C9    C     C_3   0.413396 0.499089 0.976985 0.111253
C10   C     C_3   0.586573 0.498872 0.023020 0.111256
C11   C     C_3   0.493108 0.499076 0.878762 -0.360536
C12   C     C_3   0.506862 0.499071 0.121243 -0.360485
C13   C     C_R   0.820024 0.507406 0.387916 0.341468
C14   C     C_R   0.179982 0.507451 0.612129 0.341550
C15   C     C_R   0.768625 0.502477 0.498625 -0.279613
C16   C     C_R   0.231369 0.502469 0.501400 -0.279682
C17   C     C_R   0.809617 0.503548 0.609896 0.436471
C18   C     C_R   0.190358 0.503531 0.390140 0.436478
C19   C     C_R   0.901267 0.525430 0.612101 -0.131111
C20   C     C_R   0.098716 0.525448 0.387964 -0.131027
C21   C     C_R   0.953113 0.530971 0.500139 -0.105115
C22   C     C_R   0.046874 0.530980 0.499930 -0.105241
C23   C     C_R   0.911846 0.527667 0.388155 -0.106326
C24   C     C_R   0.088147 0.527686 0.611909 -0.106217
C25   C     C_R   0.943238 0.538309 0.722923 0.218498
C26   C     C_R   0.056740 0.538319 0.277146 0.218951
C27   C     C_R   0.036405 0.543285 0.721653 0.370466
C28   C     C_R   0.963577 0.543277 0.278417 0.370438
C29   C     C_R   0.444268 0.794613 0.582788 0.569740
C30   C     C_R   0.568066 0.206777 0.440229 0.593698
C31   C     C_R   0.555730 0.794595 0.417204 0.569867
C32   C     C_R   0.431938 0.206788 0.559775 0.593565
N1    N     N_R   0.500000 0.743810 0.500000 -0.260689
N2    N     N_R   0.500000 0.256190 0.500000 -0.273895
C33   C     C_R   0.564596 0.897493 0.426995 -0.199142
C34   C     C_R   0.428332 0.103803 0.556961 -0.226715
C35   C     C_R   0.435402 0.897510 0.572998 -0.199114
C36   C     C_R   0.571669 0.103790 0.443029 -0.226687
C37   C     C_R   0.500000 0.948801 0.499996 -0.054241
C38   C     C_R   0.500001 0.052063 0.499996 -0.075291
C39   C     C_R   0.635756 0.951399 0.367433 0.286532
C40   C     C_R   0.356291 0.051626 0.612876 0.273358
C41   C     C_R   0.364239 0.951433 0.632552 0.286501
C42   C     C_R   0.643704 0.051597 0.387098 0.273343
N3    N     N_R   0.319004 0.504843 0.956020 0.180606
O9    O     O_R   0.262847 0.450767 0.018814 -0.281960
O10   O     O_R   0.288733 0.579714 0.901412 -0.362623
N4    N     N_R   0.680976 0.504430 0.043982 0.180489
O11   O     O_R   0.737049 0.450278 0.981127 -0.282340
O12   O     O_R   0.711357 0.579242 0.098613 -0.362225
O13   O     O_3   0.419389 0.657320 0.109487 -0.534495
C43   C     C_3   0.391445 0.727316 0.026564 -0.072063
H1    H     H_    0.317846 0.733177 0.036079 0.224256
H2    H     H_    0.411859 0.713328 0.928863 0.192421
H3    H     H_    0.419201 0.798208 0.051492 0.154487
O14   O     O_3   0.579474 0.342797 0.881591 -0.554324
C44   C     C_3   0.615225 0.270892 0.954532 -0.330229
H4    H     H_    0.566094 0.241119 0.022369 0.158681
H5    H     H_    0.674103 0.296230 0.000291 0.195843
H6    H     H_    0.637498 0.210255 0.894134 0.191059
O15   O     O_3   0.580921 0.657095 0.890495 -0.534461
C45   C     C_3   0.608929 0.727079 0.973402 -0.071946
H7    H     H_    0.682532 0.732856 0.963884 0.224223
H8    H     H_    0.588514 0.713130 0.071106 0.192333
H9    H     H_    0.581234 0.797996 0.948463 0.154466
O16   O     O_3   0.420143 0.343030 0.118462 -0.554016
C46   C     C_3   0.384302 0.271160 0.045540 -0.329451
H10   H     H_    0.433466 0.241079 0.977962 0.158598
H11   H     H_    0.325629 0.296661 0.999456 0.195417
H12   H     H_    0.361694 0.210703 0.106007 0.190943
O17   O     O_3   0.782110 0.479674 0.281647 -0.542099
C47   C     C_3   0.807086 0.383005 0.256502 -0.048060
H13   H     H_    0.786265 0.334451 0.333863 0.185531
H14   H     H_    0.879892 0.375711 0.235018 0.164502
H15   H     H_    0.774414 0.358005 0.174622 0.190524
O18   O     O_3   0.217924 0.479804 0.718408 -0.542178
C48   C     C_3   0.193008 0.383131 0.743611 -0.048291
H16   H     H_    0.213809 0.334555 0.666252 0.185587
H17   H     H_    0.120214 0.375812 0.765172 0.164635
H18   H     H_    0.225739 0.358181 0.825460 0.190242
O19   O     O_3   0.762969 0.467740 0.712657 -0.509120
C49   C     C_3   0.779287 0.367346 0.716003 -0.110114
H19   H     H_    0.851527 0.350957 0.719422 0.134018
H20   H     H_    0.751551 0.329845 0.636955 0.160694
H21   H     H_    0.746348 0.336824 0.799736 0.228712
O20   O     O_3   0.236940 0.467708 0.287322 -0.509143
C50   C     C_3   0.220868 0.367256 0.284188 -0.109673
H22   H     H_    0.148527 0.350457 0.283181 0.132392
H23   H     H_    0.250229 0.329828 0.362077 0.162175
H24   H     H_    0.252413 0.337009 0.199320 0.228312
N5    N     N_R   0.892493 0.549705 0.836978 0.183750
O21   O     O_R   0.830997 0.615563 0.848815 -0.303066
O22   O     O_R   0.914152 0.501367 0.932408 -0.220861
N6    N     N_R   0.107476 0.549738 0.163094 0.183877
O23   O     O_R   0.168937 0.615630 0.151273 -0.302963
O24   O     O_R   0.085795 0.501435 0.067637 -0.220832
O25   O     O_3   0.076917 0.562875 0.828769 -0.473025
C51   C     C_3   0.085714 0.663730 0.839188 -0.035229
H25   H     H_    0.019469 0.699153 0.851830 0.134864
H26   H     H_    0.124194 0.694966 0.758557 0.126139
H27   H     H_    0.122723 0.679925 0.921199 0.225209
O26   O     O_3   0.923056 0.562852 0.171306 -0.472945
C52   C     C_3   0.914222 0.663703 0.160907 -0.035475
H28   H     H_    0.980455 0.699146 0.148252 0.134950
H29   H     H_    0.875745 0.694931 0.241554 0.126152
H30   H     H_    0.877193 0.679882 0.078912 0.225093
O27   O     O_3   0.414129 0.750685 0.691249 -0.579730
C53   C     C_3   0.329413 0.708521 0.683181 -0.092118
H31   H     H_    0.334972 0.630297 0.697088 0.208056
H32   H     H_    0.296200 0.724794 0.597244 0.147171
H33   H     H_    0.285214 0.732006 0.761961 0.207510
O28   O     O_3   0.629948 0.258726 0.370200 -0.541882
C54   C     C_3   0.606937 0.255351 0.247616 -0.284624
H34   H     H_    0.625038 0.325218 0.204346 0.185935
H35   H     H_    0.534541 0.243847 0.235971 0.183766
H36   H     H_    0.645134 0.198059 0.197559 0.180455
O29   O     O_3   0.585833 0.750661 0.308717 -0.579573
C55   C     C_3   0.670542 0.708458 0.316725 -0.092407
H37   H     H_    0.664958 0.630232 0.302828 0.207942
H38   H     H_    0.703793 0.724732 0.402635 0.147268
H39   H     H_    0.714719 0.731912 0.237912 0.207266
O30   O     O_3   0.370065 0.258748 0.629824 -0.541975
C56   C     C_3   0.393047 0.255329 0.752421 -0.284403
H40   H     H_    0.375108 0.325260 0.795655 0.185889
H41   H     H_    0.465405 0.243602 0.764118 0.183869
H42   H     H_    0.354688 0.198169 0.802481 0.180455
N7    N     N_R   0.705275 0.905689 0.294472 0.128800
O31   O     O_R   0.701186 0.905499 0.176078 -0.355529
O32   O     O_R   0.781433 0.889927 0.341107 -0.345934
N8    N     N_R   0.271714 0.098037 0.640033 0.167456
O33   O     O_R   0.229287 0.088246 0.746512 -0.299562
O34   O     O_R   0.233764 0.144681 0.554231 -0.343557
N9    N     N_R   0.294721 0.905746 0.705521 0.128784
O35   O     O_R   0.298821 0.905565 0.823913 -0.355484
O36   O     O_R   0.218555 0.889997 0.658899 -0.345894
N10   N     N_R   0.728275 0.097998 0.359905 0.167475
O37   O     O_R   0.770665 0.088210 0.253397 -0.299567
O38   O     O_R   0.766261 0.144623 0.445699 -0.343508

loop_
_geom_bond_atom_site_label_1
_geom_bond_atom_site_label_2
_geom_bond_distance
_ccdc_geom_bond_type
C48   H16   1.112116 S    
C27   O25   1.381821 S    
C6    C11   1.565190 S    
C17   C19   1.414177 A    
C24   C27   1.407780 A    
C31   O29   1.386110 S    
N3    O9    1.295547 A    
O3    C2    1.300650 A    
C55   H37   1.099761 S    
N6    O24   1.299967 A    
C50   H22   1.114248 S    
C54   H34   1.105605 S    
C35   C37   1.412405 A    
C46   H10   1.096197 S    
C5    C9    1.534630 S    
N7    O32   1.301839 A    
N5    O21   1.301322 A    
O1    C1    1.300692 A    
Cu2   N2    2.030854 S    
C9    C11   1.561108 S    
N8    O34   1.301491 A    
C52   H28   1.112577 S    
C54   H35   1.116375 S    
C2    C15   1.465014 S    
C33   C39   1.430317 A    
N4    O12   1.295270 A    
N9    O35   1.301585 A    
C34   C40   1.411685 A    
C7    C10   1.534638 S    
C51   H25   1.112579 S    
N9    O36   1.301843 A    
C8    C9    1.542774 S    
C32   C34   1.430138 A    
O7    Cu1   2.016411 S    
C53   H31   1.099738 S    
N6    O23   1.301328 A    
C43   H2    1.111708 S    
C5    C12   1.548251 S    
O30   C56   1.407517 S    
C13   C23   1.410543 A    
C56   H42   1.106201 S    
O6    Cu2   2.016375 S    
O25   C51   1.410674 S    
C21   C23   1.409000 A    
C17   O19   1.381462 S    
C30   N2    1.365676 A    
O3    Cu1   1.964053 S    
C6    C10   1.542746 S    
C35   C41   1.430339 A    
C52   H30   1.108503 S    
C36   C38   1.408835 A    
O14   C44   1.405565 S    
N5    O22   1.299968 A    
Cu1   Cu2   2.702994 S    
C31   N1    1.388605 A    
O2    C2    1.302128 A    
C32   N2    1.365652 A    
C45   H9    1.109182 S    
O26   C52   1.410674 S    
C50   H23   1.113012 S    
O17   C47   1.415197 S    
N10   O38   1.301489 A    
C46   H11   1.102116 S    
C44   H4    1.096150 S    
O16   C46   1.405581 S    
C45   H8    1.111686 S    
O8    Cu2   2.016412 S    
O19   C49   1.415107 S    
O18   C48   1.415191 S    
O4    C1    1.302110 A    
C54   H36   1.106220 S    
C29   N1    1.388597 A    
N4    O11   1.295603 A    
C29   O27   1.386082 S    
C4    C11   1.505847 S    
C47   H13   1.112114 S    
C49   H21   1.099864 S    
C14   C24   1.410631 A    
C44   H5    1.102144 S    
C53   H33   1.105430 S    
C22   C24   1.408991 A    
C36   C42   1.411709 A    
O5    C3    1.307202 A    
C43   H1    1.109238 S    
C21   C22   1.411128 A    
C33   C37   1.412412 A    
O6    C4    1.304346 A    
O20   C50   1.415181 S    
C49   H20   1.112907 S    
C5    O13   1.414349 S    
N8    O33   1.301449 A    
C39   N7    1.425491 S    
C10   C12   1.561102 S    
C7    O15   1.414354 S    
C47   H14   1.111161 S    
N3    O10   1.295238 A    
C56   H40   1.105585 S    
O1    Cu1   1.964065 S    
C10   N4    1.455304 S    
O29   C55   1.410637 S    
C55   H39   1.105448 S    
Cu1   N1    2.030854 S    
C50   H24   1.100245 S    
C40   C41   1.412785 A    
C29   C35   1.438325 A    
N10   O37   1.301448 A    
C46   H12   1.109018 S    
C9    N3    1.455288 S    
C30   C36   1.430155 A    
C34   C38   1.408839 A    
C8    O16   1.416141 S    
C13   O17   1.381819 S    
C43   H3    1.109186 S    
C25   C27   1.403232 A    
C8    C12   1.565164 S    
C14   C16   1.399043 A    
C45   H7    1.109227 S    
C25   N5    1.431890 S    
C55   H38   1.115487 S    
C5    C7    1.545823 S    
C15   C17   1.399281 A    
C47   H15   1.104636 S    
C30   O28   1.373668 S    
N7    O31   1.301584 A    
C19   C25   1.413485 A    
C3    C12   1.505810 S    
C16   C18   1.399318 A    
C23   C28   1.407707 A    
C51   H27   1.108501 S    
C20   C26   1.413485 A    
C42   N10   1.441100 S    
C18   O20   1.381495 S    
C39   C42   1.412798 A    
C44   H6    1.109016 S    
C48   H17   1.111156 S    
O15   C45   1.411190 S    
C19   C21   1.414141 A    
O27   C53   1.410615 S    
C26   C28   1.403161 A    
C20   C22   1.414125 A    
C26   N6    1.431856 S    
C14   O18   1.381834 S    
C18   C20   1.414113 A    
C49   H19   1.113745 S    
C40   N8    1.441118 S    
C51   H26   1.113418 S    
C13   C15   1.398920 A    
O4    Cu2   1.964053 S    
O13   C43   1.411187 S    
O2    Cu2   1.964065 S    
O7    C4    1.307251 A    
C53   H32   1.115497 S    
O8    C3    1.304375 A    
C1    C16   1.465054 S    
O5    Cu1   2.016377 S    
C6    O14   1.416076 S    
C6    C8    1.559262 S    
C37   C38   1.432556 A    
C48   H18   1.104616 S    
C56   H41   1.116350 S    
C31   C33   1.438323 A    
C32   O30   1.373674 S    
C41   N9    1.425480 S    
O28   C54   1.407485 S    
C28   O26   1.381834 S    
C52   H29   1.113420 S    
C7    C11   1.548220 S    
