data_mof_unit_40840.cif
_audit_creation_date              2012-12-10T16:48:06-0500
_audit_creation_method            fapswitch 2.2
_symmetry_space_group_name_H-M    P1
_symmetry_Int_Tables_number       1
_space_group_crystal_system       triclinic
_cell_length_a                    15.830553
_cell_length_b                    8.609096
_cell_length_c                    7.518082
_cell_angle_alpha                 102.922514
_cell_angle_beta                  94.838208
_cell_angle_gamma                 92.139172
_cell_volume                      993.439741854

loop_
_atom_site_label
_atom_site_type_symbol
_atom_type_description
_atom_site_fract_x
_atom_site_fract_y
_atom_site_fract_z
_atom_type_partial_charge
C1    C     C_R   0.505749 0.200088 0.453380 0.784137
C2    C     C_R   0.511525 0.800753 0.546553 0.786954
C3    C     C_R   0.340150 0.500322 0.501296 0.799340
C4    C     C_R   0.659784 0.499806 0.498702 0.849779
C5    C     C_2   0.528641 0.034842 0.427494 0.056647
C6    C     C_2   0.536563 0.969689 0.572506 0.097062
C7    C     C_3   0.968259 0.348472 0.467260 0.349301
C8    C     C_3   0.031068 0.649913 0.531153 0.348569
C9    C     C_3   0.020502 0.417213 0.334588 -0.306463
C10   C     C_3   0.978859 0.581143 0.663788 -0.297335
C11   C     C_1   0.250581 0.501608 0.503393 -0.098822
C12   C     C_1   0.749152 0.497895 0.496310 -0.056862
C13   C     C_3   0.031480 0.431280 0.630202 0.406641
C14   C     C_3   0.967843 0.567090 0.368217 0.399962
C15   C     C_3   0.083175 0.500834 0.500069 -0.183571
C16   C     C_3   0.916261 0.497559 0.498411 -0.186027
C17   C     C_1   0.174969 0.501981 0.502277 0.166792
C18   C     C_1   0.824634 0.496873 0.496844 0.175097
Cu1   Cu    Cu3+1 0.509330 0.517380 0.684380 1.083702
Cu2   Cu    Cu3+1 0.490670 0.482620 0.315620 1.065610
H1    H     H_    0.038669 0.347032 0.203214 0.264161
H2    H     H_    0.960558 0.651073 0.795181 0.265846
H3    H     H_    0.429935 0.384966 0.951133 0.248338
H4    H     H_    0.571963 0.609784 0.047305 0.287448
N1    N     N_2   0.476600 0.456420 0.038510 -0.204053
N2    N     N_2   0.523400 0.543580 0.961490 -0.189171
O1    O     O_R   0.506070 0.286130 0.619780 -0.573704
O2    O     O_R   0.493930 0.713870 0.380220 -0.566103
O3    O     O_R   0.490300 0.256770 0.308360 -0.522010
O4    O     O_R   0.509700 0.743230 0.691640 -0.508797
O5    O     O_R   0.386960 0.514660 0.655680 -0.576140
O6    O     O_R   0.613040 0.485340 0.344320 -0.569575
O7    O     O_R   0.371190 0.485310 0.344260 -0.577224
O8    O     O_R   0.628810 0.514690 0.655740 -0.559950
Cl1   Cl    Cl    0.924769 0.148335 0.423765 -0.339320
Cl2   Cl    Cl    0.073908 0.850424 0.574639 -0.361844
S1    S     S_3+6 0.922830 0.659390 0.195974 0.108942
O9    O     O_2   0.857547 0.770602 0.274742 -0.196005
O10   O     O_2   0.991733 0.752338 0.132088 -0.189645
O11   O     O_3   0.876530 0.517302 0.020059 -0.499246
H5    H     H_    0.835455 0.573140 0.953383 0.370694
S2    S     S_3+6 0.075871 0.339078 0.802967 0.091860
O12   O     O_2   0.006611 0.246494 0.866243 -0.176707
O13   O     O_2   0.141200 0.227594 0.725083 -0.242653
O14   O     O_3   0.121916 0.481263 0.979065 -0.512202
H6    H     H_    0.162887 0.425500 0.046074 0.360141
S3    S     S_3+6 0.592639 0.965762 0.247531 0.098671
O15   O     O_2   0.645590 0.833055 0.284882 -0.285870
O16   O     O_2   0.535359 0.907082 0.074024 -0.206564
O17   O     O_3   0.658337 0.116777 0.225145 -0.453978
H7    H     H_    0.704348 0.127416 0.325573 0.383069
S4    S     S_3+6 0.615980 0.055619 0.752850 0.114010
O18   O     O_2   0.660401 0.928040 0.825397 -0.165512
O19   O     O_2   0.680626 0.154368 0.683644 -0.298649
O20   O     O_3   0.569612 0.173805 0.921337 -0.447778
H8    H     H_    0.611256 0.265174 0.970966 0.389008

loop_
_geom_bond_atom_site_label_1
_geom_bond_atom_site_label_2
_ccdc_geom_bond_type
C2    O2    A    
C9    C14   S    
S2    O14   S    
C15   C17   S    
S1    O9    D    
C4    C12   S    
Cu1   O1    S    
C7    C16   S    
Cu1   Cu2   S    
S4    O20   S    
C2    O4    A    
S3    O17   S    
O20   H8    S    
Cu1   O5    S    
C1    O3    A    
O17   H7    S    
C9    C15   S    
S3    O16   D    
C10   C16   S    
O14   H6    S    
C10   H2    S    
C14   S1    S    
C3    O5    A    
C5    S3    S    
C9    H1    S    
C2    C6    S    
S2    O13   D    
C1    C5    S    
Cu2   O7    S    
C16   C18   S    
O11   H5    S    
H4    N2    S    
C8    C15   S    
C4    O8    A    
Cu2   O3    S    
C13   C15   S    
C8    Cl2   S    
C5    C6    D    
C14   C16   S    
C3    C11   S    
S2    O12   D    
C3    O7    A    
C12   C18   T    
S1    O11   S    
C7    C9    S    
C7    C13   S    
H3    N1    S    
S4    O18   D    
S1    O10   D    
Cu2   O6    S    
C4    O6    A    
C1    O1    A    
Cu1   N2    S    
C13   S2    S    
C8    C14   S    
Cu2   O2    S    
C6    S4    S    
N1    N2    D    
Cu2   N1    S    
Cu1   O4    S    
C7    Cl1   S    
Cu1   O8    S    
C8    C10   S    
C11   C17   T    
S3    O15   D    
S4    O19   D    
C10   C13   S    
