data_mof_unit_59426.cif
_audit_creation_date              2012-12-10T18:15:26-0500
_audit_creation_method            fapswitch 2.2
_symmetry_space_group_name_H-M    P1
_symmetry_Int_Tables_number       1
_space_group_crystal_system       triclinic
_cell_length_a                    22.051222
_cell_length_b                    23.037981
_cell_length_c                    14.734344
_cell_angle_alpha                 89.932765
_cell_angle_beta                  90.000065
_cell_angle_gamma                 90.0
_cell_volume                      7485.27194706

loop_
_atom_site_label
_atom_site_type_symbol
_atom_type_description
_atom_site_fract_x
_atom_site_fract_y
_atom_site_fract_z
_atom_type_partial_charge
C1    C     C_R   0.081710 0.421808 0.499980 0.823002
C2    C     C_R   0.081711 0.578192 0.500020 0.822999
C3    C     C_R   0.581710 0.921808 0.499980 0.823002
C4    C     C_R   0.581711 0.078192 0.500020 0.822999
C5    C     C_1   0.167464 0.656673 0.501374 -0.098409
C6    C     C_1   0.167464 0.343328 0.498627 -0.098409
C7    C     C_1   0.667464 0.156673 0.501374 -0.098410
C8    C     C_1   0.667464 0.843327 0.498628 -0.098411
C9    C     C_1   0.829208 0.344044 0.494808 -0.108529
C10   C     C_1   0.829216 0.655964 0.505192 -0.108532
C11   C     C_1   0.329210 0.844042 0.494808 -0.108527
C12   C     C_1   0.329215 0.155963 0.505192 -0.108531
C13   C     C_1   0.869635 0.379457 0.497883 -0.186518
C14   C     C_1   0.869642 0.620549 0.502117 -0.186520
C15   C     C_1   0.369637 0.879456 0.497882 -0.186516
C16   C     C_1   0.369641 0.120548 0.502117 -0.186520
C17   C     C_3   0.973896 0.557568 0.055274 -0.135872
C18   C     C_3   0.972639 0.557611 0.947611 -0.138378
C19   C     C_3   0.973885 0.442440 0.944727 -0.135873
C20   C     C_3   0.972629 0.442397 0.052389 -0.138383
C21   C     C_3   0.473892 0.057566 0.055274 -0.135873
C22   C     C_3   0.472636 0.057609 0.947611 -0.138379
C23   C     C_3   0.473888 0.942438 0.944727 -0.135873
C24   C     C_3   0.472632 0.942395 0.052389 -0.138385
C25   C     C_3   0.002121 0.499362 0.092859 0.112397
C26   C     C_3   0.002122 0.500640 0.907141 0.112397
C27   C     C_3   0.502121 0.999362 0.092859 0.112397
C28   C     C_3   0.502121 0.000640 0.907142 0.112398
C29   C     C_3   0.068696 0.500921 0.946381 -0.439606
C30   C     C_3   0.068696 0.499070 0.053619 -0.439604
C31   C     C_3   0.568696 0.000924 0.946381 -0.439607
C32   C     C_3   0.568695 0.999073 0.053619 -0.439602
C33   C     C_1   0.002373 0.500741 0.804379 0.091332
C34   C     C_1   0.002373 0.499260 0.195621 0.091336
C35   C     C_1   0.502373 0.000741 0.804379 0.091330
C36   C     C_1   0.502373 0.999259 0.195621 0.091339
C37   C     C_R   0.918271 0.421132 0.499730 0.817464
C38   C     C_R   0.918273 0.578870 0.500270 0.817465
C39   C     C_R   0.418271 0.921131 0.499730 0.817464
C40   C     C_R   0.418273 0.078870 0.500270 0.817465
C41   C     C_3   0.793800 0.260640 0.581467 -0.420308
C42   C     C_3   0.793631 0.256625 0.410963 -0.447712
C43   C     C_3   0.793800 0.739363 0.418530 -0.420310
C44   C     C_3   0.793641 0.743385 0.589033 -0.447714
C45   C     C_3   0.293800 0.760639 0.581467 -0.420309
C46   C     C_3   0.293633 0.756623 0.410963 -0.447713
C47   C     C_3   0.293802 0.239363 0.418530 -0.420310
C48   C     C_3   0.293639 0.243383 0.589034 -0.447714
C49   C     C_3   0.252644 0.701681 0.416313 -0.133655
C50   C     C_3   0.252136 0.705958 0.586949 -0.148169
C51   C     C_3   0.252648 0.298324 0.583684 -0.133652
C52   C     C_3   0.252136 0.294043 0.413049 -0.148169
C53   C     C_3   0.752643 0.201682 0.416313 -0.133655
C54   C     C_3   0.752136 0.205959 0.586948 -0.148168
C55   C     C_3   0.752649 0.798325 0.583683 -0.133654
C56   C     C_3   0.752133 0.794041 0.413049 -0.148167
C57   C     C_1   0.129047 0.619934 0.500363 -0.175620
C58   C     C_1   0.129047 0.380066 0.499637 -0.175621
C59   C     C_1   0.629047 0.119934 0.500363 -0.175621
C60   C     C_1   0.629046 0.880065 0.499637 -0.175621
C61   C     C_3   0.782537 0.297621 0.493811 0.229188
C62   C     C_3   0.782544 0.702385 0.506190 0.229192
C63   C     C_3   0.282539 0.797620 0.493811 0.229188
C64   C     C_3   0.282544 0.202384 0.506189 0.229191
C65   C     C_3   0.209863 0.705678 0.501422 0.209036
C66   C     C_3   0.209865 0.294324 0.498578 0.209036
C67   C     C_3   0.709862 0.205678 0.501422 0.209036
C68   C     C_3   0.709864 0.794323 0.498580 0.209034
C69   C     C_3   0.172886 0.762963 0.496685 -0.419362
C70   C     C_3   0.172890 0.237037 0.503321 -0.419365
C71   C     C_3   0.672885 0.262964 0.496686 -0.419360
C72   C     C_3   0.672890 0.737036 0.503327 -0.419362
C73   C     C_3   0.713695 0.319872 0.494930 0.061626
C74   C     C_3   0.713704 0.680130 0.505084 0.061628
C75   C     C_3   0.213697 0.819871 0.494928 0.061627
C76   C     C_3   0.213703 0.180131 0.505079 0.061630
Cu1   Cu    Cu3+1 0.999990 0.500000 0.589920 0.972218
Cu2   Cu    Cu3+1 0.999990 0.500000 0.410080 0.972221
Cu3   Cu    Cu3+1 0.499990 1.000000 0.589920 0.972217
Cu4   Cu    Cu3+1 0.499990 0.000000 0.410080 0.972222
H1    H     H_    0.282393 0.667497 0.579615 0.120603
H2    H     H_    0.284487 0.665081 0.429706 0.113140
H3    H     H_    0.282391 0.332506 0.420379 0.120604
H4    H     H_    0.284489 0.334924 0.570288 0.113140
H5    H     H_    0.782393 0.167497 0.579614 0.120603
H6    H     H_    0.784486 0.165083 0.429704 0.113140
H7    H     H_    0.782388 0.832504 0.420376 0.120603
H8    H     H_    0.784489 0.834926 0.570285 0.113140
H9    H     H_    0.841978 0.246058 0.583380 0.155597
H10   H     H_    0.841998 0.242636 0.410729 0.157822
H11   H     H_    0.841977 0.753946 0.416609 0.155598
H12   H     H_    0.842007 0.757377 0.589258 0.157822
H13   H     H_    0.341978 0.746057 0.583382 0.155597
H14   H     H_    0.342000 0.742633 0.410731 0.157822
H15   H     H_    0.341979 0.253947 0.416612 0.155598
H16   H     H_    0.342006 0.257375 0.589262 0.157821
H17   H     H_    0.787500 0.279544 0.345879 0.162675
H18   H     H_    0.787841 0.288419 0.642173 0.178606
H19   H     H_    0.787516 0.720468 0.654119 0.162673
H20   H     H_    0.787839 0.711581 0.357828 0.178610
H21   H     H_    0.287503 0.779541 0.345879 0.162677
H22   H     H_    0.287841 0.788418 0.642173 0.178607
H23   H     H_    0.287512 0.220466 0.654119 0.162674
H24   H     H_    0.287841 0.211583 0.357827 0.178608
H25   H     H_    0.136968 0.764426 0.548484 0.131544
H26   H     H_    0.145006 0.759234 0.434212 0.166895
H27   H     H_    0.136970 0.235572 0.451524 0.131544
H28   H     H_    0.145011 0.240766 0.565796 0.166895
H29   H     H_    0.636967 0.264426 0.548486 0.131544
H30   H     H_    0.645004 0.259235 0.434214 0.166894
H31   H     H_    0.636968 0.735570 0.451534 0.131540
H32   H     H_    0.645014 0.740766 0.565804 0.166898
H33   H     H_    0.007327 0.408611 0.068469 0.106242
H34   H     H_    0.009718 0.410158 0.926390 0.115404
H35   H     H_    0.007345 0.591391 0.931532 0.106244
H36   H     H_    0.009736 0.589843 0.073610 0.115404
H37   H     H_    0.507332 0.908610 0.068469 0.106243
H38   H     H_    0.509722 0.910157 0.926389 0.115403
H39   H     H_    0.507340 0.091391 0.931533 0.106245
H40   H     H_    0.509731 0.089843 0.073611 0.115405
H41   H     H_    0.094993 0.536582 0.080169 0.165849
H42   H     H_    0.093724 0.540102 0.922879 0.170011
H43   H     H_    0.094986 0.463404 0.919831 0.165850
H44   H     H_    0.093716 0.459884 0.077122 0.170013
H45   H     H_    0.594991 0.036587 0.080169 0.165848
H46   H     H_    0.593722 0.040105 0.922878 0.170011
H47   H     H_    0.594987 0.963408 0.919832 0.165850
H48   H     H_    0.593718 0.959889 0.077122 0.170014
N1    N     N_1   0.000150 0.500000 0.724970 -0.151173
N2    N     N_1   0.000150 0.500000 0.275030 -0.151173
N3    N     N_1   0.500150 0.000000 0.724970 -0.151173
N4    N     N_1   0.500150 1.000000 0.275030 -0.151172
O1    O     O_R   0.060270 0.439640 0.575970 -0.563455
O2    O     O_R   0.060270 0.439640 0.424030 -0.578076
O3    O     O_R   0.060270 0.560360 0.424030 -0.563455
O4    O     O_R   0.060270 0.560360 0.575970 -0.578080
O5    O     O_R   0.560270 0.939640 0.575970 -0.563457
O6    O     O_R   0.560270 0.939640 0.424030 -0.578075
O7    O     O_R   0.560270 0.060360 0.424030 -0.563455
O8    O     O_R   0.560270 0.060360 0.575970 -0.578080
O9    O     O_R   0.939710 0.439640 0.575970 -0.561821
O10   O     O_R   0.939710 0.439640 0.424030 -0.574654
O11   O     O_R   0.939710 0.560360 0.424030 -0.561824
O12   O     O_R   0.939710 0.560360 0.575970 -0.574657
O13   O     O_R   0.439710 0.939640 0.575970 -0.561821
O14   O     O_R   0.439710 0.939640 0.424030 -0.574654
O15   O     O_R   0.439710 0.060360 0.424030 -0.561824
O16   O     O_R   0.439710 0.060360 0.575970 -0.574656
C77   C     C_R   0.221030 0.685771 0.326807 0.140346
C78   C     C_R   0.221298 0.627403 0.297861 -0.143605
C79   C     C_R   0.191741 0.610871 0.217994 -0.117551
C80   C     C_R   0.161756 0.652275 0.165382 -0.118553
C81   C     C_R   0.161262 0.710242 0.192624 -0.141431
C82   C     C_R   0.190493 0.726903 0.272654 -0.161893
H49   H     H_    0.243776 0.594307 0.337826 0.108003
H50   H     H_    0.191992 0.565856 0.197017 0.120942
H51   H     H_    0.138904 0.639478 0.103547 0.102215
H52   H     H_    0.138091 0.742400 0.151737 0.125683
H53   H     H_    0.189098 0.771909 0.291208 0.151389
C83   C     C_R   0.225493 0.697599 0.682687 0.131972
C84   C     C_R   0.266756 0.693783 0.755725 -0.181534
C85   C     C_R   0.246599 0.684728 0.844536 -0.134205
C86   C     C_R   0.184868 0.678427 0.862296 -0.115487
C87   C     C_R   0.143226 0.681247 0.791248 -0.153938
C88   C     C_R   0.163081 0.690577 0.702254 -0.140131
H54   H     H_    0.315041 0.697846 0.743808 0.117987
H55   H     H_    0.278994 0.682328 0.899605 0.122383
H56   H     H_    0.169294 0.671262 0.931074 0.112879
H57   H     H_    0.095281 0.676325 0.805143 0.116303
H58   H     H_    0.128615 0.693360 0.650882 0.127455
C89   C     C_R   0.221036 0.314234 0.673192 0.140344
C90   C     C_R   0.221303 0.372602 0.702136 -0.143602
C91   C     C_R   0.191749 0.389135 0.782005 -0.117551
C92   C     C_R   0.161768 0.347730 0.834620 -0.118556
C93   C     C_R   0.161275 0.289763 0.807380 -0.141431
C94   C     C_R   0.190503 0.273102 0.727349 -0.161895
H59   H     H_    0.243779 0.405698 0.662168 0.108003
H60   H     H_    0.192000 0.434150 0.802981 0.120945
H61   H     H_    0.138918 0.360527 0.896457 0.102216
H62   H     H_    0.138106 0.257605 0.848270 0.125684
H63   H     H_    0.189108 0.228096 0.708796 0.151393
C95   C     C_R   0.225490 0.302400 0.317312 0.131972
C96   C     C_R   0.266751 0.306216 0.244272 -0.181538
C97   C     C_R   0.246591 0.315267 0.155461 -0.134204
C98   C     C_R   0.184859 0.321566 0.137704 -0.115490
C99   C     C_R   0.143220 0.318746 0.208754 -0.153937
C100  C     C_R   0.163076 0.309419 0.297748 -0.140129
H64   H     H_    0.315036 0.302154 0.256186 0.117987
H65   H     H_    0.278985 0.317667 0.100391 0.122384
H66   H     H_    0.169284 0.328729 0.068927 0.112877
H67   H     H_    0.095273 0.323667 0.194862 0.116305
H68   H     H_    0.128612 0.306636 0.349123 0.127454
C101  C     C_R   0.721028 0.185773 0.326807 0.140347
C102  C     C_R   0.721297 0.127405 0.297860 -0.143603
C103  C     C_R   0.691740 0.110873 0.217992 -0.117553
C104  C     C_R   0.661754 0.152278 0.165381 -0.118553
C105  C     C_R   0.661260 0.210245 0.192625 -0.141431
C106  C     C_R   0.690491 0.226905 0.272655 -0.161892
H69   H     H_    0.743775 0.094309 0.337824 0.108003
H70   H     H_    0.691992 0.065858 0.197014 0.120942
H71   H     H_    0.638902 0.139481 0.103547 0.102215
H72   H     H_    0.638088 0.242402 0.151739 0.125683
H73   H     H_    0.689095 0.271911 0.291210 0.151387
C107  C     C_R   0.725494 0.197599 0.682687 0.131972
C108  C     C_R   0.766757 0.193783 0.755724 -0.181532
C109  C     C_R   0.746601 0.184728 0.844536 -0.134206
C110  C     C_R   0.684870 0.178427 0.862296 -0.115486
C111  C     C_R   0.643228 0.181246 0.791249 -0.153938
C112  C     C_R   0.663081 0.190576 0.702255 -0.140132
H74   H     H_    0.815041 0.197847 0.743807 0.117986
H75   H     H_    0.778996 0.182329 0.899604 0.122382
H76   H     H_    0.669297 0.171261 0.931075 0.112880
H77   H     H_    0.595282 0.176323 0.805144 0.116303
H78   H     H_    0.628615 0.193358 0.650883 0.127455
C113  C     C_R   0.721038 0.814236 0.673192 0.140342
C114  C     C_R   0.721301 0.872605 0.702131 -0.143600
C115  C     C_R   0.691748 0.889138 0.782001 -0.117550
C116  C     C_R   0.661772 0.847733 0.834622 -0.118558
C117  C     C_R   0.661283 0.789765 0.807387 -0.141433
C118  C     C_R   0.690510 0.773104 0.727354 -0.161897
H79   H     H_    0.743772 0.905701 0.662158 0.108005
H80   H     H_    0.691995 0.934154 0.802972 0.120946
H81   H     H_    0.638924 0.860531 0.896459 0.102217
H82   H     H_    0.638119 0.757607 0.848281 0.125684
H83   H     H_    0.689118 0.728097 0.708805 0.151392
C119  C     C_R   0.725486 0.802397 0.317312 0.131977
C120  C     C_R   0.766745 0.806213 0.244271 -0.181542
C121  C     C_R   0.746584 0.815263 0.155461 -0.134204
C122  C     C_R   0.684852 0.821561 0.137706 -0.115491
C123  C     C_R   0.643213 0.818741 0.208758 -0.153937
C124  C     C_R   0.663072 0.809415 0.297751 -0.140126
H84   H     H_    0.815031 0.802153 0.256184 0.117987
H85   H     H_    0.778976 0.817664 0.100390 0.122386
H86   H     H_    0.669275 0.828724 0.068930 0.112875
H87   H     H_    0.595267 0.823660 0.194868 0.116305
H88   H     H_    0.628609 0.806631 0.349127 0.127452
C125  C     C_R   0.703996 0.360696 0.577613 0.111035
C126  C     C_R   0.723303 0.419082 0.570982 -0.134598
C127  C     C_R   0.712186 0.458552 0.640262 -0.147857
C128  C     C_R   0.683146 0.440764 0.719576 -0.115954
C129  C     C_R   0.665475 0.383192 0.729487 -0.154262
C130  C     C_R   0.675851 0.343521 0.659686 -0.180998
H89   H     H_    0.746413 0.434812 0.511071 0.123842
H90   H     H_    0.727822 0.502507 0.632425 0.150830
H91   H     H_    0.676007 0.470895 0.774637 0.120430
H92   H     H_    0.644154 0.369012 0.791871 0.128935
H93   H     H_    0.662344 0.299828 0.672710 0.144095
C131  C     C_R   0.690826 0.355331 0.411875 0.085068
C132  C     C_R   0.728510 0.378456 0.343448 -0.214257
C133  C     C_R   0.703261 0.407157 0.268643 -0.175096
C134  C     C_R   0.640753 0.414467 0.261324 -0.119050
C135  C     C_R   0.603137 0.395778 0.331099 -0.121395
C136  C     C_R   0.627873 0.367699 0.406307 -0.143487
H94   H     H_    0.777174 0.375723 0.347047 0.150431
H95   H     H_    0.732277 0.426346 0.218057 0.140693
H96   H     H_    0.621677 0.436553 0.203088 0.110350
H97   H     H_    0.554741 0.403197 0.327183 0.118409
H98   H     H_    0.597385 0.354060 0.459870 0.122447
C137  C     C_R   0.704003 0.639303 0.422405 0.111032
C138  C     C_R   0.675854 0.656474 0.340333 -0.180972
C139  C     C_R   0.665487 0.616803 0.270529 -0.154252
C140  C     C_R   0.683171 0.559234 0.280436 -0.115964
C141  C     C_R   0.712214 0.541450 0.359750 -0.147835
C142  C     C_R   0.723319 0.580919 0.429034 -0.134605
H99   H     H_    0.662338 0.700164 0.327311 0.144087
H100  H     H_    0.644163 0.630980 0.208145 0.128931
H101  H     H_    0.676041 0.529104 0.225371 0.120422
H102  H     H_    0.727863 0.497499 0.367582 0.150803
H103  H     H_    0.746432 0.565192 0.488945 0.123836
C143  C     C_R   0.690844 0.644672 0.588145 0.085061
C144  C     C_R   0.627891 0.632303 0.593728 -0.143495
C145  C     C_R   0.603163 0.604230 0.668947 -0.121397
C146  C     C_R   0.640787 0.585547 0.738717 -0.119090
C147  C     C_R   0.703294 0.592855 0.731382 -0.175102
C148  C     C_R   0.728535 0.621551 0.656567 -0.214253
H104  H     H_    0.597398 0.645939 0.540170 0.122446
H105  H     H_    0.554768 0.596812 0.672876 0.118414
H106  H     H_    0.621716 0.563466 0.796962 0.110350
H107  H     H_    0.732315 0.573667 0.781963 0.140712
H108  H     H_    0.777197 0.624285 0.652958 0.150441
C149  C     C_R   0.203998 0.860696 0.577610 0.111035
C150  C     C_R   0.175853 0.843522 0.659683 -0.180995
C151  C     C_R   0.165478 0.883193 0.729484 -0.154261
C152  C     C_R   0.183150 0.940765 0.719573 -0.115957
C153  C     C_R   0.212190 0.958552 0.640258 -0.147853
C154  C     C_R   0.223305 0.919082 0.570979 -0.134599
H109  H     H_    0.162345 0.799829 0.672707 0.144094
H110  H     H_    0.144156 0.869013 0.791869 0.128935
H111  H     H_    0.176011 0.970896 0.774634 0.120429
H112  H     H_    0.227827 0.002506 0.632421 0.150826
H113  H     H_    0.246416 0.934812 0.511067 0.123840
C155  C     C_R   0.190829 0.855330 0.411872 0.085066
C156  C     C_R   0.127876 0.867699 0.406301 -0.143490
C157  C     C_R   0.103141 0.895776 0.331092 -0.121396
C158  C     C_R   0.140759 0.914464 0.261317 -0.119059
C159  C     C_R   0.203266 0.907154 0.268638 -0.175100
C160  C     C_R   0.228514 0.878454 0.343445 -0.214256
H114  H     H_    0.097388 0.854060 0.459865 0.122447
H115  H     H_    0.054746 0.903195 0.327174 0.118410
H116  H     H_    0.121683 0.936549 0.203080 0.110350
H117  H     H_    0.232283 0.926344 0.218054 0.140696
H118  H     H_    0.277178 0.875721 0.347045 0.150433
C161  C     C_R   0.204003 0.139304 0.422399 0.111035
C162  C     C_R   0.223315 0.080919 0.429030 -0.134605
C163  C     C_R   0.212206 0.041450 0.359748 -0.147843
C164  C     C_R   0.183165 0.059235 0.280433 -0.115959
C165  C     C_R   0.165487 0.116805 0.270522 -0.154256
C166  C     C_R   0.175857 0.156476 0.340325 -0.180984
H119  H     H_    0.246426 0.065191 0.488942 0.123837
H120  H     H_    0.227850 0.997497 0.367583 0.150810
H121  H     H_    0.176032 0.029104 0.225369 0.120423
H122  H     H_    0.144165 0.130983 0.208138 0.128933
H123  H     H_    0.162345 0.200168 0.327301 0.144091
C167  C     C_R   0.190840 0.144673 0.588139 0.085060
C168  C     C_R   0.228529 0.121551 0.656562 -0.214254
C169  C     C_R   0.203286 0.092854 0.731376 -0.175098
C170  C     C_R   0.140779 0.085546 0.738706 -0.119084
C171  C     C_R   0.103157 0.104230 0.668935 -0.121398
C172  C     C_R   0.127888 0.132304 0.593718 -0.143495
H124  H     H_    0.277193 0.124284 0.652955 0.150440
H125  H     H_    0.232306 0.073666 0.781958 0.140708
H126  H     H_    0.121707 0.063464 0.796950 0.110351
H127  H     H_    0.054762 0.096812 0.672860 0.118414
H128  H     H_    0.097396 0.145940 0.540158 0.122447
C173  C     C_R   0.917169 0.583616 0.899299 0.082218
C174  C     C_R   0.857473 0.575630 0.930713 -0.115472
C175  C     C_R   0.810727 0.611875 0.901327 -0.151644
C176  C     C_R   0.821732 0.653955 0.835234 -0.134063
C177  C     C_R   0.879190 0.658760 0.796619 -0.130666
C178  C     C_R   0.926632 0.624137 0.828510 -0.147882
H129  H     H_    0.847410 0.544697 0.982858 0.128120
H130  H     H_    0.765928 0.607661 0.930645 0.123651
H131  H     H_    0.785507 0.682373 0.813331 0.133491
H132  H     H_    0.887504 0.690610 0.744010 0.122429
H133  H     H_    0.971534 0.630902 0.800612 0.114604
C179  C     C_R   0.920461 0.586518 0.103774 0.096806
C180  C     C_R   0.911203 0.646617 0.089989 -0.122198
C181  C     C_R   0.862374 0.675324 0.130279 -0.132173
C182  C     C_R   0.822875 0.644954 0.186786 -0.115090
C183  C     C_R   0.832909 0.586229 0.204172 -0.131479
C184  C     C_R   0.880894 0.557082 0.162879 -0.142442
H134  H     H_    0.941266 0.670994 0.046030 0.114589
H135  H     H_    0.855105 0.721057 0.117409 0.121325
H136  H     H_    0.784644 0.666935 0.217058 0.141265
H137  H     H_    0.803727 0.562818 0.249752 0.151273
H138  H     H_    0.886429 0.511952 0.178606 0.145165
C185  C     C_R   0.917150 0.416403 0.100695 0.082236
C186  C     C_R   0.857458 0.424416 0.069286 -0.115455
C187  C     C_R   0.810697 0.388184 0.098661 -0.151641
C188  C     C_R   0.821689 0.346088 0.164736 -0.134067
C189  C     C_R   0.879145 0.341255 0.203345 -0.130665
C190  C     C_R   0.926600 0.375867 0.171467 -0.147886
H139  H     H_    0.847407 0.455358 0.017150 0.128112
H140  H     H_    0.765900 0.392419 0.069348 0.123637
H141  H     H_    0.785453 0.317678 0.186630 0.133497
H142  H     H_    0.887449 0.309393 0.255939 0.122424
H143  H     H_    0.971500 0.369082 0.199359 0.114593
C191  C     C_R   0.920442 0.413502 0.896227 0.096824
C192  C     C_R   0.911173 0.353404 0.910007 -0.122198
C193  C     C_R   0.862341 0.324706 0.869709 -0.132183
C194  C     C_R   0.822850 0.355083 0.813200 -0.115068
C195  C     C_R   0.832893 0.413809 0.795825 -0.131468
C196  C     C_R   0.880882 0.442946 0.837125 -0.142447
H144  H     H_    0.941231 0.329021 0.953966 0.114587
H145  H     H_    0.855065 0.278973 0.882572 0.121333
H146  H     H_    0.784619 0.333109 0.782919 0.141279
H147  H     H_    0.803716 0.437227 0.750246 0.151258
H148  H     H_    0.886425 0.488076 0.821403 0.145165
C197  C     C_R   0.417165 0.083614 0.899298 0.082214
C198  C     C_R   0.357470 0.075626 0.930710 -0.115472
C199  C     C_R   0.310722 0.111869 0.901322 -0.151643
C200  C     C_R   0.321728 0.153950 0.835229 -0.134065
C201  C     C_R   0.379186 0.158756 0.796616 -0.130665
C202  C     C_R   0.426628 0.124134 0.828508 -0.147879
H149  H     H_    0.347406 0.044694 0.982856 0.128120
H150  H     H_    0.265923 0.107654 0.930639 0.123650
H151  H     H_    0.285502 0.182367 0.813325 0.133491
H152  H     H_    0.387500 0.190606 0.744007 0.122429
H153  H     H_    0.471530 0.130900 0.800612 0.114603
C203  C     C_R   0.420455 0.086513 0.103774 0.096803
C204  C     C_R   0.411194 0.146611 0.089990 -0.122200
C205  C     C_R   0.362364 0.175316 0.130282 -0.132179
C206  C     C_R   0.322869 0.144945 0.186792 -0.115087
C207  C     C_R   0.332906 0.086220 0.204177 -0.131473
C208  C     C_R   0.380891 0.057075 0.162881 -0.142446
H154  H     H_    0.441255 0.170990 0.046030 0.114592
H155  H     H_    0.355093 0.221049 0.117414 0.121329
H156  H     H_    0.284637 0.166923 0.217067 0.141270
H157  H     H_    0.303725 0.062807 0.249758 0.151271
H158  H     H_    0.386429 0.011946 0.178608 0.145166
C209  C     C_R   0.417154 0.916399 0.100694 0.082242
C210  C     C_R   0.357462 0.924413 0.069287 -0.115454
C211  C     C_R   0.310701 0.888180 0.098660 -0.151642
C212  C     C_R   0.321693 0.846082 0.164730 -0.134063
C213  C     C_R   0.379150 0.841245 0.203335 -0.130665
C214  C     C_R   0.426604 0.875859 0.171459 -0.147890
H159  H     H_    0.347412 0.955357 0.017154 0.128111
H160  H     H_    0.265903 0.892417 0.069348 0.123637
H161  H     H_    0.285457 0.817672 0.186622 0.133498
H162  H     H_    0.387454 0.809381 0.255925 0.122422
H163  H     H_    0.471505 0.869071 0.199349 0.114587
C215  C     C_R   0.420446 0.913498 0.896228 0.096826
C216  C     C_R   0.411179 0.853400 0.910008 -0.122194
C217  C     C_R   0.362347 0.824700 0.869712 -0.132179
C218  C     C_R   0.322854 0.855077 0.813205 -0.115071
C219  C     C_R   0.332895 0.913802 0.795828 -0.131470
C220  C     C_R   0.380883 0.942941 0.837126 -0.142445
H164  H     H_    0.441238 0.829018 0.953966 0.114586
H165  H     H_    0.355072 0.778967 0.882576 0.121331
H166  H     H_    0.284623 0.833101 0.782926 0.141276
H167  H     H_    0.303715 0.937219 0.750251 0.151261
H168  H     H_    0.386424 0.988071 0.821404 0.145165

loop_
_geom_bond_atom_site_label_1
_geom_bond_atom_site_label_2
_ccdc_geom_bond_type
C90   H59   S    
C72   H32   S    
C142  H103  S    
Cu4   N4    S    
C6    C58   T    
C19   C20   S    
C24   C27   S    
C41   C61   S    
C23   H38   S    
C180  C181  A    
C98   H66   S    
C150  C151  A    
C171  H127  S    
C152  C153  A    
C52   C95   S    
C70   H27   S    
C193  H145  S    
C44   H19   S    
C163  H120  S    
C25   C30   S    
C200  C201  A    
C147  C148  A    
C122  H86   S    
C9    C13   T    
C95   C96   A    
C213  C214  A    
C172  H128  S    
C11   C15   T    
C136  H98   S    
C12   C16   T    
C91   H60   S    
C145  C146  A    
C160  H118  S    
C124  H88   S    
C44   H12   S    
C25   C34   S    
Cu4   O14   S    
C21   C22   S    
C43   H11   S    
C155  C160  A    
C159  H117  S    
C7    C59   T    
C121  C122  A    
C55   C68   S    
C22   C197  S    
C37   O10   A    
C161  C166  A    
C134  C135  A    
C183  C184  A    
C42   H17   S    
C47   C64   S    
C71   C73   S    
C69   H25   S    
C189  H142  S    
C179  C180  A    
C50   C83   S    
C167  C168  A    
Cu2   O11   S    
C169  C170  A    
C51   C66   S    
C49   H2    S    
C96   C97   A    
C122  C123  A    
C14   C38   S    
C120  C121  A    
C68   C72   S    
C29   H42   S    
C39   O13   A    
C164  C165  A    
C3    O6    A    
Cu1   N1    S    
Cu2   O2    S    
C15   C39   S    
Cu3   O16   S    
C16   C40   S    
C125  C130  A    
C159  C160  A    
Cu3   O5    S    
C204  C205  A    
C206  C207  A    
C149  C154  A    
C80   H51   S    
C69   H26   S    
C47   H24   S    
C48   H16   S    
C40   O15   A    
C151  H110  S    
C45   H22   S    
C104  C105  A    
C18   H35   S    
C47   C52   S    
Cu4   O7    S    
C211  C212  A    
C146  H106  S    
C17   C25   S    
C148  H108  S    
C139  H100  S    
C218  C219  A    
C44   C55   S    
C134  H96   S    
C66   C70   S    
C45   C50   S    
C126  H89   S    
C186  C187  A    
C202  H153  S    
C188  C189  A    
C20   C185  S    
Cu1   O9    S    
C212  C213  A    
C103  C104  A    
C101  C102  A    
C192  C193  A    
C179  C184  A    
C99   C100  A    
C96   H64   S    
C144  C145  A    
C50   H1    S    
C135  C136  A    
C41   H9    S    
C194  H146  S    
C111  H77   S    
C38   O11   A    
C189  C190  A    
C31   H47   S    
C45   H13   S    
C198  C199  A    
C74   C143  S    
C2    C57   S    
C116  H81   S    
C132  C133  A    
C210  H159  S    
C9    C61   S    
C24   C209  S    
C11   C63   S    
C36   N4    T    
C42   C53   S    
C55   C113  S    
C20   H33   S    
C12   C64   S    
C54   C107  S    
C195  C196  A    
C181  H135  S    
C55   H8    S    
C97   C98   A    
C129  C130  A    
C156  H114  S    
C92   C93   A    
C185  C190  A    
C170  H126  S    
C28   C35   S    
C23   C24   S    
C192  H144  S    
C180  H134  S    
C21   C203  S    
C182  H136  S    
C150  H109  S    
C125  C126  A    
C123  C124  A    
C1    O1    A    
C193  C194  A    
C101  C106  A    
C110  C111  A    
C144  H104  S    
C46   H21   S    
C200  H151  S    
C147  H107  S    
C217  C218  A    
C10   C14   T    
C140  H101  S    
C131  C136  A    
C115  C116  A    
C56   C68   S    
C48   H23   S    
C166  H123  S    
C197  C202  A    
C42   H10   S    
C156  C157  A    
C213  H162  S    
C26   C33   S    
C31   C32   S    
C46   H14   S    
C177  H132  S    
Cu3   N3    S    
C17   C18   S    
C121  H85   S    
C105  H72   S    
C23   C28   S    
C100  H68   S    
C174  C175  A    
C199  H150  S    
C78   H49   S    
C183  H137  S    
C162  H119  S    
C154  H113  S    
C215  C216  A    
C167  C172  A    
C143  C144  A    
C143  C148  A    
C176  C177  A    
C140  C141  A    
C89   C94   A    
C2    O3    A    
C46   C63   S    
C178  H133  S    
C32   H48   S    
C86   H56   S    
Cu2   N2    S    
C157  H115  S    
C158  C159  A    
C70   H28   S    
C207  H157  S    
C4    O7    A    
C63   C75   S    
C188  H141  S    
Cu4   O6    S    
C128  C129  A    
Cu3   O8    S    
C76   C161  S    
C105  C106  A    
C53   C67   S    
C50   C65   S    
C7    C67   S    
C132  H94   S    
C76   C167  S    
C107  C108  A    
C119  C120  A    
C151  C152  A    
C78   C79   A    
C203  C204  A    
C104  H71   S    
C187  H140  S    
C137  C138  A    
C211  H160  S    
C205  C206  A    
C53   C101  S    
C127  C128  A    
C18   C26   S    
C84   C85   A    
C141  C142  A    
Cu1   Cu2   S    
C46   C49   S    
C24   H37   S    
C187  C188  A    
C37   O9    A    
C87   C88   A    
C103  H70   S    
C212  H161  S    
Cu2   O10   S    
C157  C158  A    
C48   C64   S    
C20   C25   S    
C199  C200  A    
C71   H30   S    
C196  H148  S    
C99   H67   S    
C19   C26   S    
C114  H79   S    
C216  C217  A    
C111  C112  A    
C107  C112  A    
C79   C80   A    
C3    O5    A    
Cu1   O4    S    
C29   C30   S    
Cu2   O3    S    
C198  H149  S    
C3    C60   S    
C102  C103  A    
C21   C27   S    
C72   H31   S    
C168  C169  A    
C22   C28   S    
C10   C62   S    
C135  H97   S    
C195  H147  S    
C22   H39   S    
C40   O16   A    
C129  H92   S    
C43   H20   S    
C72   C74   S    
C137  C142  A    
C185  C186  A    
C138  C139  A    
C19   H34   S    
C61   C73   S    
C133  C134  A    
C108  C109  A    
C165  C166  A    
C52   H3    S    
C77   C82   A    
C153  C154  A    
C182  C183  A    
C30   H41   S    
C168  H124  S    
C173  C178  A    
C83   C88   A    
C93   H62   S    
C152  H111  S    
C219  H167  S    
C217  H165  S    
C35   N3    T    
C117  C118  A    
C52   C66   S    
C131  C132  A    
C85   C86   A    
C33   N1    T    
C115  H80   S    
C126  C127  A    
C27   C32   S    
C109  C110  A    
C38   O12   A    
C28   C31   S    
C164  H121  S    
C210  C211  A    
C214  H163  S    
C184  H138  S    
C158  H116  S    
C49   C77   S    
C27   C36   S    
C112  H78   S    
C5    C57   T    
C141  H102  S    
C18   C173  S    
C175  C176  A    
C77   C78   A    
C8    C60   T    
C98   C99   A    
C139  C140  A    
C65   C69   S    
C29   H43   S    
C39   O14   A    
C69   C75   S    
C67   C71   S    
C173  C174  A    
C215  C220  A    
C82   H53   S    
C163  C164  A    
C106  H73   S    
C219  C220  A    
C62   C74   S    
C138  H99   S    
C1    C58   S    
C51   H4    S    
C17   C179  S    
C43   C62   S    
C89   C90   A    
C145  H105  S    
C177  C178  A    
C86   C87   A    
C113  C114  A    
C207  C208  A    
C209  C210  A    
Cu3   O13   S    
C73   C131  S    
C91   C92   A    
C176  H131  S    
C49   C65   S    
C205  H155  S    
C155  C156  A    
C165  H122  S    
C21   H40   S    
C218  H166  S    
C175  H130  S    
C119  C124  A    
C81   H52   S    
C94   H63   S    
C206  H156  S    
C109  H75   S    
Cu4   O15   S    
C93   C94   A    
C118  H83   S    
C53   H6    S    
C13   C37   S    
C84   H54   S    
C120  H84   S    
C117  H82   S    
C161  C162  A    
C190  H143  S    
C88   H58   S    
C87   H57   S    
C191  C192  A    
Cu1   O1    S    
C204  H154  S    
C186  H139  S    
C48   C51   S    
C209  C214  A    
C123  H87   S    
C114  C115  A    
C5    C65   S    
C85   H55   S    
C56   H7    S    
C54   C67   S    
C44   C62   S    
C149  C150  A    
C79   H50   S    
C153  H112  S    
C45   C63   S    
C2    O4    A    
Cu3   Cu4   S    
C32   H45   S    
C201  H152  S    
C73   C125  S    
C171  C172  A    
C4    O8    A    
C102  H69   S    
C146  C147  A    
C64   C76   S    
C191  C196  A    
C74   C137  S    
C220  H168  S    
C80   C81   A    
C42   C61   S    
C127  H90   S    
C108  H74   S    
C162  C163  A    
C30   H44   S    
C8    C68   S    
C113  C118  A    
C70   C76   S    
C110  H76   S    
C19   C191  S    
C1    O2    A    
C90   C91   A    
C197  C198  A    
C133  H95   S    
C75   C155  S    
C41   H18   S    
C169  H125  S    
C54   H5    S    
C194  C195  A    
C75   C149  S    
C130  H93   S    
C56   C119  S    
C83   C84   A    
C51   C89   S    
Cu1   O12   S    
C201  C202  A    
C116  C117  A    
C128  H91   S    
C71   H29   S    
C4    C59   S    
C203  C208  A    
C95   C100  A    
C170  C171  A    
C23   C215  S    
C41   C54   S    
C208  H158  S    
C43   C56   S    
C6    C66   S    
C34   N2    T    
C26   C29   S    
C181  C182  A    
C216  H164  S    
C174  H129  S    
C47   H15   S    
C97   H65   S    
C31   H46   S    
C81   C82   A    
C92   H61   S    
C17   H36   S    
