data_mof_unit_5708.cif
_audit_creation_date              2013-03-05T16:34:12-0500
_audit_creation_method            fapswitch 2.2
_symmetry_space_group_name_H-M    P1
_symmetry_Int_Tables_number       1
_space_group_crystal_system       triclinic
_cell_length_a                    10.852359
_cell_length_b                    10.788562
_cell_length_c                    9.594289
_cell_angle_alpha                 90.034438
_cell_angle_beta                  89.433222
_cell_angle_gamma                 90.70202
_cell_volume                      1123.17288539

loop_
_atom_site_label
_atom_site_type_symbol
_atom_site_description
_atom_site_fract_x
_atom_site_fract_y
_atom_site_fract_z
_atom_type_partial_charge
O1    O     O_R   0.500000 0.319640 0.618810 -0.586289
O2    O     O_R   0.500010 0.319680 0.381230 -0.579272
C1    C     C_R   0.500133 0.262739 0.499792 0.822852
O3    O     O_R   0.319640 0.499990 0.618790 -0.597461
O4    O     O_R   0.319650 0.500030 0.381210 -0.558042
C2    C     C_R   0.262072 0.501398 0.500088 0.817944
Cu1   Cu    Cu3+1 0.499990 0.499980 0.640670 0.945025
Cu2   Cu    Cu3+1 0.500010 0.500020 0.359330 0.976851
O5    O     O_R   0.499990 0.680320 0.618770 -0.584642
O6    O     O_R   0.500000 0.680360 0.381190 -0.582279
O7    O     O_R   0.680350 0.499970 0.618790 -0.575143
O8    O     O_R   0.680360 0.500010 0.381210 -0.579533
C3    C     C_R   0.499462 0.737407 0.499857 0.793133
C4    C     C_R   0.737187 0.488681 0.498965 0.801840
H1    H     H_    0.251582 0.731590 0.911525 0.145328
C5    C     C_R   0.187927 0.758008 0.122087 -0.109494
H2    H     H_    0.201498 0.857558 0.119777 0.159728
C6    C     C_R   0.140586 0.700732 0.241791 -0.188334
H3    H     H_    0.116425 0.757289 0.331095 0.137503
C7    C     C_R   0.122644 0.571626 0.246133 0.045364
C8    C     C_R   0.156000 0.498645 0.128352 0.426417
C9    C     C_R   0.199199 0.558986 0.007202 -0.205490
H4    H     H_    0.222566 0.506381 0.914868 0.172101
C10   C     C_R   0.215860 0.687310 0.004645 -0.194233
C11   C     C_R   0.936483 0.491150 0.369593 -0.055038
C12   C     C_R   0.871792 0.472342 0.494850 -0.163287
C13   C     C_R   0.936469 0.431413 0.611638 -0.003987
C14   C     C_R   0.064253 0.445420 0.614119 -0.214029
H5    H     H_    0.114352 0.412057 0.703494 0.175635
C15   C     C_R   0.127485 0.495170 0.497994 -0.084903
C16   C     C_R   0.062576 0.517954 0.373089 -0.013223
C17   C     C_R   0.831353 0.394612 0.839156 -0.023580
H6    H     H_    0.857227 0.487281 0.870864 0.152964
C18   C     C_R   0.748478 0.324520 0.919702 -0.099419
H7    H     H_    0.709265 0.363877 0.013309 0.160160
C19   C     C_R   0.714337 0.204768 0.878686 -0.143703
H8    H     H_    0.651174 0.150532 0.942663 0.117300
C20   C     C_R   0.760232 0.156172 0.753964 -0.123349
H9    H     H_    0.732291 0.064233 0.720642 0.136414
C21   C     C_R   0.838629 0.228354 0.669790 -0.131560
H10   H     H_    0.868858 0.192450 0.569836 0.156766
C22   C     C_R   0.873881 0.348412 0.712071 0.108935
C23   C     C_R   0.414280 0.063249 0.580814 0.130888
C24   C     C_R   0.497024 0.129611 0.496830 -0.083378
C25   C     C_R   0.568148 0.065625 0.397953 -0.212787
H11   H     H_    0.628164 0.115270 0.325690 0.173300
C26   C     C_R   0.568392 0.936293 0.398813 -0.218353
H12   H     H_    0.629861 0.888068 0.328578 0.149826
C27   C     C_R   0.496097 0.870773 0.496938 -0.086098
C28   C     C_R   0.412720 0.935805 0.579930 0.111639
C29   C     C_3   0.382231 0.928897 0.731727 -0.482008
C30   C     C_3   0.386309 0.069839 0.733046 -0.463689
H13   H     H_    0.288054 0.890597 0.750215 0.195639
H14   H     H_    0.455882 0.886591 0.794383 0.198705
H15   H     H_    0.295237 0.112066 0.755083 0.218429
H16   H     H_    0.464462 0.108141 0.793985 0.194817
C31   C     C_R   0.522990 0.606680 0.073020 0.275930
N1    N     N_R   0.500790 0.500930 0.147930 -0.197164
C32   C     C_R   0.461316 0.399045 0.074619 -0.073468
H17   H     H_    0.431860 0.316257 0.129478 0.180382
C33   C     C_R   0.460575 0.399357 0.926191 -0.089493
H18   H     H_    0.429915 0.317225 0.871896 0.159292
N2    N     N_R   0.500790 0.500890 0.852020 -0.191532
C34   C     C_R   0.523748 0.606455 0.926333 0.247061
C35   C     C_3   0.636812 0.686082 0.919645 -0.487155
C36   C     C_3   0.634994 0.687638 0.078035 -0.496942
H19   H     H_    0.717016 0.637913 0.873923 0.215022
H20   H     H_    0.619834 0.778469 0.873663 0.185044
H21   H     H_    0.714775 0.641512 0.125859 0.248230
H22   H     H_    0.614058 0.780638 0.120793 0.187719
N3    N     N_R   0.146088 0.365213 0.129315 0.100576
O9    O     O_R   0.154687 0.303124 0.244962 -0.371210
O10   O     O_R   0.138442 0.304176 0.012575 -0.402922
C37   C     C_2   0.886699 0.432924 0.243076 0.916937
O11   O     O_2   0.886685 0.488577 0.132516 -0.665331
O12   O     O_R   0.846565 0.309414 0.251916 -0.758101
H23   H     H_    0.839073 0.267151 0.158532 0.334221

loop_
_geom_bond_atom_site_label_1
_geom_bond_atom_site_label_2
_geom_bond_distance
_ccdc_geom_bond_type
C11   C16   1.395881 A    
C31   C36   1.489200 S    
Cu1   Cu2   2.699254 S    
C26   C27   1.405034 A    
C25   H11   1.083851 S    
Cu1   O7    1.966492 S    
C14   H5    1.083901 S    
C12   C13   1.402461 A    
C37   O12   1.399153 S    
C8    N3    1.442268 S    
O4    C2    1.295235 A    
C19   H8    1.082261 S    
C18   H7    1.079056 S    
C15   C16   1.419158 A    
O7    C4    1.305609 A    
C23   C30   1.490659 S    
C36   H21   1.107463 S    
C11   C37   1.470930 S    
C33   N2    1.371070 A    
O5    C3    1.296927 A    
Cu2   N1    2.028197 S    
C5    H2    1.082478 S    
C35   H19   1.106058 S    
C6    C7    1.404633 A    
C30   H15   1.111691 S    
C21   C22   1.406726 A    
C32   H17   1.080365 S    
C5    C10   1.393252 A    
C8    C9    1.406156 A    
O3    Cu1   1.970512 S    
C25   C26   1.395365 A    
C20   H9    1.082664 S    
C1    C24   1.436510 S    
C32   C33   1.424172 A    
C37   O11   1.219198 D    
C29   C30   1.520713 S    
O12   H23   1.008607 S    
O3    C2    1.304560 A    
N3    O10   1.301768 A    
C6    H3    1.083526 S    
C11   C12   1.399416 A    
C29   H13   1.110366 S    
C17   C18   1.395783 A    
C23   C24   1.392413 A    
C26   H12   1.081187 S    
Cu2   O8    1.970513 S    
C35   H20   1.108454 S    
C28   C29   1.492011 S    
C4    C12   1.473656 S    
Cu1   N2    2.027876 S    
C3    C27   1.440041 S    
Cu2   O6    1.956757 S    
C21   H10   1.083403 S    
C2    C15   1.461646 S    
O8    C4    1.299021 A    
C35   C36   1.519658 S    
C9    C10   1.394180 A    
C24   C25   1.403580 A    
C31   C34   1.407300 A    
Cu1   O5    1.957046 S    
H1    C10   1.079740 S    
O1    Cu1   1.956757 S    
O2    Cu2   1.957049 S    
O6    C3    1.293900 A    
O4    Cu2   1.966492 S    
C23   C28   1.374856 A    
C29   H14   1.107854 S    
C17   H6    1.079518 S    
C14   C15   1.405998 A    
O2    C1    1.293141 A    
N1    C32   1.371110 A    
N3    O9    1.301145 A    
C34   C35   1.490081 S    
C20   C21   1.397650 A    
C13   C22   1.471360 S    
C31   N1    1.366398 A    
C36   H22   1.108984 S    
C19   C20   1.395959 A    
C18   C19   1.397075 A    
C33   H18   1.078368 S    
N2    C34   1.364942 A    
C7    C8    1.423296 A    
C5    C6    1.395048 A    
C27   C28   1.394848 A    
C13   C14   1.393558 A    
C17   C22   1.393513 A    
C9    H4    1.081508 S    
O1    C1    1.296116 A    
C30   H16   1.110347 S    
C7    C16   1.489898 S    
