data_mof_unit_66486.cif
_audit_creation_date              2013-03-05T16:13:52-0500
_audit_creation_method            fapswitch 2.2
_symmetry_space_group_name_H-M    P1
_symmetry_Int_Tables_number       1
_space_group_crystal_system       triclinic
_cell_length_a                    43.866404
_cell_length_b                    30.292812
_cell_length_c                    31.871799
_cell_angle_alpha                 90.002104
_cell_angle_beta                  136.390744
_cell_angle_gamma                 89.999812
_cell_volume                      29212.0089073

loop_
_atom_site_label
_atom_site_type_symbol
_atom_site_description
_atom_site_fract_x
_atom_site_fract_y
_atom_site_fract_z
_atom_type_partial_charge
O1    O     O_R   0.565460 0.963010 0.065460 -0.617360
O2    O     O_R   0.434540 0.963010 0.934540 -0.616949
O3    O     O_R   0.065460 0.463010 0.065460 -0.617134
O4    O     O_R   0.934540 0.463010 0.934540 -0.617130
O5    O     O_R   0.565400 0.036920 0.065400 -0.585579
O6    O     O_R   0.434600 0.036920 0.934600 -0.585718
O7    O     O_R   0.065400 0.536920 0.065400 -0.585552
O8    O     O_R   0.934600 0.536920 0.934600 -0.585889
C1    C     C_R   0.586129 0.999985 0.086959 0.958177
C2    C     C_R   0.413873 0.999982 0.913055 0.959311
C3    C     C_R   0.086128 0.499984 0.086952 0.959111
C4    C     C_R   0.913873 0.499982 0.913054 0.958797
O9    O     O_R   0.499990 0.963010 0.061610 -0.621648
O10   O     O_R   0.500010 0.963010 0.938390 -0.621144
O11   O     O_R   0.999990 0.463010 0.061610 -0.621216
O12   O     O_R   0.000010 0.463010 0.938390 -0.621751
O13   O     O_R   0.499940 0.036920 0.061550 -0.573750
O14   O     O_R   0.500060 0.036920 0.938450 -0.573833
O15   O     O_R   0.999940 0.536920 0.061550 -0.573831
O16   O     O_R   0.000060 0.536920 0.938450 -0.573804
C5    C     C_R   0.499921 0.999967 0.081124 0.905397
C6    C     C_R   0.500088 0.999965 0.918885 0.906038
C7    C     C_R   0.999915 0.499967 0.081118 0.905683
C8    C     C_R   0.000086 0.499965 0.918883 0.906241
Zn1   Zn    Zn3+2 0.500000 0.950610 0.000000 1.060010
Zn2   Zn    Zn3+2 0.000000 0.450610 0.000000 1.059887
Zn3   Zn    Zn3+2 0.500000 0.049320 0.000000 1.156468
Zn4   Zn    Zn3+2 0.000000 0.549320 0.000000 1.156170
C9    C     C_3   0.521491 0.964284 0.285031 0.290476
C10   C     C_3   0.480078 0.963398 0.716533 0.290440
C11   C     C_3   0.020075 0.463487 0.283616 0.290439
C12   C     C_3   0.978173 0.464477 0.714630 0.290507
C13   C     C_3   0.542171 0.000157 0.278369 0.223644
C14   C     C_3   0.457860 0.998339 0.721666 0.224030
C15   C     C_3   0.042147 0.498522 0.278341 0.224016
C16   C     C_3   0.957837 0.500543 0.721637 0.223478
H1    H     H_    0.539540 0.066622 0.315553 0.216538
H2    H     H_    0.457592 0.064854 0.681596 0.216504
H3    H     H_    0.042136 0.565037 0.318140 0.216508
H4    H     H_    0.961104 0.566982 0.685095 0.216552
C17   C     C_1   0.500203 0.999978 0.125776 -0.054524
C18   C     C_1   0.499806 0.999972 0.874233 -0.053966
C19   C     C_1   0.000196 0.499977 0.125770 -0.054179
C20   C     C_1   0.999803 0.499972 0.874230 -0.054153
C21   C     C_1   0.500275 0.999926 0.374676 -0.107307
C22   C     C_1   0.499723 0.999920 0.625322 -0.107384
C23   C     C_1   0.000277 0.499922 0.374677 -0.107363
C24   C     C_1   0.999726 0.499925 0.625325 -0.107274
C25   C     C_3   0.479762 0.963523 0.215603 -0.298447
C26   C     C_3   0.521804 0.964453 0.785953 -0.298897
C27   C     C_3   0.978346 0.464365 0.214192 -0.298845
C28   C     C_3   0.019892 0.463319 0.784049 -0.298387
C29   C     C_3   0.500938 0.000115 0.209332 -0.072400
C30   C     C_3   0.499059 0.000090 0.790665 -0.072351
C31   C     C_3   0.000942 0.500099 0.209336 -0.072345
C32   C     C_3   0.999066 0.500109 0.790672 -0.072447
C33   C     C_3   0.458767 0.999898 0.223189 -0.223334
C34   C     C_3   0.541193 0.001706 0.776768 -0.223488
C35   C     C_3   0.958800 0.501535 0.223225 -0.223452
C36   C     C_3   0.041234 0.499495 0.776813 -0.223307
C37   C     C_3   0.501027 0.999904 0.292630 -0.018186
C38   C     C_3   0.498970 0.999874 0.707367 -0.018175
C39   C     C_3   0.001030 0.499881 0.292633 -0.018187
C40   C     C_3   0.998977 0.499903 0.707374 -0.018179
C41   C     C_3   0.480558 0.035595 0.217341 0.331080
C42   C     C_3   0.517872 0.036422 0.781095 0.331002
C43   C     C_3   0.981976 0.536351 0.218756 0.331018
C44   C     C_3   0.019785 0.535396 0.783005 0.331095
C45   C     C_3   0.522319 0.036648 0.286800 -0.295089
C46   C     C_3   0.476102 0.035658 0.711631 -0.294870
C47   C     C_3   0.023748 0.535763 0.288224 -0.294907
C48   C     C_3   0.978037 0.536846 0.713558 -0.295100
C49   C     C_1   0.500528 0.000030 0.163542 0.146992
C50   C     C_1   0.499477 0.000017 0.836463 0.147112
C51   C     C_1   0.000525 0.500025 0.163539 0.147107
C52   C     C_1   0.999476 0.500022 0.836462 0.146928
C53   C     C_1   0.500595 0.999914 0.337550 0.112395
C54   C     C_1   0.499402 0.999898 0.662447 0.112372
C55   C     C_1   0.000598 0.499902 0.337553 0.112383
C56   C     C_1   0.999408 0.499912 0.662452 0.112399
H5    H     H_    0.424253 0.000606 0.200590 0.199973
H6    H     H_    0.575642 0.003914 0.799298 0.199883
H7    H     H_    0.924342 0.503597 0.200685 0.199905
H8    H     H_    0.075754 0.499877 0.799418 0.199986
H9    H     H_    0.462915 0.933408 0.187061 0.210999
H10   H     H_    0.539947 0.935099 0.815784 0.210865
H11   H     H_    0.960325 0.434936 0.184481 0.210884
H12   H     H_    0.036450 0.433046 0.812300 0.211004
C57   C     C_R   0.703275 0.029127 0.231777 0.395025
C58   C     C_R   0.296732 0.028806 0.767948 0.395209
C59   C     C_R   0.203272 0.528946 0.231941 0.395153
C60   C     C_R   0.796728 0.528804 0.767947 0.395214
C61   C     C_R   0.657057 0.029747 0.185368 0.276257
C62   C     C_R   0.342956 0.029425 0.814345 0.276224
C63   C     C_R   0.157050 0.529567 0.185537 0.276340
C64   C     C_R   0.842952 0.529433 0.814348 0.275802
C65   C     C_R   0.633997 0.999869 0.136554 -0.328875
C66   C     C_R   0.366010 0.999856 0.863472 -0.328378
C67   C     C_R   0.133993 0.499863 0.136543 -0.328536
C68   C     C_R   0.866009 0.499856 0.863469 -0.328524
C69   C     C_R   0.656631 0.969661 0.134040 -0.211729
C70   C     C_R   0.343380 0.969947 0.866311 -0.211527
C71   C     C_R   0.156624 0.469821 0.133846 -0.211346
C72   C     C_R   0.843382 0.469933 0.866297 -0.211991
H13   H     H_    0.638551 0.946981 0.096055 0.206952
H14   H     H_    0.361468 0.947503 0.904534 0.206582
H15   H     H_    0.138539 0.447274 0.095725 0.206753
H16   H     H_    0.861471 0.447483 0.904515 0.206557
C73   C     C_R   0.702344 0.968955 0.178741 0.484296
C74   C     C_R   0.297666 0.969245 0.821615 0.484737
C75   C     C_R   0.202338 0.469116 0.178546 0.484649
C76   C     C_R   0.797667 0.469225 0.821600 0.484570
C77   C     C_R   0.725968 0.998672 0.228256 -0.191224
C78   C     C_R   0.274041 0.998659 0.771795 -0.191339
C79   C     C_R   0.225963 0.498663 0.228235 -0.191285
C80   C     C_R   0.774040 0.498645 0.771787 -0.191348
C81   C     C_R   0.797630 0.965109 0.322471 0.492511
C82   C     C_R   0.202378 0.964959 0.677746 0.492595
C83   C     C_R   0.297626 0.465024 0.322352 0.492510
C84   C     C_R   0.702374 0.464950 0.677738 0.492600
C85   C     C_R   0.843614 0.964894 0.366345 0.408751
C86   C     C_R   0.156389 0.964777 0.633828 0.408836
C87   C     C_R   0.343612 0.464827 0.366248 0.408822
C88   C     C_R   0.656385 0.464771 0.633822 0.408837
C89   C     C_R   0.865900 0.998784 0.366224 -0.371980
C90   C     C_R   0.134102 0.998786 0.633783 -0.371844
C91   C     C_R   0.365899 0.498784 0.366221 -0.371923
C92   C     C_R   0.634101 0.498781 0.633783 -0.371820
C93   C     C_R   0.841772 0.031735 0.320514 0.432301
C94   C     C_R   0.158228 0.031843 0.679353 0.432349
C95   C     C_R   0.341772 0.531795 0.320592 0.432319
C96   C     C_R   0.658231 0.531834 0.679357 0.432362
C97   C     C_R   0.796072 0.029924 0.275332 -0.156346
C98   C     C_R   0.203930 0.030033 0.724549 -0.156062
C99   C     C_R   0.296071 0.529985 0.275405 -0.156000
C100  C     C_R   0.703933 0.530020 0.724551 -0.156197
H17   H     H_    0.777418 0.054794 0.239843 0.220311
H18   H     H_    0.222583 0.054996 0.759916 0.220365
H19   H     H_    0.277417 0.554907 0.239987 0.220427
H20   H     H_    0.722589 0.554982 0.759921 0.220249
C101  C     C_R   0.774041 0.997584 0.276398 -0.262872
C102  C     C_R   0.225964 0.997559 0.723660 -0.263088
C103  C     C_R   0.274038 0.497569 0.276372 -0.263054
C104  C     C_R   0.725964 0.497547 0.723656 -0.263019
O17   O     O_R   0.536910 0.934410 0.536900 -0.591324
O18   O     O_R   0.463090 0.934410 0.463100 -0.591611
O19   O     O_R   0.036910 0.434410 0.536900 -0.591624
O20   O     O_R   0.963090 0.434410 0.463100 -0.591303
C105  C     C_R   0.499999 0.913742 0.500000 0.838096
C106  C     C_R   0.999999 0.413742 0.499999 0.838023
O21   O     O_R   0.536920 0.999880 0.475310 -0.596934
O22   O     O_R   0.463080 0.999880 0.524690 -0.597476
O23   O     O_R   0.036920 0.499880 0.475310 -0.597422
O24   O     O_R   0.963080 0.499880 0.524690 -0.596805
O25   O     O_R   0.463000 0.999950 0.401380 -0.608439
O26   O     O_R   0.537000 0.999950 0.598620 -0.608312
O27   O     O_R   0.963000 0.499950 0.401380 -0.608323
O28   O     O_R   0.037000 0.499950 0.598620 -0.608472
C107  C     C_R   0.500042 0.999920 0.418822 0.880784
C108  C     C_R   0.499958 0.999920 0.581178 0.880980
C109  C     C_R   0.000042 0.499920 0.418822 0.880941
C110  C     C_R   0.999958 0.499919 0.581178 0.880720
Zn5   Zn    Zn3+2 0.549320 0.999860 0.549320 1.068659
Zn6   Zn    Zn3+2 0.450680 0.999860 0.450680 1.068139
Zn7   Zn    Zn3+2 0.049320 0.499860 0.549320 1.068195
Zn8   Zn    Zn3+2 0.950680 0.499860 0.450680 1.068818
O29   O     O_R   0.536940 0.065340 0.536940 -0.620438
O30   O     O_R   0.463060 0.065340 0.463060 -0.620413
O31   O     O_R   0.036940 0.565340 0.536940 -0.620402
O32   O     O_R   0.963060 0.565340 0.463060 -0.620417
C111  C     C_R   0.500001 0.086190 0.500000 0.921592
C112  C     C_R   0.000001 0.586190 0.500000 0.921585
O33   O     O_R   0.999920 0.065420 0.534690 -0.614937
O34   O     O_R   0.000080 0.065420 0.465310 -0.614923
O35   O     O_R   0.499920 0.565420 0.534690 -0.614915
O36   O     O_R   0.500080 0.565420 0.465310 -0.614920
C113  C     C_R   1.000000 0.086328 0.500000 0.889822
C114  C     C_R   0.500000 0.586328 0.500000 0.889812
O37   O     O_R   0.934500 0.999950 0.469270 -0.591273
O38   O     O_R   0.065500 0.999950 0.530730 -0.591334
O39   O     O_R   0.434500 0.499950 0.469270 -0.591301
O40   O     O_R   0.565500 0.499950 0.530730 -0.591314
O41   O     O_R   0.934490 0.999950 0.399700 -0.598027
O42   O     O_R   0.065510 0.999950 0.600300 -0.598063
O43   O     O_R   0.434490 0.499950 0.399700 -0.598031
O44   O     O_R   0.565510 0.499950 0.600300 -0.598086
C115  C     C_R   0.913736 0.999895 0.413799 0.863790
C116  C     C_R   0.086265 0.999897 0.586202 0.863653
C117  C     C_R   0.413736 0.499896 0.413798 0.863717
C118  C     C_R   0.586264 0.499896 0.586202 0.863641
Zn9   Zn    Zn3+2 0.999970 0.999950 0.546410 1.068474
Zn10  Zn    Zn3+2 0.000030 0.999950 0.453590 1.068468
Zn11  Zn    Zn3+2 0.499970 0.499950 0.546410 1.068481
Zn12  Zn    Zn3+2 0.500030 0.499950 0.453590 1.068505
O45   O     O_R   0.000010 0.934490 0.534800 -0.616737
O46   O     O_R   0.999990 0.934490 0.465200 -0.616726
O47   O     O_R   0.500010 0.434490 0.534800 -0.616728
O48   O     O_R   0.499990 0.434490 0.465200 -0.616724
C119  C     C_R   0.000000 0.913539 0.499999 0.893308
C120  C     C_R   0.500000 0.413539 0.500000 0.893280
C121  C     C_R   0.474573 0.796835 0.504081 -0.032891
C122  C     C_R   0.525421 0.796831 0.495924 -0.033125
C123  C     C_R   0.974571 0.296833 0.504069 -0.033173
C124  C     C_R   0.025424 0.296833 0.495924 -0.032934
H21   H     H_    0.455155 0.778776 0.507590 0.189855
H22   H     H_    0.544839 0.778769 0.492416 0.189753
H23   H     H_    0.955150 0.278773 0.507573 0.189722
H24   H     H_    0.044845 0.278772 0.492419 0.189838
C125  C     C_R   0.475156 0.842595 0.505874 0.429816
C126  C     C_R   0.524841 0.842591 0.494131 0.429476
C127  C     C_R   0.975151 0.342593 0.505861 0.429403
C128  C     C_R   0.024842 0.342592 0.494129 0.429777
C129  C     C_R   0.499998 0.865904 0.500001 -0.291656
C130  C     C_R   0.999997 0.365904 0.499996 -0.291612
C131  C     C_R   0.499996 0.774137 0.500002 -0.022035
C132  C     C_R   0.999998 0.274137 0.499998 -0.021973
C133  C     C_R   0.982943 0.203012 0.447964 0.302392
C134  C     C_R   0.017054 0.203016 0.552034 0.302574
C135  C     C_R   0.482937 0.703013 0.447964 0.302535
C136  C     C_R   0.517052 0.703015 0.552037 0.302392
C137  C     C_R   0.984102 0.157075 0.449242 -0.216889
C138  C     C_R   0.015895 0.157080 0.550758 -0.216829
C139  C     C_R   0.484097 0.657077 0.449240 -0.216830
C140  C     C_R   0.515895 0.657079 0.550760 -0.216798
H25   H     H_    0.971026 0.139069 0.409580 0.210907
H26   H     H_    0.028971 0.139077 0.590420 0.210929
H27   H     H_    0.471020 0.639071 0.409578 0.210930
H28   H     H_    0.528974 0.639075 0.590423 0.210919
C141  C     C_R   0.999999 0.134225 0.500000 -0.155612
C142  C     C_R   0.499998 0.634225 0.500000 -0.155607
C143  C     C_R   0.999999 0.226121 0.499999 -0.125153
C144  C     C_R   0.499994 0.726121 0.500000 -0.125145
C145  C     C_R   0.459986 0.203223 0.454399 0.477437
C146  C     C_R   0.540023 0.203224 0.545602 0.477462
C147  C     C_R   0.959986 0.703223 0.454399 0.477443
C148  C     C_R   0.040024 0.703224 0.545599 0.477450
C149  C     C_R   0.460272 0.157159 0.454798 -0.269189
C150  C     C_R   0.539734 0.157161 0.545203 -0.269184
C151  C     C_R   0.960272 0.657159 0.454799 -0.269148
C152  C     C_R   0.039735 0.657161 0.545200 -0.269186
H29   H     H_    0.429558 0.139379 0.419763 0.178875
H30   H     H_    0.570447 0.139381 0.580238 0.178848
H31   H     H_    0.929557 0.639379 0.419765 0.178870
H32   H     H_    0.070448 0.639381 0.580234 0.178898
C153  C     C_R   0.500002 0.134184 0.500000 -0.122804
C154  C     C_R   0.000002 0.634184 0.500000 -0.122824
C155  C     C_R   0.500005 0.225808 0.500000 0.086770
C156  C     C_R   0.000006 0.725808 0.499999 0.086769
C157  C     C_R   0.003977 0.796707 0.542394 0.333031
C158  C     C_R   0.996035 0.796706 0.457608 0.332924
C159  C     C_R   0.503975 0.296707 0.542393 0.332908
C160  C     C_R   0.496036 0.296705 0.457610 0.333020
C161  C     C_R   0.004394 0.842620 0.542198 -0.218108
C162  C     C_R   0.995614 0.842619 0.457804 -0.218073
C163  C     C_R   0.504392 0.342620 0.542196 -0.218050
C164  C     C_R   0.495616 0.342619 0.457805 -0.218053
H33   H     H_    0.007487 0.860465 0.574588 0.215252
H34   H     H_    0.992520 0.860464 0.425413 0.215250
H35   H     H_    0.507484 0.360466 0.574585 0.215254
H36   H     H_    0.492523 0.360463 0.425416 0.215249
C165  C     C_R   0.000003 0.865550 0.500000 -0.160714
C166  C     C_R   0.500002 0.365550 0.500000 -0.160696
C167  C     C_R   0.000007 0.773741 0.500001 -0.042244
C168  C     C_R   0.500006 0.273741 0.500002 -0.042244
N1    N     N_R   0.587979 0.999548 0.309905 0.253453
O49   O     O_R   0.619786 0.999479 0.369034 -0.284685
O50   O     O_R   0.597392 0.999299 0.279481 -0.297175
N2    N     N_R   0.412124 0.995742 0.690209 0.253551
O51   O     O_R   0.380346 0.994277 0.631114 -0.284704
O52   O     O_R   0.402736 0.995118 0.720659 -0.298263
N3    N     N_R   0.087894 0.496120 0.309809 0.253542
O53   O     O_R   0.119677 0.494789 0.368910 -0.284710
O54   O     O_R   0.097285 0.495538 0.279362 -0.298433
N4    N     N_R   0.912024 0.500364 0.690094 0.253428
O55   O     O_R   0.880219 0.500605 0.630966 -0.284603
O56   O     O_R   0.902606 0.500184 0.720512 -0.296021
O57   O     O_3   0.722142 0.938762 0.171867 -0.705780
H37   H     H_    0.754476 0.943255 0.203393 0.359135
O58   O     O_3   0.277869 0.939350 0.828793 -0.705718
H38   H     H_    0.245524 0.943777 0.797135 0.359170
O59   O     O_3   0.222133 0.439088 0.171500 -0.705653
H39   H     H_    0.254474 0.443542 0.203103 0.359176
O60   O     O_3   0.777874 0.439319 0.828772 -0.705910
H40   H     H_    0.745528 0.443740 0.797112 0.359143
O61   O     O_3   0.777327 0.932502 0.325773 -0.646023
H41   H     H_    0.745113 0.937723 0.295085 0.351673
O62   O     O_3   0.222684 0.932205 0.674633 -0.646012
H42   H     H_    0.254916 0.937342 0.705420 0.351673
O63   O     O_3   0.277321 0.432334 0.325549 -0.645998
H43   H     H_    0.245097 0.437509 0.294809 0.351685
O64   O     O_3   0.722677 0.432196 0.674618 -0.646133
H44   H     H_    0.754909 0.437331 0.705403 0.351586
O65   O     O_3   0.865355 0.930829 0.408276 -0.651429
H45   H     H_    0.895227 0.927020 0.425979 0.332032
O66   O     O_3   0.134650 0.930621 0.592028 -0.651513
H46   H     H_    0.104723 0.926948 0.574182 0.331982
O67   O     O_3   0.365352 0.430712 0.408103 -0.651464
H47   H     H_    0.395254 0.426978 0.425883 0.332003
O68   O     O_3   0.634643 0.430618 0.592018 -0.651540
H48   H     H_    0.604716 0.426945 0.574176 0.331972
O69   O     O_3   0.861061 0.066587 0.318530 -0.702457
H49   H     H_    0.891970 0.070474 0.358678 0.339848
O70   O     O_3   0.138939 0.066796 0.681188 -0.702520
H50   H     H_    0.107994 0.070569 0.641073 0.339768
O71   O     O_3   0.361060 0.566704 0.318692 -0.702414
H51   H     H_    0.391991 0.570526 0.358820 0.339801
O72   O     O_3   0.638946 0.566788 0.681197 -0.702584
H52   H     H_    0.608000 0.570564 0.641084 0.339777
O73   O     O_3   0.451720 0.862788 0.514411 -0.680566
H53   H     H_    0.463145 0.892994 0.530344 0.350442
O74   O     O_3   0.548280 0.862779 0.485598 -0.680988
H54   H     H_    0.536859 0.892984 0.469666 0.350225
O75   O     O_3   0.951708 0.362784 0.514388 -0.681082
H55   H     H_    0.963130 0.392990 0.530321 0.350179
O76   O     O_3   0.048282 0.362783 0.485597 -0.680617
H56   H     H_    0.036856 0.392986 0.469659 0.350430
N5    N     N_R   0.963540 0.225479 0.393304 0.220371
O77   O     O_R   0.966189 0.208314 0.358595 -0.321391
O78   O     O_R   0.938416 0.259847 0.373870 -0.340456
N6    N     N_R   0.036458 0.225489 0.606694 0.220229
O79   O     O_R   0.033810 0.208327 0.641405 -0.322001
O80   O     O_R   0.061580 0.259859 0.626126 -0.340966
N7    N     N_R   0.463529 0.725481 0.393302 0.220262
O81   O     O_R   0.466174 0.708318 0.358588 -0.321818
O82   O     O_R   0.438406 0.759849 0.373872 -0.340855
N8    N     N_R   0.536458 0.725487 0.606698 0.220392
O83   O     O_R   0.533812 0.708324 0.641410 -0.321328
O84   O     O_R   0.561581 0.759856 0.626130 -0.340432
O85   O     O_3   0.421342 0.226903 0.410587 -0.713270
H57   H     H_    0.396388 0.206017 0.382124 0.357435
O86   O     O_3   0.578668 0.226906 0.589414 -0.713270
H58   H     H_    0.603621 0.206020 0.617877 0.357412
O87   O     O_3   0.921342 0.726903 0.410589 -0.713315
H59   H     H_    0.896388 0.706017 0.382128 0.357426
O88   O     O_3   0.078670 0.726905 0.589409 -0.713219
H60   H     H_    0.103623 0.706020 0.617870 0.357456
N9    N     N_R   0.544794 0.924829 0.322215 0.246135
O89   O     O_R   0.560526 0.897337 0.310352 -0.291648
O90   O     O_R   0.549912 0.916751 0.367086 -0.323247
N10   N     N_R   0.458512 0.922967 0.681079 0.246192
O91   O     O_R   0.444002 0.894813 0.694159 -0.291624
O92   O     O_R   0.453733 0.914681 0.636545 -0.323467
N11   N     N_R   0.041810 0.423148 0.319234 0.246188
O93   O     O_R   0.056438 0.395057 0.306270 -0.291653
O94   O     O_R   0.046622 0.414880 0.363800 -0.323452
N12   N     N_R   0.954494 0.425245 0.677067 0.246116
O95   O     O_R   0.938498 0.397903 0.688662 -0.291650
O96   O     O_R   0.949302 0.417216 0.632120 -0.323198
N13   N     N_R   0.007437 0.774135 0.585533 0.232960
O97   O     O_R   0.984974 0.738295 0.570346 -0.346351
O98   O     O_R   0.029209 0.792079 0.638045 -0.313967
N14   N     N_R   0.992577 0.774133 0.414470 0.233008
O99   O     O_R   0.015040 0.738294 0.429656 -0.346059
O100  O     O_R   0.970807 0.792074 0.361959 -0.313814
N15   N     N_R   0.507432 0.274135 0.585530 0.233006
O101  O     O_R   0.484970 0.238295 0.570342 -0.346055
O102  O     O_R   0.529203 0.292080 0.638042 -0.313762
N16   N     N_R   0.492580 0.274132 0.414474 0.232974
O103  O     O_R   0.515043 0.238293 0.429662 -0.346287
O104  O     O_R   0.470811 0.292073 0.361963 -0.313936
N17   N     N_R   0.457553 0.075198 0.180408 0.237579
O105  O     O_R   0.441599 0.102573 0.192039 -0.314963
O106  O     O_R   0.452898 0.083539 0.135997 -0.338655
N18   N     N_R   0.539131 0.076989 0.816289 0.237642
O107  O     O_R   0.553874 0.105033 0.803451 -0.314348
O108  O     O_R   0.543416 0.085527 0.860332 -0.337456
N19   N     N_R   0.960547 0.576827 0.183397 0.237638
O109  O     O_R   0.945687 0.604808 0.196120 -0.314415
O110  O     O_R   0.956226 0.585348 0.139319 -0.337599
N20   N     N_R   0.043169 0.574778 0.820318 0.237560
O111  O     O_R   0.059384 0.602001 0.808952 -0.315086
O112  O     O_R   0.047905 0.583072 0.864812 -0.338976
O113  O     O_3   0.724626 0.057684 0.280307 -0.658559
H61   H     H_    0.756694 0.051645 0.313027 0.359614
O114  O     O_3   0.275372 0.057033 0.719110 -0.658518
H62   H     H_    0.243286 0.051077 0.686535 0.359612
O115  O     O_3   0.224630 0.557317 0.280648 -0.658592
H63   H     H_    0.256708 0.551322 0.313287 0.359606
O116  O     O_3   0.775364 0.557035 0.719111 -0.658234
H64   H     H_    0.743281 0.551058 0.686522 0.359637
N21   N     N_R   0.633815 0.059122 0.189942 0.258832
O117  O     O_R   0.645019 0.100516 0.203507 -0.255355
O118  O     O_R   0.603875 0.043821 0.185551 -0.342257
N22   N     N_R   0.366211 0.058457 0.809460 0.258483
O119  O     O_R   0.354807 0.099744 0.795003 -0.254793
O120  O     O_R   0.396342 0.042882 0.814395 -0.344068
N23   N     N_R   0.133802 0.558749 0.190288 0.258570
O121  O     O_R   0.145132 0.600080 0.204385 -0.255036
O122  O     O_R   0.103742 0.543295 0.185568 -0.343583
N24   N     N_R   0.866203 0.558484 0.809473 0.258692
O123  O     O_R   0.854761 0.599760 0.794962 -0.254559
O124  O     O_R   0.896369 0.542936 0.814466 -0.343166

loop_
_geom_bond_atom_site_label_1
_geom_bond_atom_site_label_2
_geom_bond_distance
_ccdc_geom_bond_type
C67   C71   1.394511 A    
C157  C161  1.391040 A    
H1    C45   1.110121 S    
C94   O70   1.382783 S    
C135  N7    1.440630 S    
O44   Zn11  2.016146 S    
O64   H44   0.988454 S    
C84   C104  1.412268 A    
C135  C144  1.415412 A    
C100  H20   1.084568 S    
C40   C48   1.548251 S    
N9    O89   1.300211 A    
O87   H59   0.991686 S    
C97   H17   1.084571 S    
C43   N19   1.457075 S    
C57   O113  1.385650 S    
C164  C166  1.397607 A    
C34   H6    1.110106 S    
C63   C67   1.408477 A    
C24   C110  1.414434 S    
N3    O53   1.300205 A    
C137  H25   1.083703 S    
C152  H32   1.083317 S    
C7    C19   1.414224 S    
C38   C46   1.548255 S    
N4    O55   1.300206 A    
C145  C149  1.395431 A    
C12   C28   1.543396 S    
C30   C50   1.446448 S    
C124  H24   1.084140 S    
C162  C165  1.397609 A    
C158  C162  1.391045 A    
N8    O83   1.301462 A    
O40   Zn12  2.016831 S    
C62   N22   1.438147 S    
O4    C4    1.283056 A    
C13   C45   1.546403 S    
C15   C47   1.546404 S    
C158  N14   1.441839 S    
C13   C29   1.532878 S    
C94   C98   1.383911 A    
C140  H28   1.083702 S    
C16   N4    1.457283 S    
C79   C103  1.454972 S    
Zn7   O31   2.018641 S    
C61   N21   1.437988 S    
C147  O87   1.382124 S    
N7    O81   1.301464 A    
Zn6   O30   2.018615 S    
O19   C106  1.280291 A    
N10   O91   1.300209 A    
C105  C129  1.449160 S    
C59   O115  1.385650 S    
N24   O124  1.301231 A    
O16   Zn4   1.999208 S    
C66   C70   1.394482 A    
C15   C31   1.532875 S    
O33   Zn9   2.017861 S    
C125  C129  1.420036 A    
O7    Zn4   2.014120 S    
O23   C109  1.280899 A    
O44   C118  1.274037 A    
O15   C7    1.281831 A    
C146  C155  1.402621 A    
O4    Zn2   2.015909 S    
N15   O101  1.301242 A    
O26   C108  1.281128 A    
C44   C48   1.544327 S    
C22   C108  1.414437 S    
N14   O99   1.301240 A    
C124  C128  1.386835 A    
O42   Zn9   2.016146 S    
O9    C5    1.281739 A    
C134  N6    1.440631 S    
C157  C167  1.413876 A    
C60   C80   1.420050 A    
O34   C113  1.276404 A    
C12   C40   1.530888 S    
C82   O62   1.384120 S    
C88   O68   1.383807 S    
C93   C97   1.383857 A    
N2    O52   1.300234 A    
C14   C30   1.532878 S    
N21   O117  1.301181 A    
O8    Zn4   2.014101 S    
C96   O72   1.382780 S    
N23   O121  1.301190 A    
C87   C91   1.419572 A    
C19   C51   1.193368 T    
C71   H15   1.084528 S    
C74   O58   1.383568 S    
C161  C165  1.397607 A    
O3    Zn2   2.015878 S    
N10   O92   1.300254 A    
N22   O120  1.301239 A    
O114  H62   0.987625 S    
C33   C37   1.547081 S    
C83   C87   1.392745 A    
C35   C39   1.547084 S    
O29   C111  1.283783 A    
C36   C40   1.547080 S    
C83   O63   1.384113 S    
C26   C30   1.549315 S    
C42   C46   1.544332 S    
C25   C29   1.549316 S    
C150  C153  1.400521 A    
C92   C118  1.447758 S    
C58   C78   1.420055 A    
C91   C95   1.416421 A    
O3    C3    1.283087 A    
O88   H60   0.991685 S    
O67   H47   0.988984 S    
C89   C93   1.416408 A    
O37   Zn9   2.016837 S    
C90   C94   1.416433 A    
O48   C120  1.277614 A    
O40   C118  1.274136 A    
C84   O64   1.384117 S    
O35   Zn11  2.017861 S    
O28   Zn7   1.997678 S    
O21   C107  1.280905 A    
C9    N9    1.457286 S    
N13   O97   1.301244 A    
C9    C13   1.525739 S    
C85   O65   1.383773 S    
C148  C156  1.402620 A    
C68   C72   1.394486 A    
N20   O111  1.300190 A    
C9    C25   1.543392 S    
O5    C1    1.283008 A    
C111  C153  1.453888 S    
C151  C154  1.400521 A    
C12   C16   1.525734 S    
O20   C106  1.280286 A    
C114  C142  1.450929 S    
C139  H27   1.083702 S    
C60   C64   1.398754 A    
C25   C33   1.563091 S    
N18   O107  1.300191 A    
C3    C67   1.449482 S    
C82   C86   1.392778 A    
C20   C52   1.193368 T    
O19   Zn7   2.017894 S    
C35   C43   1.541385 S    
C146  O86   1.382121 S    
O5    Zn3   2.014120 S    
N12   O96   1.300253 A    
O30   C111  1.283787 A    
C42   N18   1.457075 S    
C29   C41   1.532963 S    
C74   C78   1.416457 A    
C27   C31   1.549315 S    
C139  C142  1.396074 A    
O8    C4    1.283000 A    
C31   C51   1.446448 S    
O36   C114  1.276406 A    
O57   H37   0.987967 S    
C123  C127  1.386835 A    
C87   O67   1.383792 S    
O46   C119  1.277614 A    
C121  C125  1.386835 A    
O45   C119  1.277609 A    
C10   C26   1.543392 S    
C9    C37   1.530890 S    
C10   C14   1.525738 S    
O25   C107  1.281127 A    
C131  C144  1.454540 S    
O13   Zn3   1.999232 S    
C11   C39   1.530891 S    
C28   H12   1.110094 S    
C138  C141  1.396078 A    
C80   C104  1.455006 S    
C72   C76   1.383581 A    
C145  C155  1.402622 A    
O17   Zn5   2.017894 S    
C32   C44   1.532967 S    
O18   Zn6   2.017920 S    
C44   N20   1.457083 S    
N7    O82   1.301400 A    
N6    O80   1.301401 A    
C85   C89   1.419559 A    
O65   H45   0.988996 S    
C145  O85   1.382122 S    
C96   C100  1.383910 A    
O63   H43   0.988455 S    
N16   O104  1.301514 A    
O15   Zn4   1.999232 S    
N1    O50   1.300233 A    
N15   O102  1.301514 A    
Zn8   O32   2.018615 S    
N11   O94   1.300256 A    
N13   O98   1.301514 A    
C81   O61   1.384105 S    
N18   O108  1.300235 A    
C61   C65   1.408472 A    
C147  C156  1.402623 A    
C76   C80   1.416447 A    
C133  N5    1.440631 S    
H4    C48   1.110124 S    
O23   Zn7   2.000477 S    
O14   C6    1.281832 A    
C38   C54   1.445500 S    
C11   C27   1.543387 S    
N23   O122  1.301241 A    
C73   O57   1.383563 S    
O43   C117  1.274045 A    
C30   C42   1.532956 S    
C126  C129  1.420041 A    
C124  C132  1.394020 A    
C149  H29   1.083318 S    
C89   C115  1.447731 S    
O10   C6    1.281737 A    
C90   C116  1.447761 S    
C12   N12   1.457290 S    
Zn12  O48   2.017441 S    
C164  H36   1.083272 S    
C77   C101  1.454924 S    
N4    O56   1.300228 A    
C57   C61   1.398558 A    
Zn9   O45   2.017415 S    
C160  C168  1.413877 A    
C17   C49   1.193367 T    
C161  H33   1.083273 S    
C127  C130  1.420043 A    
C27   C35   1.563088 S    
C60   O116  1.385650 S    
O60   H40   0.987970 S    
C121  H21   1.084138 S    
O20   Zn8   2.017920 S    
C128  O76   1.382096 S    
N8    O84   1.301401 A    
C16   C48   1.546401 S    
O34   Zn10  2.017834 S    
C34   C38   1.547083 S    
C152  C154  1.400524 A    
H2    C46   1.110118 S    
C40   C56   1.445496 S    
C21   C107  1.414434 S    
O43   Zn12  2.016146 S    
N11   O93   1.300205 A    
O41   Zn10  2.016146 S    
O116  H64   0.987628 S    
N17   O106  1.300230 A    
C93   O69   1.382750 S    
C91   C117  1.447750 S    
Zn10  O46   2.017441 S    
C35   H7    1.110107 S    
O37   C115  1.274115 A    
C62   C66   1.408465 A    
C69   C73   1.383548 A    
C132  C143  1.454540 S    
C71   C75   1.383563 A    
C146  C150  1.395433 A    
N5    O78   1.301403 A    
O38   C116  1.274137 A    
O39   C117  1.274124 A    
O26   Zn5   1.997678 S    
N14   O100  1.301515 A    
O58   H38   0.987968 S    
C23   C55   1.193441 T    
C122  C131  1.394018 A    
O39   Zn11  2.016837 S    
C14   C46   1.546403 S    
C88   C92   1.419581 A    
C58   O114  1.385650 S    
C95   O71   1.382771 S    
O76   H56   0.988784 S    
C133  C137  1.391985 A    
C75   O59   1.383568 S    
C136  N8    1.440631 S    
N9    O90   1.300251 A    
O24   C110  1.280903 A    
C58   C62   1.398737 A    
O35   C114  1.276402 A    
C57   C77   1.420006 A    
O12   Zn2   1.999552 S    
C83   C103  1.412264 A    
C18   C50   1.193368 T    
O72   H52   0.988505 S    
C26   C34   1.563090 S    
C123  C132  1.394023 A    
O1    C1    1.283140 A    
O66   H46   0.988974 S    
C22   C54   1.193441 T    
C138  H26   1.083702 S    
C13   N1    1.457283 S    
O47   C120  1.277609 A    
C81   C101  1.412259 A    
O86   H58   0.991686 S    
C98   H18   1.084568 S    
O61   H41   0.988460 S    
C16   C32   1.532881 S    
C140  C142  1.396081 A    
C98   C102  1.393688 A    
O18   C105  1.280289 A    
C75   C79   1.416459 A    
C120  C166  1.453704 S    
O62   H42   0.988455 S    
C112  C154  1.453888 S    
N19   O110  1.300233 A    
C39   C47   1.548257 S    
C5    C17   1.414221 S    
C128  C130  1.420038 A    
C37   C53   1.445500 S    
C10   C38   1.530894 S    
C8    C20   1.414225 S    
C11   C15   1.525738 S    
C70   C74   1.383588 A    
O27   C109  1.281132 A    
C72   H16   1.084532 S    
C1    C65   1.449565 S    
C147  C151  1.395431 A    
O69   H49   0.988518 S    
C33   C41   1.541381 S    
O6    C2    1.282997 A    
N20   O112  1.300231 A    
N24   O123  1.301195 A    
C99   H19   1.084567 S    
C97   C101  1.393700 A    
C100  C104  1.393693 A    
O75   H55   0.988780 S    
O32   C112  1.283787 A    
C148  O88   1.382120 S    
C41   C45   1.544330 S    
C59   C79   1.420040 A    
O2    Zn1   2.015909 S    
C43   C47   1.544332 S    
O10   Zn1   1.999552 S    
O13   C5    1.281831 A    
C158  C167  1.413877 A    
C4    C68   1.449429 S    
C11   N11   1.457290 S    
C135  C139  1.391983 A    
C23   C109  1.414437 S    
N2    O51   1.300205 A    
C36   C44   1.541379 S    
O71   H51   0.988510 S    
C137  C141  1.396075 A    
N21   O118  1.301244 A    
C157  N13   1.441836 S    
O24   Zn8   2.000481 S    
O36   Zn12  2.017834 S    
C126  O74   1.382099 S    
O17   C105  1.280289 A    
O74   H54   0.988783 S    
O22   C108  1.280895 A    
C32   C52   1.446453 S    
O85   H57   0.991688 S    
N19   O109  1.300191 A    
C125  O73   1.382102 S    
O68   H48   0.988973 S    
N22   O119  1.301191 A    
C39   C55   1.445500 S    
O73   H53   0.988785 S    
O7    C3    1.283007 A    
C78   C102  1.455007 S    
C14   N2    1.457287 S    
O41   C115  1.274052 A    
C113  C141  1.450926 S    
C162  H34   1.083272 S    
C64   C68   1.408497 A    
C2    C66   1.449412 S    
C81   C85   1.392706 A    
C121  C131  1.394025 A    
C159  C163  1.391040 A    
C34   C42   1.541384 S    
O16   C8    1.281835 A    
C28   C36   1.563096 S    
N1    O49   1.300205 A    
C155  C168  1.452037 S    
C73   C77   1.416465 A    
C159  C168  1.413875 A    
C160  C164  1.391045 A    
C156  C167  1.452037 S    
O11   C7    1.281739 A    
O12   C8    1.281734 A    
O70   H50   0.988504 S    
H3    C47   1.110117 S    
O1    Zn1   2.015878 S    
O9    Zn1   1.999525 S    
N16   O103  1.301243 A    
C122  C126  1.386832 A    
C92   C96   1.416430 A    
C134  C138  1.391991 A    
O42   C116  1.274039 A    
C69   H13   1.084526 S    
C163  H35   1.083271 S    
C136  C144  1.415413 A    
C149  C153  1.400521 A    
C25   H9    1.110092 S    
O38   Zn10  2.016831 S    
C27   H11   1.110093 S    
C26   H10   1.110093 S    
C127  O75   1.382099 S    
O11   Zn2   1.999525 S    
O59   H39   0.987967 S    
C123  H23   1.084136 S    
C160  N16   1.441840 S    
C148  C152  1.395433 A    
C76   O60   1.383568 S    
C86   C90   1.419584 A    
Zn5   O29   2.018641 S    
C95   C99   1.383889 A    
O6    Zn3   2.014101 S    
C163  C166  1.397608 A    
O33   C113  1.276406 A    
O115  H63   0.987639 S    
O22   Zn6   2.000481 S    
C10   N10   1.457290 S    
O21   Zn5   2.000477 S    
O31   C112  1.283783 A    
C33   H5    1.110108 S    
C159  N15   1.441837 S    
O2    C2    1.283049 A    
C136  C140  1.391987 A    
C37   C45   1.548254 S    
N3    O54   1.300233 A    
C29   C49   1.446449 S    
O14   Zn3   1.999208 S    
C15   N3    1.457287 S    
C82   C102  1.412271 A    
O27   Zn8   1.997674 S    
C119  C165  1.453704 S    
C31   C43   1.532954 S    
O25   Zn6   1.997674 S    
N17   O105  1.300194 A    
C150  H30   1.083317 S    
N6    O79   1.301458 A    
C24   C56   1.193437 T    
O113  H61   0.987650 S    
C133  C143  1.415407 A    
C63   N23   1.438089 S    
C36   H8    1.110112 S    
N12   O95   1.300208 A    
C6    C18   1.414227 S    
Zn11  O47   2.017415 S    
C41   N17   1.457080 S    
C99   C103  1.393698 A    
C70   H14   1.084534 S    
C106  C130  1.449163 S    
N5    O77   1.301459 A    
C134  C143  1.415414 A    
O28   C110  1.281120 A    
C84   C88   1.392777 A    
C59   C63   1.398671 A    
C151  H31   1.083317 S    
C122  H22   1.084138 S    
C64   N24   1.438173 S    
C86   O66   1.383808 S    
C21   C53   1.193437 T    
C65   C69   1.394550 A    
C28   C32   1.549316 S    
