data_mof_unit_60802.cif
_audit_creation_date              2012-12-10T17:52:38-0500
_audit_creation_method            fapswitch 2.2
_symmetry_space_group_name_H-M    P1
_symmetry_Int_Tables_number       1
_space_group_crystal_system       triclinic
_cell_length_a                    18.747433
_cell_length_b                    18.971068
_cell_length_c                    18.633194
_cell_angle_alpha                 109.883529
_cell_angle_beta                  109.238996
_cell_angle_gamma                 110.151294
_cell_volume                      5046.37954769

loop_
_atom_site_label
_atom_site_type_symbol
_atom_type_description
_atom_site_fract_x
_atom_site_fract_y
_atom_site_fract_z
_atom_type_partial_charge
Br1   Br    Br    0.694717 0.909262 0.361871 -0.534593
Br2   Br    Br    0.954744 0.086832 0.283306 -0.493191
Br3   Br    Br    0.897890 0.707249 0.467003 -0.500667
Br4   Br    Br    0.694648 0.913165 0.941663 -0.422907
Br5   Br    Br    0.278440 0.193436 0.694813 -0.454835
Br6   Br    Br    0.698176 0.769534 0.782346 -0.461856
Br7   Br    Br    0.441150 0.206544 0.649887 -0.469182
Br8   Br    Br    0.448692 0.950041 0.734447 -0.576694
C1    C     C_R   0.118331 0.120035 0.497765 0.922280
C2    C     C_R   0.248680 0.327654 0.512448 -0.159469
C3    C     C_R   0.184690 0.263873 0.512676 -0.113680
C4    C     C_R   0.121577 0.002455 0.621486 0.918088
C5    C     C_R   0.183638 0.185769 0.496053 0.007360
C6    C     C_R   0.728589 0.961922 0.297914 0.232449
C7    C     C_R   0.665286 0.962773 0.234583 -0.189404
C8    C     C_R   0.687643 0.000189 0.186490 -0.140387
C9    C     C_R   0.773448 0.036369 0.201130 -0.143167
C10   C     C_R   0.837226 0.035209 0.263922 0.218977
C11   C     C_R   0.814405 0.998246 0.312319 -0.146081
C12   C     C_R   0.276308 0.043774 0.706135 -0.067590
C13   C     C_R   0.813677 0.734294 0.486801 0.278030
C14   C     C_R   0.749209 0.672717 0.488425 -0.245623
C15   C     C_R   0.686762 0.688518 0.503427 -0.102660
C16   C     C_R   0.881514 0.879731 0.501818 0.938884
C17   C     C_R   0.688431 0.767081 0.518993 -0.009721
C18   C     C_R   0.754629 0.829957 0.520140 -0.219098
C19   C     C_R   0.816165 0.813470 0.502909 -0.096831
C20   C     C_R   0.502359 0.880207 0.882144 0.963265
C21   C     C_R   0.379292 0.993228 0.873471 0.919813
C22   C     C_R   0.499557 0.120148 0.120020 0.857399
C23   C     C_R   0.189697 0.007734 0.691814 -0.075210
C24   C     C_R   0.620807 0.000335 0.120471 0.917060
C25   C     C_R   0.502753 0.622268 0.621126 0.922263
C26   C     C_R   0.379480 0.380095 0.499788 0.852721
C27   C     C_R   0.499188 0.379692 0.379250 0.849376
C28   C     C_R   0.880299 0.999642 0.379371 0.966571
C29   C     C_R   0.620289 0.621612 0.501936 0.896323
C30   C     C_R   0.586149 0.821315 0.832296 0.216515
C31   C     C_R   0.586809 0.758304 0.766898 0.230659
C32   C     C_R   0.506081 0.690003 0.689409 -0.135538
C33   C     C_R   0.426476 0.684941 0.676969 -0.221461
C34   C     C_R   0.165477 0.964298 0.735446 -0.011487
C35   C     C_R   0.426021 0.747044 0.741677 -0.182846
C36   C     C_R   0.505254 0.814951 0.818367 -0.121198
C37   C     C_R   0.500471 0.257109 0.177428 -0.163101
C38   C     C_R   0.498490 0.320178 0.240320 -0.167807
C39   C     C_R   0.497169 0.312704 0.311953 -0.012445
C40   C     C_R   0.312395 0.107535 0.684964 0.176451
C41   C     C_R   0.495730 0.241844 0.320290 -0.168529
C42   C     C_R   0.495013 0.177481 0.256051 -0.169034
C43   C     C_R   0.498404 0.185900 0.185450 -0.016771
C44   C     C_R   0.388935 0.122942 0.679796 0.271282
C45   C     C_R   0.227993 0.956166 0.791482 -0.236403
C46   C     C_R   0.429215 0.076605 0.696966 -0.241726
C47   C     C_R   0.401428 0.024267 0.730878 0.240955
C48   C     C_R   0.330280 0.016348 0.745579 0.015542
C49   C     C_R   0.077559 0.930596 0.728069 0.074100
C50   C     C_R   0.047459 0.987523 0.755172 -0.110531
C51   C     C_R   0.966325 0.955863 0.751661 -0.130119
C52   C     C_R   0.915704 0.867734 0.723361 -0.096196
C53   C     C_R   0.946229 0.811173 0.698681 -0.108888
C54   C     C_R   0.026731 0.842318 0.700908 -0.120190
C55   C     C_R   0.623461 0.785729 0.535948 0.097822
C56   C     C_R   0.310875 0.983992 0.798926 -0.086113
C57   C     C_R   0.539743 0.751209 0.465258 -0.054068
C58   C     C_R   0.477759 0.767453 0.481555 -0.140624
C59   C     C_R   0.499454 0.819213 0.568248 -0.082980
C60   C     C_R   0.583485 0.855588 0.638760 -0.097350
C61   C     C_R   0.645534 0.839104 0.622723 -0.165422
C62   C     C_R   0.246123 0.171100 0.479126 -0.098074
C63   C     C_R   0.311526 0.235884 0.481441 -0.121745
C64   C     C_R   0.312363 0.313665 0.498104 -0.010076
H1    H     H_    0.135857 0.274986 0.525013 0.158929
H2    H     H_    0.494342 0.236164 0.375827 0.151327
H3    H     H_    0.493600 0.122278 0.262171 0.152364
H4    H     H_    0.484052 0.083269 0.686390 0.210188
H5    H     H_    0.212324 0.930121 0.831371 0.176306
H6    H     H_    0.245681 0.110788 0.466603 0.167087
H7    H     H_    0.360853 0.225339 0.469645 0.152859
H8    H     H_    0.249733 0.388250 0.525048 0.140694
H9    H     H_    0.087367 0.056607 0.780445 0.159104
H10   H     H_    0.943114 0.999858 0.771759 0.148348
H11   H     H_    0.852982 0.843310 0.720770 0.168243
H12   H     H_    0.598934 0.934791 0.223563 0.193849
H13   H     H_    0.907179 0.742989 0.677182 0.161370
H14   H     H_    0.049516 0.797678 0.681503 0.164872
H15   H     H_    0.522345 0.711095 0.397810 0.149462
H16   H     H_    0.412885 0.739857 0.426993 0.141205
H17   H     H_    0.451153 0.831252 0.580563 0.183365
H18   H     H_    0.600357 0.896129 0.705832 0.184845
H19   H     H_    0.710421 0.867371 0.677713 0.166027
H20   H     H_    0.790798 0.064936 0.163627 0.211693
H21   H     H_    0.747000 0.611783 0.476849 0.177105
H22   H     H_    0.756956 0.891111 0.532654 0.201706
H23   H     H_    0.364486 0.632219 0.617525 0.172575
H24   H     H_    0.364050 0.743053 0.731444 0.175773
H25   H     H_    0.502507 0.263100 0.122234 0.157212
H26   H     H_    0.500000 0.375486 0.234384 0.153489
O1    O     O_R   0.091590 0.143330 0.551700 -0.600600
O2    O     O_R   0.551730 0.591680 0.643420 -0.572659
O3    O     O_R   0.356670 0.408480 0.448390 -0.620262
O4    O     O_R   0.091620 0.039900 0.448280 -0.621869
O5    O     O_R   0.460120 0.408460 0.551810 -0.595855
O6    O     O_R   0.448270 0.408490 0.356760 -0.618194
O7    O     O_R   0.551720 0.408480 0.460170 -0.619479
O8    O     O_R   0.539880 0.591710 0.448370 -0.630270
O9    O     O_R   0.643330 0.591700 0.551790 -0.607768
O10   O     O_R   0.091610 0.051730 0.643330 -0.615628
O11   O     O_R   0.091640 0.948310 0.539920 -0.603011
O12   O     O_R   0.551760 0.960180 0.908450 -0.558152
O13   O     O_R   0.908380 0.960100 0.551720 -0.632898
O14   O     O_R   0.908410 0.856670 0.448300 -0.573407
O15   O     O_R   0.908360 0.051690 0.460080 -0.607684
O16   O     O_R   0.908390 0.948270 0.356670 -0.590350
O17   O     O_R   0.448330 0.856720 0.908450 -0.631813
O18   O     O_R   0.356660 0.948290 0.908410 -0.635048
O19   O     O_R   0.460090 0.051750 0.908420 -0.590102
O20   O     O_R   0.448250 0.039900 0.091630 -0.622985
O21   O     O_R   0.551680 0.143360 0.091630 -0.617530
O22   O     O_R   0.539910 0.948330 0.091670 -0.628283
O23   O     O_R   0.643340 0.051790 0.091670 -0.611023
O24   O     O_R   0.448280 0.591700 0.540000 -0.631505
Zn1   Zn    Zn3+2 0.999980 0.069060 0.569050 1.020169
Zn2   Zn    Zn3+2 0.000020 0.930940 0.430950 1.072631
Zn3   Zn    Zn3+2 0.430940 0.930960 0.000040 0.987513
Zn4   Zn    Zn3+2 0.569060 0.069120 0.000040 1.055916
Zn5   Zn    Zn3+2 0.430920 0.500100 0.431040 0.978836
Zn6   Zn    Zn3+2 0.569080 0.500080 0.569140 1.050693

loop_
_geom_bond_atom_site_label_1
_geom_bond_atom_site_label_2
_ccdc_geom_bond_type
C18   H22   S    
C22   C43   S    
C55   C57   A    
C23   C34   A    
Br2   C10   S    
C16   O14   A    
C51   H10   S    
C12   C48   A    
C27   C39   S    
C63   H7    S    
C49   C54   A    
C39   C41   A    
C52   H11   S    
C37   C38   A    
C54   H14   S    
C18   C19   A    
O9    Zn6   S    
O14   Zn2   S    
C11   C28   S    
C34   C45   A    
C58   H16   S    
C30   C31   A    
C45   C56   A    
C62   H6    S    
C22   O21   A    
C37   C43   A    
C7    C8    A    
C59   H17   S    
Br8   C47   S    
C9    C10   A    
C10   C11   A    
C17   C55   S    
O24   Zn5   S    
C1    C5    S    
C46   C47   A    
C55   C61   A    
C60   C61   A    
C60   H18   S    
C48   C56   A    
C62   C63   A    
O20   Zn3   S    
O19   Zn4   S    
O16   Zn2   S    
C58   C59   A    
C38   H26   S    
C21   C56   S    
C28   O16   A    
C51   C52   A    
C1    O1    A    
C13   C14   A    
C33   C35   A    
C16   O13   A    
C24   O22   A    
O4    Zn2   S    
C28   O15   A    
C6    C11   A    
C34   C49   S    
C4    O11   A    
C44   C46   A    
C57   H15   S    
C14   C15   A    
Br5   C40   S    
C26   O3    A    
O13   Zn1   S    
C59   C60   A    
C25   C32   S    
C27   O6    A    
C3    H1    S    
C50   H9    S    
C31   C32   A    
C4    O10   A    
C2    H8    S    
O22   Zn3   S    
C8    C9    A    
C22   O20   A    
C20   O12   A    
C50   C51   A    
C15   C29   S    
C21   O19   A    
O8    Zn5   S    
C20   C36   S    
C52   C53   A    
C45   H5    S    
C35   C36   A    
C30   C36   A    
C27   O7    A    
C20   O17   A    
O15   Zn1   S    
C40   C44   A    
C16   C19   S    
C47   C48   A    
C6    C7    A    
C35   H24   S    
C42   C43   A    
O5    Zn6   S    
C12   C40   A    
C53   H13   S    
O12   Zn4   S    
C46   H4    S    
C32   C33   A    
C21   O18   A    
Br4   C30   S    
C57   C58   A    
O18   Zn3   S    
C4    C23   S    
C25   O24   A    
C14   H21   S    
Br3   C13   S    
O10   Zn1   S    
C26   C64   S    
O1    Zn1   S    
Br6   C31   S    
C38   C39   A    
C1    O4    A    
O7    Zn6   S    
O2    Zn6   S    
C24   O23   A    
Br7   C44   S    
O11   Zn2   S    
C29   O9    A    
C7    H12   S    
C8    C24   S    
C26   O5    A    
O17   Zn3   S    
C25   O2    A    
C17   C18   A    
C29   O8    A    
C37   H25   S    
C42   H3    S    
C3    C5    A    
C49   C50   A    
C33   H23   S    
O6    Zn5   S    
O3    Zn5   S    
C15   C17   A    
C13   C19   A    
C53   C54   A    
C2    C3    A    
O21   Zn4   S    
C9    H20   S    
O23   Zn4   S    
C63   C64   A    
C41   C42   A    
C5    C62   A    
C41   H2    S    
Br1   C6    S    
C61   H19   S    
C12   C23   A    
C2    C64   A    
