data_mof_unit_32371.cif
_audit_creation_date              2012-10-26T20:19:05-0400
_audit_creation_method            fapswitch 2.2
_symmetry_space_group_name_H-M    P1
_symmetry_Int_Tables_number       1
_space_group_crystal_system       triclinic
_cell_length_a                    15.033819
_cell_length_b                    13.022954
_cell_length_c                    11.697975
_cell_angle_alpha                 100.196359
_cell_angle_beta                  93.40131
_cell_angle_gamma                 89.961546
_cell_volume                      2250.03077388

loop_
_atom_site_label
_atom_site_type_symbol
_atom_type_description
_atom_site_fract_x
_atom_site_fract_y
_atom_site_fract_z
_atom_type_partial_charge
C1    C     C_R   0.501785 0.298904 0.477803 0.549734
C2    C     C_R   0.501720 0.879123 0.648335 0.258028
C3    C     C_R   0.495301 0.140203 0.562480 -0.193702
C4    C     C_R   0.496200 0.860478 0.437774 -0.198963
C5    C     C_R   0.500290 0.032631 0.556250 -0.021621
C6    C     C_R   0.494201 0.968428 0.445063 -0.012028
C7    C     C_R   0.407702 0.414006 0.023458 -0.185165
C8    C     C_R   0.590667 0.588408 0.976860 -0.183106
C9    C     C_R   0.417041 0.421406 0.145213 0.030249
C10   C     C_R   0.581276 0.581074 0.855103 0.054491
C11   C     C_R   0.540372 0.536427 0.156126 0.031175
C12   C     C_R   0.499946 0.701156 0.522222 0.556576
C13   C     C_R   0.459428 0.463905 0.843917 0.029026
C14   C     C_R   0.533038 0.531961 0.033697 -0.000837
C15   C     C_R   0.466116 0.469323 0.966471 0.001816
C16   C     C_R   0.329123 0.502508 0.500947 0.538587
C17   C     C_R   0.670840 0.496990 0.498935 0.540397
C18   C     C_R   0.813141 0.587043 0.530618 -0.145817
C19   C     C_R   0.186823 0.412199 0.469485 -0.149046
C20   C     C_R   0.767023 0.492889 0.496918 0.006027
C21   C     C_R   0.232884 0.506474 0.502620 0.007490
C22   C     C_R   0.812440 0.397796 0.464937 -0.027948
C23   C     C_R   0.049277 0.314102 0.432841 -0.140888
C24   C     C_R   0.187328 0.601659 0.533129 -0.016477
C25   C     C_R   0.906896 0.400691 0.464402 0.025915
C26   C     C_R   0.092931 0.598666 0.534281 0.025674
C27   C     C_R   0.952976 0.497480 0.498790 0.047051
C28   C     C_R   0.046891 0.501822 0.500294 0.045770
C29   C     C_R   0.905439 0.590123 0.532149 0.009629
C30   C     C_R   0.094475 0.409137 0.467395 0.009536
C31   C     C_R   0.956890 0.309734 0.430895 -0.142040
C32   C     C_R   0.042974 0.689574 0.568187 -0.142184
C33   C     C_3   0.761168 0.294436 0.435758 -0.244404
C34   C     C_R   0.950632 0.685142 0.566783 -0.140429
C35   C     C_3   0.772370 0.232526 0.536161 -0.302738
C36   C     C_3   0.751666 0.116733 0.494887 -0.443300
C37   C     C_3   0.238442 0.705115 0.560681 -0.255935
C38   C     C_3   0.225851 0.766866 0.460293 -0.299374
C39   C     C_3   0.248216 0.882381 0.500747 -0.468839
C40   C     C_3   0.412324 0.843464 0.788093 -0.019784
C41   C     C_3   0.389632 0.746435 0.836596 -0.359722
C42   C     C_3   0.534872 0.186729 0.184925 0.001090
C43   C     C_3   0.597185 0.269504 0.156496 -0.353398
C44   C     C_3   0.460098 0.950398 0.225174 -0.246517
C45   C     C_R   0.498873 0.815358 0.537155 -0.013660
C46   C     C_3   0.362074 0.916740 0.225910 -0.315271
C47   C     C_3   0.328786 0.853175 0.109543 -0.461411
C48   C     C_3   0.541353 0.053025 0.775578 -0.243951
C49   C     C_3   0.637764 0.090860 0.771595 -0.297052
C50   C     C_3   0.671088 0.157048 0.886484 -0.465448
C51   C     C_R   0.501792 0.184799 0.463328 -0.006890
C52   C     C_R   0.490676 0.013561 0.343038 0.032853
C53   C     C_R   0.510420 0.988043 0.658485 0.005560
C54   C     C_R   0.510123 0.120750 0.353490 0.243928
Cu1   Cu    Cu3+1 0.506660 0.507730 0.615930 0.923908
Cu2   Cu    Cu3+1 0.493340 0.492270 0.384070 0.900956
H1    H     H_    0.776448 0.658526 0.555861 0.105134
H2    H     H_    0.490321 0.190722 0.645555 0.139566
H3    H     H_    0.408582 0.415115 0.791447 0.118789
H4    H     H_    0.591529 0.584760 0.208531 0.121609
H5    H     H_    0.626029 0.625065 0.812557 0.147570
H6    H     H_    0.371323 0.378760 0.187886 0.120648
H7    H     H_    0.681268 0.105153 0.461591 0.202455
H8    H     H_    0.795812 0.083358 0.425090 0.152695
H9    H     H_    0.763160 0.074153 0.568592 0.127906
H10   H     H_    0.841451 0.239889 0.576197 0.166680
H11   H     H_    0.727017 0.264759 0.605079 0.166021
H12   H     H_    0.223580 0.340654 0.444932 0.097332
H13   H     H_    0.688940 0.305595 0.418252 0.180191
H14   H     H_    0.783339 0.249071 0.352971 0.144878
H15   H     H_    0.206344 0.916360 0.572828 0.143390
H16   H     H_    0.319429 0.892929 0.530630 0.156267
H17   H     H_    0.234859 0.925209 0.427615 0.138617
H18   H     H_    0.269641 0.733866 0.389819 0.168906
H19   H     H_    0.156128 0.760471 0.422515 0.169465
H20   H     H_    0.217024 0.750557 0.643832 0.125605
H21   H     H_    0.310870 0.694096 0.576442 0.150404
H22   H     H_    0.359218 0.852589 0.720063 0.106223
H23   H     H_    0.355103 0.365426 0.974412 0.082350
H24   H     H_    0.409950 0.912340 0.858904 0.114480
H25   H     H_    0.438976 0.736380 0.908061 0.160836
H26   H     H_    0.321901 0.753520 0.869863 0.079447
H27   H     H_    0.389856 0.676440 0.767438 0.199385
H28   H     H_    0.466888 0.219106 0.197517 0.132888
H29   H     H_    0.531788 0.123405 0.107850 0.112183
H30   H     H_    0.606120 0.334895 0.230713 0.206055
H31   H     H_    0.663799 0.235722 0.138648 0.134842
H32   H     H_    0.569728 0.299686 0.079059 0.101755
H33   H     H_    0.334388 0.899859 0.039566 0.142177
H34   H     H_    0.642681 0.637842 0.026041 0.090548
H35   H     H_    0.368057 0.780576 0.090471 0.159516
H36   H     H_    0.257716 0.831459 0.113044 0.143671
H37   H     H_    0.353322 0.868477 0.293542 0.171870
H38   H     H_    0.319974 0.987183 0.245640 0.151842
H39   H     H_    0.463503 0.996545 0.155382 0.140051
H40   H     H_    0.503909 0.882346 0.200924 0.137107
H41   H     H_    0.631063 0.229126 0.903729 0.155855
H42   H     H_    0.666502 0.112148 0.958269 0.155493
H43   H     H_    0.741795 0.179619 0.881670 0.143729
H44   H     H_    0.681927 0.022256 0.751823 0.168049
H45   H     H_    0.925972 0.233883 0.403358 0.114387
H46   H     H_    0.642938 0.138442 0.702497 0.170114
H47   H     H_    0.495807 0.119260 0.800447 0.111156
H48   H     H_    0.540513 0.007000 0.846706 0.176444
H49   H     H_    0.073900 0.765409 0.595853 0.114575
H50   H     H_    0.085572 0.242572 0.407163 0.103174
H51   H     H_    0.914363 0.756622 0.592876 0.106153
H52   H     H_    0.496293 0.809935 0.354065 0.143023
N1    N     N_R   0.516670 0.519360 0.790130 -0.239723
N2    N     N_R   0.483330 0.480640 0.209870 -0.239770
O1    O     O_R   0.504720 0.354460 0.582000 -0.515040
O2    O     O_3   0.573118 0.149558 0.282609 -0.577604
O3    O     O_R   0.495280 0.645540 0.418000 -0.517918
O4    O     O_R   0.493480 0.341410 0.386200 -0.502262
O5    O     O_R   0.506520 0.658590 0.613800 -0.456251
O6    O     O_R   0.375880 0.506510 0.597910 -0.524471
O7    O     O_R   0.624120 0.493490 0.402090 -0.523973
O8    O     O_R   0.364640 0.493450 0.402110 -0.501428
O9    O     O_R   0.635360 0.506550 0.597890 -0.501245
O10   O     O_3   0.499323 0.834268 0.747016 -0.551338

loop_
_geom_bond_atom_site_label_1
_geom_bond_atom_site_label_2
_ccdc_geom_bond_type
C25   C31   A    
Cu1   Cu2   S    
C26   C32   A    
C16   C21   S    
C27   C29   A    
Cu2   O7    S    
C35   C36   S    
Cu1   O9    S    
C4    H52   S    
C50   H43   S    
C34   H51   S    
C31   H45   S    
C5    C53   A    
C19   C21   A    
C24   C26   A    
C38   C39   S    
C11   C14   A    
Cu1   O6    S    
C41   H27   S    
C17   C20   S    
C10   N1    A    
C47   H36   S    
C42   O2    S    
C13   N1    A    
C52   C54   A    
C22   C25   A    
Cu2   O3    S    
C40   H24   S    
C36   H7    S    
C33   H13   S    
C4    C45   A    
C12   O5    A    
C44   C52   S    
C7    C15   A    
Cu1   N1    S    
C11   N2    A    
C47   H33   S    
C47   H35   S    
C16   O6    A    
Cu2   N2    S    
C44   C46   S    
C38   H19   S    
C2    C45   A    
C48   C53   S    
C50   H42   S    
C9    H6    S    
C23   C30   A    
C42   H28   S    
C4    C6    A    
C2    O10   S    
C49   H46   S    
C18   C29   A    
C3    C51   A    
C36   H9    S    
C35   H10   S    
C48   H47   S    
C37   H21   S    
C29   C34   A    
C32   C34   A    
C37   C38   S    
C44   H40   S    
C16   O8    A    
C18   H1    S    
C46   H38   S    
C35   H11   S    
C39   H16   S    
C41   H25   S    
C24   C37   S    
C54   O2    S    
C19   H12   S    
C42   H29   S    
C1    C51   S    
C33   H14   S    
C40   C41   S    
C40   O10   S    
C37   H20   S    
C20   C22   A    
C32   H49   S    
C13   C15   A    
C40   H22   S    
C10   H5    S    
C8    H34   S    
C1    O4    A    
C43   H32   S    
C11   H4    S    
C7    H23   S    
C12   O3    A    
C38   H18   S    
C9    N2    A    
C7    C9    A    
C22   C33   S    
C46   C47   S    
C48   C49   S    
C50   H41   S    
C8    C14   A    
Cu1   O1    S    
C43   H30   S    
Cu2   O8    S    
C12   C45   S    
C3    C5    A    
C2    C53   A    
C13   H3    S    
C17   O7    A    
C25   C27   A    
C26   C28   A    
C51   C54   A    
C43   H31   S    
C28   C30   A    
C44   H39   S    
C1    O1    A    
C49   H44   S    
C23   H50   S    
C5    C6    A    
C46   H37   S    
Cu1   O5    S    
C41   H26   S    
C33   C35   S    
C18   C20   A    
C39   H17   S    
C17   O9    A    
C3    H2    S    
Cu2   O4    S    
C8    C10   A    
C49   C50   S    
C42   C43   S    
C21   C24   A    
C27   C28   A    
C39   H15   S    
C14   C15   A    
C6    C52   A    
C36   H8    S    
C19   C30   A    
C23   C31   A    
C48   H48   S    
