data_mof_unit_7588.cif
_audit_creation_date              2012-12-10T20:42:39-0500
_audit_creation_method            fapswitch 2.2
_symmetry_space_group_name_H-M    P1
_symmetry_Int_Tables_number       1
_space_group_crystal_system       triclinic
_cell_length_a                    8.907999
_cell_length_b                    10.681364
_cell_length_c                    9.886011
_cell_angle_alpha                 89.878225
_cell_angle_beta                  89.981457
_cell_angle_gamma                 89.955691
_cell_volume                      940.647338251

loop_
_atom_site_label
_atom_site_type_symbol
_atom_type_description
_atom_site_fract_x
_atom_site_fract_y
_atom_site_fract_z
_atom_type_partial_charge
C1    C     C_R   0.504620 0.259972 0.500125 0.867501
C2    C     C_R   0.368824 0.487208 0.928936 0.228344
C3    C     C_3   0.263645 0.378553 0.924503 0.200449
C4    C     C_R   0.218773 0.499912 0.499998 0.930974
C5    C     C_3   0.264302 0.378345 0.078276 -0.478499
C6    C     C_R   0.504763 0.739976 0.499865 0.873417
C7    C     C_R   0.781246 0.499961 0.500008 0.932555
C8    C     C_1   0.065426 0.499860 0.500013 -0.200908
C9    C     C_1   0.934605 0.499875 0.500003 -0.194436
C10   C     C_R   0.529515 0.063416 0.622740 0.143484
C11   C     C_R   0.528755 0.128523 0.500618 -0.101580
C12   C     C_R   0.557231 0.935474 0.378984 -0.223041
C13   C     C_R   0.557095 0.064973 0.379156 -0.226457
C14   C     C_R   0.528964 0.871319 0.500257 -0.104668
C15   C     C_R   0.529531 0.935686 0.622510 0.132861
C16   C     C_3   0.423672 0.928016 0.739582 -0.460414
C17   C     C_3   0.423658 0.069888 0.739898 -0.501808
C18   C     C_R   0.369093 0.486767 0.071347 0.145572
C19   C     C_R   0.627551 0.523905 0.071705 -0.126744
C20   C     C_R   0.627582 0.523826 0.928034 -0.138439
H1    H     H_    0.568547 0.114158 0.283759 0.173594
H2    H     H_    0.731182 0.541464 0.125226 0.166220
H3    H     H_    0.731246 0.541277 0.874378 0.183182
H4    H     H_    0.108003 0.364517 0.788862 0.340818
H5    H     H_    0.313189 0.292951 0.878395 0.088342
H6    H     H_    0.154834 0.404427 0.124464 0.230314
H7    H     H_    0.317843 0.293589 0.122609 0.167665
H8    H     H_    0.568784 0.886773 0.283528 0.175246
H9    H     H_    0.313231 0.886885 0.711850 0.206789
H10   H     H_    0.477510 0.886574 0.830726 0.208073
H11   H     H_    0.313143 0.111265 0.712394 0.197455
H12   H     H_    0.477712 0.110230 0.831271 0.202620
N1    N     N_R   0.499010 0.499140 0.142800 -0.110601
N2    N     N_R   0.499010 0.499180 0.857150 -0.144180
O1    O     O_R   0.500020 0.316790 0.614690 -0.624192
O2    O     O_R   0.500000 0.316760 0.385350 -0.622692
O3    O     O_R   0.285350 0.500020 0.614650 -0.603782
O4    O     O_R   0.285340 0.499980 0.385310 -0.612972
O5    O     O_R   0.500000 0.683240 0.614650 -0.614259
O6    O     O_R   0.499980 0.683210 0.385310 -0.619878
O7    O     O_R   0.714660 0.500020 0.614690 -0.616771
O8    O     O_R   0.714650 0.499980 0.385350 -0.625999
O9    O     O_3   0.123218 0.413798 0.872680 -0.738619
Zn1   Zn    Zn3+2 0.500010 0.500020 0.653130 0.951369
Zn2   Zn    Zn3+2 0.499990 0.499980 0.346870 0.944096

loop_
_geom_bond_atom_site_label_1
_geom_bond_atom_site_label_2
_ccdc_geom_bond_type
O5    Zn1   S    
C6    C14   S    
N1    Zn2   S    
C19   C20   A    
C1    C11   S    
C20   H3    S    
C4    C8    S    
C20   N2    A    
C2    N2    A    
O3    Zn1   S    
C14   C15   A    
C2    C3    S    
C13   H1    S    
O2    Zn2   S    
C4    O3    A    
O1    Zn1   S    
C11   C13   A    
C3    O9    S    
C12   H8    S    
O7    Zn1   S    
C12   C14   A    
C10   C15   A    
C7    O7    A    
O6    Zn2   S    
C17   H11   S    
C18   N1    A    
C6    O6    A    
C2    C18   A    
C10   C11   A    
C10   C17   S    
C16   H10   S    
C5    H6    S    
C3    H5    S    
C19   H2    S    
N2    Zn1   S    
C12   C13   A    
C1    O1    A    
C19   N1    A    
C7    O8    A    
C17   H12   S    
C7    C9    S    
H4    O9    S    
C6    O5    A    
C16   C17   S    
O4    Zn2   S    
C5    C18   S    
C16   H9    S    
C5    H7    S    
C15   C16   S    
C1    O2    A    
C4    O4    A    
C8    C9    T    
C3    C5    S    
O8    Zn2   S    
