data_mof_unit_50127.cif
_audit_creation_date              2012-12-11T16:57:20-0500
_audit_creation_method            fapswitch 2.2
_symmetry_space_group_name_H-M    P1
_symmetry_Int_Tables_number       1
_space_group_crystal_system       triclinic
_cell_length_a                    14.40013
_cell_length_b                    16.410828
_cell_length_c                    6.959423
_cell_angle_alpha                 90.081076
_cell_angle_beta                  99.077408
_cell_angle_gamma                 90.034023
_cell_volume                      1624.0378509

loop_
_atom_site_label
_atom_site_type_symbol
_atom_type_description
_atom_site_fract_x
_atom_site_fract_y
_atom_site_fract_z
_atom_type_partial_charge
O1    O     O_R   0.584990 0.413650 0.534420 -0.549792
O2    O     O_R   0.584990 0.586350 0.534420 -0.549402
O3    O     O_R   0.596190 0.585230 0.208380 -0.535356
O4    O     O_R   0.596190 0.414770 0.208380 -0.536055
O5    O     O_R   0.415010 0.586420 0.976930 -0.544297
O6    O     O_R   0.415010 0.413580 0.976930 -0.543807
C1    C     C_R   0.619122 0.613885 0.385034 0.710943
C2    C     C_R   0.618896 0.386030 0.384800 0.709903
O7    O     O_3   0.440560 0.500000 0.319140 -0.373316
V1    V     V_3+5 0.511030 0.500000 0.068070 1.444408
O8    O     O_R   0.403810 0.414840 0.643540 -0.544341
O9    O     O_R   0.403810 0.585160 0.643540 -0.544000
C3    C     C_R   0.381212 0.386706 0.805633 0.745257
C4    C     C_R   0.381246 0.613271 0.805771 0.744421
V2    V     V_3+5 0.488970 0.500000 0.560620 1.428310
O10   O     O_3   0.559440 0.500000 0.859420 -0.375934
H1    H     H_    0.318780 0.694135 0.099302 0.156243
H2    H     H_    0.319080 0.305891 0.099145 0.156748
C5    C     C_2   0.308400 0.677190 0.794973 -0.305399
C6    C     C_2   0.308308 0.322726 0.794771 -0.302244
C7    C     C_2   0.281996 0.710836 0.956248 -0.164243
C8    C     C_2   0.282078 0.289139 0.956166 -0.157442
H3    H     H_    0.238754 0.806208 0.242206 0.139857
H4    H     H_    0.238979 0.193955 0.242319 0.141261
C9    C     C_2   0.192498 0.816616 0.105306 -0.356263
C10   C     C_2   0.192556 0.183490 0.105556 -0.351661
C11   C     C_2   0.203712 0.770773 0.946385 -0.006068
C12   C     C_2   0.203671 0.229244 0.946638 -0.007626
H5    H     H_    0.274651 0.695633 0.651003 0.137493
H6    H     H_    0.274356 0.304233 0.650830 0.136676
C13   C     C_R   0.752000 0.691546 0.591681 0.056112
C14   C     C_R   0.751010 0.308180 0.591414 0.054342
C15   C     C_R   0.688693 0.682169 0.417296 -0.073911
C16   C     C_R   0.688309 0.317817 0.416786 -0.116779
C17   C     C_R   0.685520 0.745216 0.280817 -0.199029
C18   C     C_R   0.686640 0.255772 0.278216 -0.103402
H7    H     H_    0.629000 0.744676 0.159289 0.100925
H8    H     H_    0.631923 0.257435 0.153656 0.130598
C19   C     C_R   0.744834 0.814349 0.312385 -0.021209
C20   C     C_R   0.748807 0.188365 0.304950 -0.050225
C21   C     C_R   0.815711 0.819057 0.480166 -0.094532
C22   C     C_R   0.817204 0.182082 0.476465 -0.158579
C23   C     C_R   0.815882 0.757414 0.619308 0.070218
C24   C     C_R   0.815016 0.242444 0.618086 0.107206
C25   C     C_3   0.799763 0.771827 0.822687 -0.421075
C26   C     C_3   0.796000 0.225676 0.817606 -0.427227
C27   C     C_3   0.727924 0.703350 0.792226 -0.089064
C28   C     C_3   0.725422 0.294928 0.789863 -0.112623
H9    H     H_    0.770369 0.833359 0.840080 0.190512
H10   H     H_    0.764753 0.164208 0.823388 0.207561
H11   H     H_    0.864259 0.758684 0.928919 0.156366
H12   H     H_    0.859516 0.236385 0.928507 0.147275
O11   O     O_R   0.921430 0.915960 0.371040 -0.523332
O12   O     O_R   0.921430 0.084040 0.371040 -0.547427
O13   O     O_R   0.910450 0.087500 0.697310 -0.545139
O14   O     O_R   0.910450 0.912500 0.697310 -0.551260
O15   O     O_R   0.091710 0.087460 0.928430 -0.538781
O16   O     O_R   0.091710 0.912540 0.928430 -0.539343
C29   C     C_R   0.885592 0.112573 0.517356 0.737361
C30   C     C_R   0.885774 0.887359 0.518217 0.785278
O17   O     O_3   0.065970 0.000000 0.586140 -0.362553
V3    V     V_3+5 0.995640 0.000000 0.837400 1.478989
O18   O     O_R   0.103020 0.915700 0.261710 -0.531626
O19   O     O_R   0.103020 0.084300 0.261710 -0.531163
C31   C     C_R   0.123167 0.884453 0.099227 0.753934
C32   C     C_R   0.123175 0.115588 0.099376 0.750570
V4    V     V_3+5 0.017940 1.000000 0.344880 1.507167
O20   O     O_3   0.947330 1.000000 0.046180 -0.385204
C33   C     C_1   0.137657 0.775405 0.765642 0.359178
N1    N     N_1   0.085286 0.778665 0.621462 -0.384462
C34   C     C_1   0.137369 0.224588 0.766192 0.359301
N2    N     N_1   0.084807 0.221315 0.622241 -0.378768
C35   C     C_1   0.756239 0.634681 0.922830 0.277592
N3    N     N_1   0.779714 0.581943 0.029065 -0.297489
C36   C     C_1   0.754471 0.362362 0.924452 0.270789
N4    N     N_1   0.778589 0.414063 0.033745 -0.297174
C37   C     C_2   0.718368 0.884874 0.184276 0.380326
H13   H     H_    0.671110 0.877159 0.048008 0.101669
O21   O     O_2   0.742753 0.953421 0.235677 -0.534249
C38   C     C_2   0.733104 0.122227 0.159970 0.450325
H14   H     H_    0.791120 0.087306 0.122267 0.093994
O22   O     O_2   0.653940 0.106754 0.076348 -0.481340
C39   C     C_2   0.626907 0.729260 0.790953 0.354144
H15   H     H_    0.578366 0.688666 0.848061 0.054294
O23   O     O_2   0.597393 0.793773 0.718085 -0.523300
C40   C     C_2   0.623786 0.269905 0.785131 0.444895
H16   H     H_    0.575575 0.310497 0.843309 0.028930
O24   O     O_2   0.593501 0.206189 0.708461 -0.493857

loop_
_geom_bond_atom_site_label_1
_geom_bond_atom_site_label_2
_ccdc_geom_bond_type
O16   V3    S    
O18   C31   A    
O13   C29   A    
O1    C2    A    
C1    C15   S    
C35   N3    T    
O2    C1    A    
O15   C32   A    
O4    C2    A    
O15   V3    S    
C19   C21   A    
C6    H6    S    
C37   H13   S    
C13   C23   A    
C19   C37   S    
C5    C7    D    
H4    C10   S    
O3    C1    A    
C40   O24   D    
C25   H11   S    
V2    O10   S    
O13   V3    S    
C26   H12   S    
O8    V2    S    
C13   C15   A    
O1    V2    S    
C27   C39   S    
O7    V1    S    
C16   C18   A    
C11   C33   S    
C20   C22   A    
C7    C11   S    
C13   C27   S    
C21   C23   A    
C28   C36   S    
O17   V3    S    
C22   C24   A    
O11   C30   A    
C24   C26   S    
C26   C28   S    
O12   C29   A    
C25   C27   S    
O18   V4    S    
V4    O20   S    
C10   C32   S    
O19   V4    S    
C18   C20   A    
C9    C31   S    
C27   C35   S    
C38   O22   D    
C40   H16   S    
O12   V4    S    
H1    C7    S    
O14   C30   A    
C14   C16   A    
C17   C19   A    
C36   N4    T    
O17   V4    S    
O16   C31   A    
C39   H15   S    
O9    V2    S    
C25   H9    S    
C20   C38   S    
C14   C24   A    
C37   O21   D    
C2    C16   S    
O2    V2    S    
C23   C25   S    
O5    C4    A    
C39   O23   D    
O9    C4    A    
O14   V3    S    
C12   C34   S    
O4    V1    S    
C5    H5    S    
C3    C6    S    
C17   H7    S    
H2    C8    S    
C4    C5    S    
C21   C30   S    
C6    C8    D    
C38   H14   S    
C22   C29   S    
O6    V1    S    
C9    C11   D    
C26   H10   S    
C10   C12   D    
V3    O20   S    
C18   H8    S    
O7    V2    S    
O5    V1    S    
O3    V1    S    
V1    O10   S    
O6    C3    A    
O8    C3    A    
C14   C28   S    
C15   C17   A    
C28   C40   S    
H3    C9    S    
C33   N1    T    
O11   V4    S    
C34   N2    T    
C8    C12   S    
O19   C32   A    
