data_mof_unit_32270.cif
_audit_creation_date              2012-12-10T18:57:09-0500
_audit_creation_method            fapswitch 2.2
_symmetry_space_group_name_H-M    P1
_symmetry_Int_Tables_number       1
_space_group_crystal_system       triclinic
_cell_length_a                    8.696835
_cell_length_b                    10.861172
_cell_length_c                    9.568091
_cell_angle_alpha                 89.877433
_cell_angle_beta                  96.791086
_cell_angle_gamma                 90.995063
_cell_volume                      897.304680955

loop_
_atom_site_label
_atom_site_type_symbol
_atom_type_description
_atom_site_fract_x
_atom_site_fract_y
_atom_site_fract_z
_atom_type_partial_charge
C1    C     C_R   0.492742 0.262129 0.498267 0.892002
C2    C     C_R   0.554105 0.937606 0.379061 0.346817
C3    C     C_R   0.529109 0.871222 0.501864 -0.271675
C4    C     C_R   0.518192 0.938102 0.624332 0.051689
C5    C     C_3   0.413844 0.924020 0.736265 -0.359064
C6    C     C_3   0.403989 0.063523 0.734644 -0.357937
C7    C     C_R   0.631871 0.475670 0.087342 0.369437
C8    C     C_R   0.367270 0.518339 0.059650 -0.030635
C9    C     C_R   0.367281 0.518242 0.911469 -0.078522
C10   C     C_R   0.631298 0.475170 0.939880 0.289490
C11   C     C_3   0.779513 0.546202 0.946221 -0.524363
C12   C     C_R   0.204831 0.490991 0.465744 0.837388
C13   C     C_3   0.780356 0.549067 0.103747 -0.465734
C14   C     C_R   0.509463 0.737556 0.500783 0.866710
C15   C     C_R   0.795826 0.499664 0.534743 0.925099
C16   C     C_2   0.042396 0.462398 0.454412 0.072649
C17   C     C_2   0.960745 0.512700 0.548841 -0.383405
C18   C     C_R   0.510054 0.064469 0.622132 0.052336
C19   C     C_R   0.495626 0.128010 0.494430 -0.265123
C20   C     C_R   0.509898 0.061512 0.368093 0.357442
Cu1   Cu    Cu3+1 0.499990 0.499980 0.640670 0.962774
Cu2   Cu    Cu3+1 0.500010 0.500020 0.359330 1.072087
H1    H     H_    0.260152 0.535039 0.845485 0.146717
H2    H     H_    0.874457 0.490526 0.912033 0.210844
H3    H     H_    0.765542 0.638580 0.896327 0.229200
H4    H     H_    0.879696 0.499373 0.157715 0.237011
H5    H     H_    0.767756 0.642660 0.143922 0.280695
H6    H     H_    0.014202 0.575439 0.629612 0.129732
H7    H     H_    0.302288 0.876800 0.698195 0.193868
H8    H     H_    0.475244 0.887278 0.835755 0.247185
H9    H     H_    0.286449 0.097421 0.696570 0.201329
H10   H     H_    0.459156 0.107300 0.833397 0.249853
H11   H     H_    0.259892 0.535265 0.101894 0.155900
N1    N     N_R   0.500980 0.500930 0.148050 -0.180683
N2    N     N_R   0.500990 0.500890 0.852140 -0.196990
O1    O     O_R   0.500000 0.319640 0.618810 -0.590138
O2    O     O_R   0.500020 0.319680 0.381230 -0.502126
O3    O     O_R   0.274830 0.499980 0.591380 -0.613741
O4    O     O_R   0.274850 0.500020 0.353800 -0.579214
O5    O     O_R   0.499980 0.680320 0.618770 -0.592576
O6    O     O_R   0.500000 0.680360 0.381190 -0.518373
O7    O     O_R   0.725150 0.499980 0.646200 -0.603269
O8    O     O_R   0.725170 0.500020 0.408620 -0.544808
Br1   Br    Br    0.969140 0.320467 0.343134 -0.442422
S1    S     S_3+6 0.440725 0.119260 0.197368 0.059574
O9    O     O_2   0.565716 0.195733 0.141715 -0.265606
O10   O     O_2   0.394540 0.015233 0.097060 -0.262584
O11   O     O_3   0.283887 0.206077 0.206602 -0.497624
H12   H     H_    0.262765 0.244534 0.112471 0.363173
S2    S     S_3+6 0.669366 0.876701 0.255573 0.037544
O12   O     O_2   0.788215 0.793988 0.331958 -0.344320
O13   O     O_2   0.568447 0.804930 0.144847 -0.295783
O14   O     O_3   0.762026 0.990466 0.178200 -0.443250
H13   H     H_    0.815073 0.948982 0.105701 0.371421

loop_
_geom_bond_atom_site_label_1
_geom_bond_atom_site_label_2
_ccdc_geom_bond_type
C8    C9    A    
C7    C10   A    
S2    O13   D    
C10   N2    A    
Cu1   N2    S    
C16   Br1   S    
C6    H10   S    
C19   C20   A    
C1    O2    A    
C4    C18   A    
C17   H6    S    
C12   O4    A    
C2    C3    A    
C15   O8    A    
Cu1   O1    S    
C8    N1    A    
O14   H13   S    
C11   C13   S    
C3    C14   S    
C14   O6    A    
C6    C18   S    
Cu2   O4    S    
Cu1   Cu2   S    
O11   H12   S    
C6    H9    S    
C5    H7    S    
C8    H11   S    
S1    O10   D    
C12   O3    A    
C5    C6    S    
Cu2   N1    S    
C7    N1    A    
C13   H4    S    
C1    C19   S    
S2    O14   S    
C10   C11   S    
C11   H3    S    
C2    C20   A    
C3    C4    A    
Cu2   O6    S    
C20   S1    S    
C11   H2    S    
C7    C13   S    
C15   O7    A    
C15   C17   S    
C18   C19   A    
C5    H8    S    
S1    O11   S    
C9    N2    A    
C4    C5    S    
C9    H1    S    
Cu1   O7    S    
C2    S2    S    
S2    O12   D    
S1    O9    D    
Cu2   O2    S    
C14   O5    A    
Cu2   O8    S    
C13   H5    S    
Cu1   O3    S    
C12   C16   S    
C1    O1    A    
C16   C17   D    
Cu1   O5    S    
