data_mof_unit_51639.cif
_audit_creation_date              2012-12-10T16:41:57-0500
_audit_creation_method            fapswitch 2.2
_symmetry_space_group_name_H-M    P1
_symmetry_Int_Tables_number       1
_space_group_crystal_system       triclinic
_cell_length_a                    10.880217
_cell_length_b                    8.689682
_cell_length_c                    7.448737
_cell_angle_alpha                 102.935131
_cell_angle_beta                  94.24848
_cell_angle_gamma                 92.387353
_cell_volume                      683.258733681

loop_
_atom_site_label
_atom_site_type_symbol
_atom_type_description
_atom_site_fract_x
_atom_site_fract_y
_atom_site_fract_z
_atom_type_partial_charge
C1    C     C_R   0.496120 0.199724 0.453289 0.885087
C2    C     C_2   0.505283 0.968116 0.573014 -0.367859
C3    C     C_R   0.265214 0.507228 0.503531 0.725441
C4    C     C_R   0.503646 0.800261 0.546718 0.897414
C5    C     C_R   0.734157 0.494169 0.497164 0.830283
C6    C     C_2   0.925237 0.479150 0.346088 -0.131228
C7    C     C_2   0.864567 0.473715 0.493723 -0.242047
C8    C     C_2   0.058640 0.464326 0.355507 -0.249891
C9    C     C_2   0.132696 0.528952 0.509621 0.297510
C10   C     C_2   0.494197 0.031846 0.426992 -0.371653
Cu1   Cu    Cu3+1 0.513740 0.517380 0.684380 0.941941
Cu2   Cu    Cu3+1 0.486260 0.482620 0.315620 0.944081
H1    H     H_    0.877071 0.488721 0.216383 0.158804
H2    H     H_    0.912033 0.451279 0.617818 0.172658
H3    H     H_    0.095577 0.396417 0.232604 0.134586
H4    H     H_    0.483733 0.960330 0.286224 0.177872
H5    H     H_    0.515702 0.039626 0.713780 0.178713
H6    H     H_    0.403276 0.378326 0.948570 0.220472
H7    H     H_    0.596624 0.621805 0.051448 0.226346
N1    N     N_2   0.465540 0.456420 0.038510 -0.223923
N2    N     N_2   0.534460 0.543580 0.961490 -0.222702
O1    O     O_R   0.508930 0.286130 0.619780 -0.582441
O2    O     O_R   0.485720 0.256780 0.308360 -0.584278
O3    O     O_R   0.333540 0.514670 0.655670 -0.610258
O4    O     O_R   0.310330 0.485320 0.344250 -0.594820
O5    O     O_R   0.514280 0.743220 0.691640 -0.585632
O6    O     O_R   0.491070 0.713870 0.380220 -0.582696
O7    O     O_R   0.689670 0.514680 0.655750 -0.584444
O8    O     O_R   0.666460 0.485330 0.344330 -0.586882
O9    O     O_3   0.086791 0.641404 0.649751 -0.575632
C11   C     C_3   0.126288 0.622582 0.828264 0.079289
H8    H     H_    0.217371 0.687347 0.875167 0.186370
H9    H     H_    0.131480 0.495634 0.833303 0.128817
C12   C     C_3   0.035159 0.695626 0.963648 -0.804686
H10   H     H_    0.943140 0.631400 0.927000 0.241347
H11   H     H_    0.068577 0.688486 0.105921 0.216898
H12   H     H_    0.026173 0.821908 0.960657 0.257143

loop_
_geom_bond_atom_site_label_1
_geom_bond_atom_site_label_2
_ccdc_geom_bond_type
C4    O5    A    
Cu1   Cu2   S    
C11   H9    S    
C6    C7    D    
C3    C9    S    
Cu2   O8    S    
C5    O7    A    
Cu1   O1    S    
C2    C4    S    
C11   H8    S    
Cu2   O4    S    
Cu2   N1    S    
C11   C12   S    
C1    O1    A    
C10   H4    S    
C2    H5    S    
Cu2   O2    S    
C3    O3    A    
C9    O9    S    
Cu1   O7    S    
H7    N2    S    
C1    O2    A    
C8    H3    S    
C12   H11   S    
O9    C11   S    
Cu2   O6    S    
C12   H12   S    
C5    O8    A    
Cu1   O3    S    
C3    O4    A    
C4    O6    A    
N1    N2    D    
H6    N1    S    
C12   H10   S    
C5    C7    S    
C6    C8    S    
Cu1   O5    S    
Cu1   N2    S    
C7    H2    S    
C1    C10   S    
C8    C9    D    
C6    H1    S    
C2    C10   D    
