data_mof_unit_9223.cif
_audit_creation_date              2012-12-11T15:26:09-0500
_audit_creation_method            fapswitch 2.2
_symmetry_space_group_name_H-M    P1
_symmetry_Int_Tables_number       1
_space_group_crystal_system       monoclinic
_cell_length_a                    24.48948
_cell_length_b                    17.05005
_cell_length_c                    15.546923
_cell_angle_alpha                 90.0
_cell_angle_beta                  51.001503
_cell_angle_gamma                 90.0
_cell_volume                      5045.00368566

loop_
_atom_site_label
_atom_site_type_symbol
_atom_type_description
_atom_site_fract_x
_atom_site_fract_y
_atom_site_fract_z
_atom_type_partial_charge
C1    C     C_R   0.332837 0.106335 0.802253 -0.212975
C2    C     C_R   0.650481 0.858496 0.241560 -0.197866
C3    C     C_R   0.667163 0.106334 0.197746 -0.212975
C4    C     C_R   0.349519 0.858496 0.758440 -0.197866
C5    C     C_R   0.832837 0.606334 0.802253 -0.212975
C6    C     C_R   0.150481 0.358496 0.241560 -0.197866
C7    C     C_R   0.167163 0.606335 0.197746 -0.212975
C8    C     C_R   0.849519 0.358496 0.758440 -0.197866
C9    C     C_2   0.694533 0.146543 0.016782 -0.095749
C10   C     C_2   0.353803 0.744784 0.859338 -0.124049
C11   C     C_2   0.305467 0.146544 0.983218 -0.095748
C12   C     C_2   0.646197 0.744784 0.140662 -0.124049
C13   C     C_2   0.194533 0.646544 0.016782 -0.095747
C14   C     C_2   0.853803 0.244784 0.859337 -0.124050
C15   C     C_2   0.805467 0.646544 0.983218 -0.095748
C16   C     C_2   0.146197 0.244784 0.140661 -0.124048
C17   C     C_2   0.764119 0.146819 0.958303 -0.127088
C18   C     C_2   0.305707 0.701379 0.866495 -0.140330
C19   C     C_2   0.235881 0.146819 0.041696 -0.127090
C20   C     C_2   0.694293 0.701379 0.133505 -0.140331
C21   C     C_2   0.264119 0.646819 0.958304 -0.127089
C22   C     C_2   0.805707 0.201379 0.866495 -0.140330
C23   C     C_2   0.735881 0.646819 0.041696 -0.127088
C24   C     C_2   0.194293 0.201379 0.133505 -0.140332
C25   C     C_R   0.586993 0.145954 0.591926 -0.100193
C26   C     C_R   0.382900 0.901433 0.409811 -0.025047
C27   C     C_R   0.413007 0.145954 0.408074 -0.100192
C28   C     C_R   0.617100 0.901433 0.590188 -0.025047
C29   C     C_R   0.086993 0.645954 0.591926 -0.100193
C30   C     C_R   0.882900 0.401433 0.409811 -0.025048
C31   C     C_R   0.913007 0.645953 0.408074 -0.100192
C32   C     C_R   0.117100 0.401433 0.590188 -0.025047
C33   C     C_R   0.662208 0.144818 0.407467 -0.110800
C34   C     C_R   0.310772 0.898175 0.592357 -0.125427
C35   C     C_R   0.337791 0.144817 0.592533 -0.110800
C36   C     C_R   0.689228 0.898175 0.407643 -0.125427
C37   C     C_R   0.162209 0.644818 0.407467 -0.110800
C38   C     C_R   0.810772 0.398175 0.592357 -0.125427
C39   C     C_R   0.837791 0.644818 0.592533 -0.110800
C40   C     C_R   0.189228 0.398175 0.407643 -0.125427
C41   C     C_R   0.577759 0.103568 0.195210 0.411168
C42   C     C_R   0.437440 0.860622 0.766025 0.477430
C43   C     C_R   0.422241 0.103568 0.804790 0.411168
C44   C     C_R   0.562560 0.860622 0.233975 0.477429
C45   C     C_R   0.077759 0.603568 0.195210 0.411168
C46   C     C_R   0.937440 0.360622 0.766024 0.477429
C47   C     C_R   0.922241 0.603568 0.804790 0.411168
C48   C     C_R   0.062559 0.360621 0.233975 0.477429
C49   C     C_R   0.352090 0.122734 0.866903 0.027544
C50   C     C_R   0.620024 0.817449 0.204650 0.013315
C51   C     C_R   0.647910 0.122733 0.133097 0.027545
C52   C     C_R   0.379976 0.817449 0.795350 0.013316
C53   C     C_R   0.852090 0.622733 0.866903 0.027544
C54   C     C_R   0.120024 0.317449 0.204651 0.013315
C55   C     C_R   0.147910 0.622733 0.133097 0.027544
C56   C     C_R   0.879976 0.317449 0.795349 0.013316
C57   C     C_R   0.637660 0.190121 0.499630 0.015702
C58   C     C_R   0.314695 0.885034 0.501208 -0.000665
C59   C     C_R   0.362340 0.190121 0.500370 0.015702
C60   C     C_R   0.685305 0.885034 0.498792 -0.000665
C61   C     C_R   0.137660 0.690121 0.499630 0.015702
C62   C     C_R   0.814695 0.385034 0.501207 -0.000665
C63   C     C_R   0.862340 0.690121 0.500370 0.015702
C64   C     C_R   0.185305 0.385034 0.498792 -0.000665
C65   C     C_R   0.273768 0.295958 0.599970 -0.147642
C66   C     C_R   0.808993 0.844512 0.399204 -0.144770
C67   C     C_R   0.726232 0.295958 0.400030 -0.147642
C68   C     C_R   0.191006 0.844512 0.600796 -0.144770
C69   C     C_R   0.773768 0.795958 0.599970 -0.147641
C70   C     C_R   0.308993 0.344512 0.399204 -0.144770
C71   C     C_R   0.226232 0.795958 0.400030 -0.147641
C72   C     C_R   0.691006 0.344512 0.600796 -0.144770
C73   C     C_R   0.728492 0.844288 0.599608 -0.135524
C74   C     C_R   0.354206 0.296067 0.399660 -0.154816
C75   C     C_R   0.271508 0.844288 0.400392 -0.135524
C76   C     C_R   0.645794 0.296067 0.600340 -0.154816
C77   C     C_R   0.228492 0.344288 0.599608 -0.135524
C78   C     C_R   0.854206 0.796067 0.399660 -0.154816
C79   C     C_R   0.771508 0.344288 0.400392 -0.135524
C80   C     C_R   0.145794 0.796067 0.600340 -0.154817
C81   C     C_R   0.742708 0.862086 0.499142 0.125100
C82   C     C_R   0.332837 0.264626 0.500013 0.128251
C83   C     C_R   0.257292 0.862086 0.500858 0.125099
C84   C     C_R   0.667163 0.264626 0.499987 0.128251
C85   C     C_R   0.242708 0.362086 0.499142 0.125100
C86   C     C_R   0.832837 0.764626 0.500013 0.128251
C87   C     C_R   0.757292 0.362086 0.500857 0.125100
C88   C     C_R   0.167163 0.764626 0.499987 0.128251
H1    H     H_    0.280112 0.103412 0.829092 0.121334
H2    H     H_    0.697841 0.844236 0.229446 0.127222
H3    H     H_    0.719887 0.103412 0.170908 0.121334
H4    H     H_    0.302159 0.844236 0.770554 0.127223
H5    H     H_    0.780112 0.603412 0.829092 0.121334
H6    H     H_    0.197841 0.344236 0.229446 0.127223
H7    H     H_    0.219887 0.603412 0.170908 0.121334
H8    H     H_    0.802159 0.344236 0.770554 0.127222
H9    H     H_    0.556718 0.162945 0.677176 0.148394
H10   H     H_    0.399752 0.913810 0.328439 0.174909
H11   H     H_    0.443281 0.162945 0.322824 0.148394
H12   H     H_    0.600248 0.913811 0.671561 0.174909
H13   H     H_    0.056718 0.662945 0.677176 0.148394
H14   H     H_    0.899752 0.413811 0.328439 0.174909
H15   H     H_    0.943281 0.662945 0.322824 0.148394
H16   H     H_    0.100248 0.413811 0.671561 0.174909
H17   H     H_    0.702348 0.159762 0.321669 0.101727
H18   H     H_    0.263646 0.902513 0.677470 0.094565
H19   H     H_    0.297652 0.159762 0.678331 0.101726
H20   H     H_    0.736354 0.902513 0.322530 0.094565
H21   H     H_    0.202348 0.659762 0.321669 0.101726
H22   H     H_    0.763645 0.402513 0.677470 0.094565
H23   H     H_    0.797652 0.659762 0.678331 0.101726
H24   H     H_    0.236354 0.402513 0.322530 0.094565
H25   H     H_    0.258100 0.277070 0.679024 0.124285
H26   H     H_    0.823516 0.861082 0.320116 0.115366
H27   H     H_    0.741900 0.277070 0.320976 0.124285
H28   H     H_    0.176484 0.861082 0.679884 0.115366
H29   H     H_    0.758100 0.777070 0.679024 0.124285
H30   H     H_    0.323516 0.361082 0.320116 0.115367
H31   H     H_    0.241900 0.777070 0.320976 0.124285
H32   H     H_    0.676484 0.361082 0.679884 0.115366
H33   H     H_    0.679492 0.860316 0.678546 0.150201
H34   H     H_    0.401916 0.277300 0.320827 0.126445
H35   H     H_    0.320508 0.860316 0.321454 0.150202
H36   H     H_    0.598084 0.277300 0.679173 0.126445
H37   H     H_    0.179491 0.360316 0.678546 0.150201
H38   H     H_    0.901916 0.777300 0.320827 0.126445
H39   H     H_    0.820508 0.360316 0.321454 0.150202
H40   H     H_    0.098084 0.777300 0.679173 0.126446
H41   H     H_    0.288442 0.715784 0.818926 0.144130
H42   H     H_    0.788338 0.120427 0.990441 0.136409
H43   H     H_    0.711558 0.715784 0.181073 0.144130
H44   H     H_    0.211662 0.120426 0.009559 0.136410
H45   H     H_    0.788441 0.215784 0.818927 0.144130
H46   H     H_    0.288338 0.620426 0.990441 0.136409
H47   H     H_    0.211557 0.215782 0.181075 0.144131
H48   H     H_    0.711662 0.620426 0.009559 0.136409
H49   H     H_    0.369867 0.730080 0.908562 0.176397
H50   H     H_    0.671083 0.173964 0.983774 0.161297
H51   H     H_    0.630133 0.730080 0.091438 0.176397
H52   H     H_    0.328916 0.173965 0.016226 0.161297
H53   H     H_    0.869868 0.230079 0.908560 0.176398
H54   H     H_    0.171084 0.673964 0.983774 0.161297
H55   H     H_    0.130134 0.230081 0.091436 0.176397
H56   H     H_    0.828916 0.673964 0.016226 0.161297
N1    N     N_R   0.388930 0.078160 0.705470 -0.065795
N2    N     N_R   0.611070 0.921840 0.294530 -0.068073
N3    N     N_R   0.611070 0.078160 0.294530 -0.065795
N4    N     N_R   0.388930 0.921840 0.705470 -0.068073
N5    N     N_R   0.888930 0.578160 0.705470 -0.065795
N6    N     N_R   0.111070 0.421840 0.294530 -0.068073
N7    N     N_R   0.111070 0.578160 0.294530 -0.065795
N8    N     N_R   0.888930 0.421840 0.705470 -0.068073
N9    N     N_R   0.580500 0.077840 0.556650 -0.039231
N10   N     N_R   0.419500 0.922160 0.443350 -0.051462
N11   N     N_R   0.419500 0.077840 0.443350 -0.039231
N12   N     N_R   0.580500 0.922160 0.556650 -0.051462
N13   N     N_R   0.080500 0.577840 0.556650 -0.039231
N14   N     N_R   0.919500 0.422160 0.443350 -0.051462
N15   N     N_R   0.919500 0.577840 0.443350 -0.039231
N16   N     N_R   0.080500 0.422160 0.556650 -0.051462
N17   N     N_R   0.626210 0.077590 0.443410 -0.044840
N18   N     N_R   0.373790 0.922410 0.556590 -0.047563
N19   N     N_R   0.373790 0.077590 0.556590 -0.044840
N20   N     N_R   0.626210 0.922410 0.443410 -0.047563
N21   N     N_R   0.126210 0.577590 0.443410 -0.044840
N22   N     N_R   0.873790 0.422410 0.556590 -0.047563
N23   N     N_R   0.873790 0.577590 0.556590 -0.044840
N24   N     N_R   0.126210 0.422410 0.443410 -0.047563
N25   N     N_R   0.554800 0.077270 0.294580 -0.088575
N26   N     N_R   0.445200 0.922730 0.705420 -0.083760
N27   N     N_R   0.445200 0.077270 0.705420 -0.088575
N28   N     N_R   0.554800 0.922730 0.294580 -0.083760
N29   N     N_R   0.054800 0.577270 0.294580 -0.088575
N30   N     N_R   0.945200 0.422730 0.705420 -0.083760
N31   N     N_R   0.945200 0.577270 0.705420 -0.088575
N32   N     N_R   0.054800 0.422730 0.294580 -0.083759
Ni1   Ni    Ni4+2 0.382710 0.000000 0.629850 0.201539
Ni2   Ni    Ni4+2 0.617290 0.000000 0.370150 0.201539
Ni3   Ni    Ni4+2 0.882710 0.500000 0.629850 0.201539
Ni4   Ni    Ni4+2 0.117290 0.500000 0.370150 0.201539
Ni5   Ni    Ni4+2 0.513020 0.000000 0.629850 0.294864
Ni6   Ni    Ni4+2 0.486980 0.000000 0.370150 0.294864
Ni7   Ni    Ni4+2 0.013020 0.500000 0.629850 0.294864
Ni8   Ni    Ni4+2 0.986980 0.500000 0.370150 0.294864
Cl1   Cl    Cl    0.536380 0.081521 0.138066 -0.620691
Cl2   Cl    Cl    0.481079 0.845203 0.820606 -0.644667
Cl3   Cl    Cl    0.463620 0.081521 0.861934 -0.620691
Cl4   Cl    Cl    0.518921 0.845203 0.179394 -0.644666
Cl5   Cl    Cl    0.036380 0.581521 0.138066 -0.620691
Cl6   Cl    Cl    0.981079 0.345203 0.820606 -0.644667
Cl7   Cl    Cl    0.963620 0.581521 0.861934 -0.620691
Cl8   Cl    Cl    0.018921 0.345203 0.179393 -0.644666

loop_
_geom_bond_atom_site_label_1
_geom_bond_atom_site_label_2
_ccdc_geom_bond_type
C68   C80   A    
N6    N32   A    
N1    N27   A    
C3    N3    A    
N4    Ni1   S    
N7    N29   A    
N2    N28   A    
C36   H20   S    
C18   C21   S    
C64   C85   S    
C1    N1    A    
C9    C51   S    
C59   C82   S    
C7    C55   A    
C72   C76   A    
C10   C52   S    
C76   C84   A    
C79   C87   A    
C65   C82   A    
N11   Ni6   S    
N20   Ni2   S    
C40   H24   S    
C48   C54   A    
C27   H11   S    
C23   H48   S    
C4    C52   A    
C75   H35   S    
C15   C53   S    
C3    H3    S    
C8    N8    A    
C74   C82   A    
C48   N32   A    
C44   C50   A    
C4    N4    A    
N5    Ni3   S    
C5    N5    A    
N2    Ni2   S    
C35   C59   A    
C60   C81   S    
C69   H29   S    
C2    H2    S    
C67   H27   S    
C11   C19   D    
N18   Ni1   S    
C2    C50   A    
C7    H7    S    
C75   C83   A    
N29   Ni8   S    
N15   N23   A    
C6    H6    S    
C8    H8    S    
C70   C74   A    
N4    N26   A    
C46   N30   A    
C69   C73   A    
C10   H49   S    
N15   Ni8   S    
C38   H22   S    
C42   N26   A    
N16   Ni7   S    
C37   H21   S    
C47   C53   A    
N8    N30   A    
C28   H12   S    
C15   C23   D    
C14   H53   S    
C77   C85   A    
C67   C84   A    
C16   C24   D    
C12   C20   D    
C68   C83   A    
C8    C56   A    
C25   C57   A    
C6    C54   A    
C73   C81   A    
N27   Ni5   S    
C28   C60   A    
C27   N11   A    
C66   C78   A    
C29   C61   A    
C57   C84   S    
C65   C77   A    
C22   H45   S    
C29   H13   S    
C76   H36   S    
C31   C63   A    
C16   H55   S    
C67   C79   A    
C32   C64   A    
N13   N21   A    
C43   N27   A    
C43   C49   A    
C4    H4    S    
C29   N13   A    
C80   H40   S    
C34   N18   A    
N24   Ni4   S    
C41   N25   A    
C44   Cl4   S    
C35   N19   A    
C71   C88   A    
N9    N17   A    
N5    N31   A    
C31   H15   S    
C14   C56   S    
C33   N17   A    
C11   H52   S    
C44   N28   A    
N19   Ni1   S    
C11   C49   S    
C61   C88   S    
C45   N29   A    
C9    H50   S    
C12   C50   S    
C38   N22   A    
C20   C23   S    
C43   Cl3   S    
C28   N12   A    
C30   H14   S    
C32   H16   S    
C12   H51   S    
C41   Cl1   S    
C37   N21   A    
C13   H54   S    
C45   Cl5   S    
C34   C58   A    
C26   C58   A    
N12   N20   A    
C68   H28   S    
C7    N7    A    
C24   H47   S    
C25   H9    S    
C74   H34   S    
C26   H10   S    
N23   Ni3   S    
C73   H33   S    
C72   H32   S    
C30   C62   A    
C63   C86   S    
C40   N24   A    
C26   N10   A    
C20   H43   S    
N1    Ni1   S    
C78   H38   S    
C21   H46   S    
C72   C87   A    
C77   H37   S    
C37   C61   A    
N14   N22   A    
N6    Ni4   S    
C9    C17   D    
C19   H44   S    
N32   Ni8   S    
C79   H39   S    
C1    H1    S    
C66   H26   S    
C17   H42   S    
N31   Ni7   S    
C65   H25   S    
N10   N18   A    
C30   N14   A    
N9    Ni5   S    
C36   C60   A    
N30   Ni7   S    
C5    H5    S    
N12   Ni5   S    
C47   Cl7   S    
C33   C57   A    
C2    N2    A    
C39   C63   A    
C62   C87   S    
C17   C22   S    
C40   C64   A    
C33   H17   S    
C71   H31   S    
N11   N19   A    
C14   C22   D    
N8    Ni3   S    
C19   C24   S    
C5    C53   A    
N26   Ni5   S    
C25   N9    A    
C27   C59   A    
C58   C83   S    
C13   C21   D    
C66   C81   A    
C71   C75   A    
N3    Ni2   S    
C42   Cl2   S    
N7    Ni4   S    
C46   Cl6   S    
C1    C49   A    
C10   C18   D    
N10   Ni6   S    
C39   H23   S    
C3    C51   A    
C34   H18   S    
N16   N24   A    
C39   N23   A    
C16   C54   S    
N25   Ni6   S    
C48   Cl8   S    
C32   N16   A    
C35   H19   S    
C47   N31   A    
C15   H56   S    
C6    N6    A    
N28   Ni6   S    
C70   H30   S    
C45   C55   A    
C80   C88   A    
C78   C86   A    
C46   C56   A    
C36   N20   A    
N21   Ni4   S    
C18   H41   S    
N22   Ni3   S    
N13   Ni7   S    
C38   C62   A    
N17   Ni2   S    
C70   C85   A    
N14   Ni8   S    
C41   C51   A    
C31   N15   A    
C69   C86   A    
N3    N25   A    
C42   C52   A    
C13   C55   S    
