data_mof_unit_12056.cif
_audit_creation_date              2012-12-11T14:46:16-0500
_audit_creation_method            fapswitch 2.2
_symmetry_space_group_name_H-M    P1
_symmetry_Int_Tables_number       1
_space_group_crystal_system       triclinic
_cell_length_a                    10.950404
_cell_length_b                    10.960074
_cell_length_c                    18.784133
_cell_angle_alpha                 90.312247
_cell_angle_beta                  89.738801
_cell_angle_gamma                 120.131478
_cell_volume                      1949.75972694

loop_
_atom_site_label
_atom_site_type_symbol
_atom_type_description
_atom_site_fract_x
_atom_site_fract_y
_atom_site_fract_z
_atom_type_partial_charge
C1    C     C_R   0.863601 0.638223 0.603195 0.553016
C2    C     C_R   0.965146 0.179683 0.713389 0.006052
C3    C     C_R   0.967476 0.191905 0.788870 -0.001549
C4    C     C_R   0.270183 0.633717 0.603969 0.555285
C5    C     C_R   0.723600 0.137781 0.713280 0.003039
C6    C     C_R   0.739345 0.176366 0.785238 0.020329
C7    C     C_R   0.593102 0.097299 0.680091 -0.069403
C8    C     C_R   0.499247 0.132333 0.710997 -0.111990
C9    C     C_R   0.526014 0.192553 0.778322 -0.131083
C10   C     C_R   0.643858 0.213149 0.815673 -0.080912
C11   C     C_R   0.843842 0.159930 0.674621 -0.051398
C12   C     C_R   0.418563 0.620877 0.776755 -0.135727
C13   C     C_R   0.788364 0.551084 0.724263 -0.127848
C14   C     C_R   0.771331 0.575279 0.795174 -0.139767
C15   C     C_R   0.779207 0.701741 0.815382 0.014729
C16   C     C_R   0.861096 0.223293 0.602475 0.532393
C17   C     C_R   0.797262 0.801419 0.763847 -0.152962
C18   C     C_R   0.816163 0.778220 0.692535 -0.152187
C19   C     C_R   0.815913 0.654549 0.673119 0.030280
C20   C     C_R   0.243283 0.536468 0.275009 -0.127180
C21   C     C_R   0.259242 0.552944 0.202344 -0.137310
C22   C     C_R   0.333229 0.688418 0.173552 0.023126
C23   C     C_R   0.398443 0.615912 0.704526 -0.157376
C24   C     C_R   0.378290 0.807508 0.217648 -0.140064
C25   C     C_R   0.359421 0.790603 0.290924 -0.151200
C26   C     C_R   0.297392 0.655073 0.319783 0.032158
C27   C     C_R   0.787377 0.253968 0.275178 -0.127882
C28   C     C_R   0.869970 0.636406 0.395495 0.541994
C29   C     C_R   0.786586 0.237889 0.202429 -0.138950
C30   C     C_R   0.852375 0.168858 0.172401 0.023308
C31   C     C_R   0.931376 0.128818 0.215269 -0.140070
C32   C     C_R   0.934051 0.147233 0.288581 -0.152812
C33   C     C_R   0.856987 0.204498 0.318771 0.031346
C34   C     C_R   0.326818 0.678794 0.675229 0.026779
C35   C     C_R   0.965465 0.714148 0.276371 -0.127268
C36   C     C_R   0.949806 0.715398 0.203765 -0.138404
C37   C     C_R   0.814537 0.650245 0.174410 0.022723
C38   C     C_R   0.695237 0.571806 0.217773 -0.140599
C39   C     C_R   0.711352 0.568453 0.290960 -0.151499
C40   C     C_R   0.266083 0.630829 0.394892 0.541436
C41   C     C_R   0.846289 0.644683 0.320520 0.032548
C42   C     C_R   0.809924 0.108774 0.896512 0.517813
C43   C     C_R   0.402464 0.702780 0.895001 0.538140
C44   C     C_R   0.772654 0.731718 0.890279 0.559105
C45   C     C_R   0.848009 0.174961 0.825028 -0.041666
C46   C     C_R   0.809295 0.108362 0.101924 0.546322
C47   C     C_R   0.393583 0.704440 0.103085 0.549429
C48   C     C_R   0.797609 0.692716 0.103964 0.555768
C49   C     C_R   0.864544 0.235264 0.394010 0.541682
C50   C     C_R   0.285764 0.759707 0.718964 0.135900
C51   C     C_R   0.309860 0.764887 0.792108 -0.098391
C52   C     C_R   0.370242 0.691550 0.820608 0.006539
C53   C     C_3   0.150167 0.885359 0.735766 -0.291440
C54   C     C_R   0.093052 0.232743 0.826404 -0.079544
C55   C     C_R   0.214908 0.259950 0.790386 -0.121583
C56   C     C_R   0.210934 0.235900 0.717440 -0.131666
C57   C     C_R   0.086002 0.190623 0.679631 -0.078925
Cr1   Cr    Cr6+3 0.791660 0.390250 0.499930 1.010282
Cr2   Cr    Cr6+3 0.098520 0.708290 0.500540 1.006590
Cr3   Cr    Cr6+3 0.109770 0.401430 0.499480 1.006803
Cr4   Cr    Cr6+3 0.874790 0.925890 0.000070 1.005411
Cr5   Cr    Cr6+3 0.574120 0.948670 0.999300 1.008040
Cr6   Cr    Cr6+3 0.551420 0.625320 0.000920 1.001501
H1    H     H_    0.408438 0.117221 0.681613 0.095883
H2    H     H_    0.436226 0.913334 0.196230 0.140044
H3    H     H_    0.281049 0.824044 0.827836 0.124084
H4    H     H_    0.396235 0.882476 0.324988 0.121271
H5    H     H_    0.733475 0.305716 0.297275 0.144040
H6    H     H_    0.726928 0.271333 0.170163 0.131301
H7    H     H_    0.983013 0.075024 0.192915 0.140507
H8    H     H_    0.992842 0.114035 0.321636 0.121692
H9    H     H_    0.071500 0.767370 0.297908 0.144292
H10   H     H_    0.043119 0.774624 0.171088 0.131998
H11   H     H_    0.589512 0.520854 0.195915 0.140019
H12   H     H_    0.568464 0.048694 0.627813 0.122777
H13   H     H_    0.619229 0.509825 0.324429 0.122120
H14   H     H_    0.472478 0.569249 0.798339 0.143471
H15   H     H_    0.432252 0.556185 0.672021 0.137812
H16   H     H_    0.312325 0.301384 0.819608 0.105563
H17   H     H_    0.305316 0.254366 0.689751 0.102523
H18   H     H_    0.100174 0.253467 0.883110 0.127366
H19   H     H_    0.085954 0.164358 0.624132 0.129377
H20   H     H_    0.661459 0.261049 0.867945 0.130655
H21   H     H_    0.269344 0.894548 0.646727 0.258001
H22   H     H_    0.097318 0.928732 0.702868 0.161218
H23   H     H_    0.454681 0.220896 0.802458 0.098710
H24   H     H_    0.228722 0.972447 0.769556 0.131992
H25   H     H_    0.070544 0.799995 0.769917 0.180288
H26   H     H_    0.789812 0.455858 0.710076 0.148688
H27   H     H_    0.759026 0.499053 0.834899 0.124855
H28   H     H_    0.800127 0.897941 0.779192 0.122856
H29   H     H_    0.837226 0.858696 0.653384 0.111186
H30   H     H_    0.187979 0.430341 0.296158 0.143974
H31   H     H_    0.221987 0.459865 0.169080 0.130706
N1    N     N_2   0.217810 0.830631 0.689484 -0.482817
O1    O     O_R   0.766500 0.250040 0.579790 -0.518609
O2    O     O_R   0.413330 0.603360 0.920440 -0.535541
O3    O     O_R   0.676110 0.626250 0.926750 -0.513385
O4    O     O_R   0.798570 0.516780 0.574780 -0.502525
O5    O     O_R   0.895350 0.809870 0.080950 -0.520034
O6    O     O_R   0.872490 0.049760 0.073800 -0.506873
O7    O     O_R   0.691680 0.088070 0.079070 -0.523296
O8    O     O_R   0.451720 0.825250 0.074050 -0.502418
O9    O     O_R   0.413580 0.606370 0.080960 -0.522221
O10   O     O_R   0.676340 0.629040 0.075550 -0.501473
O11   O     O_3   0.666780 0.833290 0.000090 -0.262096
O12   O     O_R   0.218690 0.701900 0.425960 -0.510940
O13   O     O_R   0.984000 0.732950 0.581090 -0.504100
O14   O     O_R   0.218600 0.700890 0.574760 -0.496721
O15   O     O_R   0.249390 0.515350 0.579940 -0.518729
O16   O     O_R   0.982790 0.280900 0.573700 -0.502990
O17   O     O_R   0.766600 0.251130 0.419260 -0.527635
O18   O     O_R   0.798660 0.517790 0.425980 -0.509016
O19   O     O_R   0.984100 0.734040 0.420570 -0.528855
O20   O     O_R   0.249490 0.516440 0.419420 -0.525755
O21   O     O_R   0.982880 0.281910 0.424890 -0.510219
O22   O     O_3   0.999980 0.499990 0.499980 -0.243254
O23   O     O_R   0.895110 0.806860 0.920430 -0.510728
O24   O     O_R   0.872260 0.046970 0.925000 -0.519615
O25   O     O_R   0.691430 0.085060 0.918550 -0.519627
O26   O     O_R   0.451490 0.822460 0.925250 -0.501007

loop_
_geom_bond_atom_site_label_1
_geom_bond_atom_site_label_2
_ccdc_geom_bond_type
C55   C56   A    
C6    C45   A    
C27   C29   A    
C10   H20   S    
C35   C36   A    
C17   H28   S    
C4    O14   A    
C26   C40   S    
C1    O4    A    
C2    C57   A    
C7    C8    A    
C39   C41   A    
C27   C33   A    
C46   O7    A    
C12   C23   A    
C29   C30   A    
Cr1   O17   S    
C36   C37   A    
C15   C44   S    
C5    C11   A    
Cr6   O3    S    
C30   C31   A    
C3    C54   A    
C43   C52   S    
C40   O20   A    
Cr4   O24   S    
C21   H31   S    
C33   C49   S    
C28   C41   S    
C56   C57   A    
C18   C19   A    
Cr1   O1    S    
C14   H27   S    
C27   H5    S    
C42   O24   A    
C44   O3    A    
C31   H7    S    
C48   O10   A    
C8    C9    A    
C25   H4    S    
Cr1   O18   S    
Cr6   O10   S    
C9    C10   A    
C43   O26   A    
Cr5   O25   S    
C22   C47   S    
Cr2   O22   S    
C13   C14   A    
C35   C41   A    
C2    C11   A    
C12   C52   A    
C50   C51   A    
C32   H8    S    
C29   H6    S    
C38   C39   A    
C48   O5    A    
C46   O6    A    
C4    C34   S    
C16   O1    A    
C1    C19   S    
C13   C19   A    
C51   C52   A    
C47   O8    A    
C24   C25   A    
C28   O18   A    
C5    C7    A    
C7    H12   S    
C20   H30   S    
C25   C26   A    
C3    C45   A    
Cr1   O22   S    
Cr2   O12   S    
Cr6   O11   S    
C42   C45   S    
Cr4   O6    S    
C37   C38   A    
C9    H23   S    
C55   H16   S    
C11   C16   S    
C31   C32   A    
C44   O23   A    
C53   N1    S    
C23   C34   A    
C12   H14   S    
C17   C18   A    
Cr3   O22   S    
C53   H24   S    
C39   H13   S    
C37   C48   S    
Cr4   O11   S    
C28   O19   A    
C24   H2    S    
C8    H1    S    
C49   O17   A    
C35   H9    S    
C40   O12   A    
C22   C24   A    
Cr3   O21   S    
Cr4   O5    S    
Cr5   O8    S    
C38   H11   S    
C15   C17   A    
C4    O15   A    
C54   C55   A    
C47   O9    A    
C13   H26   S    
Cr4   O23   S    
C14   C15   A    
C30   C46   S    
Cr1   O4    S    
C43   O2    A    
Cr6   O9    S    
C6    C10   A    
C34   C50   A    
Cr5   O11   S    
Cr2   O13   S    
C56   H17   S    
C18   H29   S    
C32   C33   A    
C2    C3    A    
Cr6   O2    S    
Cr3   O16   S    
C42   O25   A    
C5    C6    A    
C20   C26   A    
Cr2   O19   S    
Cr2   O14   S    
C53   H25   S    
C54   H18   S    
C23   H15   S    
C50   N1    S    
Cr3   O15   S    
C36   H10   S    
C1    O13   A    
C49   O21   A    
C20   C21   A    
H21   N1    S    
C57   H19   S    
Cr3   O20   S    
C53   H22   S    
C21   C22   A    
C51   H3    S    
Cr5   O26   S    
C16   O16   A    
Cr5   O7    S    
