data_mof_unit_12916.cif
_audit_creation_date              2012-12-10T18:58:46-0500
_audit_creation_method            fapswitch 2.2
_symmetry_space_group_name_H-M    P1
_symmetry_Int_Tables_number       1
_space_group_crystal_system       triclinic
_cell_length_a                    13.008392
_cell_length_b                    10.809097
_cell_length_c                    9.560525
_cell_angle_alpha                 90.535294
_cell_angle_beta                  96.274025
_cell_angle_gamma                 90.685964
_cell_volume                      1336.07157834

loop_
_atom_site_label
_atom_site_type_symbol
_atom_type_description
_atom_site_fract_x
_atom_site_fract_y
_atom_site_fract_z
_atom_type_partial_charge
C1    C     C_R   0.504722 0.262450 0.499974 0.858080
C2    C     C_R   0.028506 0.500530 0.567337 0.170404
C3    C     C_R   0.972039 0.487628 0.433138 0.167548
C4    C     C_R   0.864614 0.484186 0.421544 -0.237492
C5    C     C_R   0.869281 0.507446 0.674845 -0.184987
C6    C     C_R   0.976749 0.509362 0.687714 -0.198064
C7    C     C_R   0.496792 0.064857 0.621812 0.090554
C8    C     C_R   0.517683 0.129330 0.501907 -0.165560
C9    C     C_R   0.555231 0.062210 0.390227 0.279009
C10   C     C_R   0.552054 0.932904 0.391800 -0.234533
C11   C     C_R   0.514627 0.870477 0.504419 -0.149546
C12   C     C_R   0.300561 0.499266 0.473613 0.819295
C13   C     C_R   0.495875 0.937857 0.623467 0.120568
C14   C     C_3   0.406402 0.932285 0.708712 -0.436971
C15   C     C_3   0.407450 0.072850 0.707209 -0.427512
C16   C     C_R   0.546752 0.594237 0.081480 0.206447
C17   C     C_R   0.440806 0.417408 0.062857 0.359229
C18   C     C_R   0.442247 0.416992 0.914808 -0.098341
C19   C     C_R   0.546491 0.594369 0.934377 0.241302
C20   C     C_3   0.657135 0.633621 0.945124 -0.480575
C21   C     C_3   0.657428 0.633659 0.103922 -0.477939
C22   C     C_R   0.502485 0.737539 0.500931 0.813122
C23   C     C_R   0.699551 0.498654 0.526385 0.801974
C24   C     C_R   0.812586 0.496427 0.541689 -0.049784
C25   C     C_R   0.187749 0.496468 0.458429 -0.057628
C26   C     C_R   0.023837 0.479297 0.312596 -0.201280
C27   C     C_R   0.131346 0.484161 0.325140 -0.161146
C28   C     C_R   0.135865 0.504514 0.579103 -0.261017
Cu1   Cu    Cu3+1 0.499990 0.499980 0.640670 0.953323
Cu2   Cu    Cu3+1 0.500010 0.500020 0.359330 1.009387
H1    H     H_    0.821934 0.471992 0.318723 0.152944
H2    H     H_    0.428362 0.893646 0.815010 0.209166
H3    H     H_    0.337530 0.112640 0.647666 0.197290
H4    H     H_    0.430078 0.115013 0.812754 0.226742
H5    H     H_    0.396677 0.349163 0.850351 0.163327
H6    H     H_    0.706946 0.560927 0.907296 0.209155
H7    H     H_    0.667383 0.727326 0.901362 0.202788
H8    H     H_    0.707895 0.561517 0.154845 0.213568
H9    H     H_    0.667781 0.727468 0.152310 0.200098
H10   H     H_    0.831008 0.515214 0.769015 0.149813
H11   H     H_    0.981313 0.469599 0.208999 0.142196
H12   H     H_    0.019243 0.518637 0.791379 0.140929
H13   H     H_    0.170148 0.477731 0.230792 0.184806
H14   H     H_    0.178773 0.514249 0.682523 0.159706
H15   H     H_    0.576038 0.881732 0.303251 0.181124
H16   H     H_    0.335952 0.890107 0.649818 0.195364
N1    N     N_R   0.500660 0.500930 0.148010 -0.205027
N2    N     N_R   0.500660 0.500890 0.852110 -0.207684
O1    O     O_R   0.500000 0.319640 0.618810 -0.591131
O2    O     O_R   0.500010 0.319680 0.381230 -0.497294
O3    O     O_R   0.348990 0.499960 0.599490 -0.595890
O4    O     O_R   0.349000 0.500000 0.361910 -0.556793
O5    O     O_R   0.499990 0.680320 0.618770 -0.579758
O6    O     O_R   0.500000 0.680360 0.381190 -0.586664
O7    O     O_R   0.651000 0.500000 0.638090 -0.588863
O8    O     O_R   0.651010 0.500040 0.400510 -0.580591
Br1   Br    Br    0.349138 0.299598 0.134099 -0.507518
Br2   Br    Br    0.610916 0.137673 0.232871 -0.499672

loop_
_geom_bond_atom_site_label_1
_geom_bond_atom_site_label_2
_ccdc_geom_bond_type
C28   H14   S    
C23   C24   S    
C16   C21   S    
C23   O7    A    
Cu1   Cu2   S    
C25   C27   A    
C1    C8    S    
C11   C13   A    
C9    C10   A    
C15   H4    S    
Cu1   O7    S    
C19   C20   S    
C21   H9    S    
C7    C13   A    
C12   C25   S    
Cu2   O8    S    
C10   H15   S    
C7    C15   S    
C17   C18   A    
Cu2   O2    S    
C7    C8    A    
C22   O6    A    
Cu1   O1    S    
C13   C14   S    
C25   C28   A    
C20   H7    S    
Cu2   O6    S    
C26   C27   A    
C2    C6    A    
C5    C24   A    
Cu1   O5    S    
C16   C19   A    
C16   N1    A    
C12   O4    A    
Cu1   O3    S    
C2    C3    A    
C22   O5    A    
C6    H12   S    
C5    C6    A    
C4    C24   A    
C4    H1    S    
C10   C11   A    
Cu1   N2    S    
C3    C4    A    
C20   H6    S    
C27   H13   S    
Cu2   N1    S    
C23   O8    A    
C12   O3    A    
C20   C21   S    
C18   H5    S    
C14   H16   S    
C9    Br2   S    
C1    O2    A    
C5    H10   S    
C14   H2    S    
Cu2   O4    S    
C14   C15   S    
C2    C28   A    
C11   C22   S    
C19   N2    A    
C1    O1    A    
C15   H3    S    
C3    C26   A    
C21   H8    S    
C17   N1    A    
C26   H11   S    
C17   Br1   S    
C8    C9    A    
C18   N2    A    
