data_mof_unit_8254.cif
_audit_creation_date              2012-12-11T15:55:42-0500
_audit_creation_method            fapswitch 2.2
_symmetry_space_group_name_H-M    P1
_symmetry_Int_Tables_number       1
_space_group_crystal_system       triclinic
_cell_length_a                    8.215447
_cell_length_b                    18.807007
_cell_length_c                    18.988582
_cell_angle_alpha                 98.693366
_cell_angle_beta                  94.479923
_cell_angle_gamma                 91.534943
_cell_volume                      2889.10236797

loop_
_atom_site_label
_atom_site_type_symbol
_atom_type_description
_atom_site_fract_x
_atom_site_fract_y
_atom_site_fract_z
_atom_type_partial_charge
Ba1   Ba    Ba6+2 0.152460 0.535140 0.468980 1.693674
Ba2   Ba    Ba6+2 0.657710 0.464850 0.530960 1.674014
C1    C     C_3   0.403379 0.724490 0.217372 0.243372
C2    C     C_R   0.086344 0.903572 0.574987 -0.079831
C3    C     C_R   0.221461 0.047664 0.564198 -0.077568
C4    C     C_3   0.904306 0.736643 0.331665 0.296085
C5    C     C_R   0.062112 0.023612 0.535438 0.020805
C6    C     C_R   0.278119 0.118152 0.565003 -0.057732
C7    C     C_R   0.179182 0.168421 0.537044 -0.048835
C8    C     C_R   0.022430 0.145299 0.503678 -0.007596
C9    C     C_R   0.964099 0.072412 0.502221 0.045106
C10   C     C_R   0.231770 0.241340 0.542196 -0.014451
C11   C     C_R   0.126681 0.290826 0.516407 -0.297734
C12   C     C_3   0.394863 0.695237 0.288020 0.343708
C13   C     C_R   0.976639 0.268861 0.478483 0.043812
C14   C     C_R   0.924748 0.194767 0.471181 -0.051487
C15   C     C_R   0.844112 0.928871 0.502748 0.034431
C16   C     C_3   0.931818 0.812965 0.316408 -0.243412
C17   C     C_R   0.785375 0.856108 0.501414 -0.006887
C18   C     C_R   0.882397 0.806763 0.534350 -0.038133
C19   C     C_R   0.028197 0.833146 0.573968 -0.017522
C20   C     C_R   0.779131 0.168128 0.431718 0.010195
C21   C     C_R   0.721632 0.097668 0.430293 -0.060614
C22   C     C_R   0.808324 0.049033 0.467575 0.030200
C23   C     C_3   0.512124 0.683335 0.644032 0.298726
C24   C     C_R   0.746466 0.977560 0.469229 0.029833
C25   C     C_R   0.587676 0.953352 0.439781 -0.061859
C26   C     C_R   0.629005 0.832878 0.467536 -0.040702
C27   C     C_R   0.530959 0.882918 0.438852 -0.042669
C28   C     C_3   0.747434 0.348272 0.300325 0.601772
C29   C     C_R   0.575069 0.760225 0.463470 0.001962
C30   C     C_R   0.678407 0.711148 0.490517 -0.307485
C31   C     C_R   0.829632 0.732928 0.527030 0.034925
C32   C     C_R   0.606945 0.533786 0.301893 -0.226368
C33   C     C_R   0.463203 0.493813 0.276376 0.029712
C34   C     C_3   0.522484 0.764624 0.666014 -0.367409
C35   C     C_R   0.409716 0.486543 0.203745 -0.109522
C36   C     C_R   0.501661 0.517759 0.155820 -0.007177
C37   C     C_R   0.650912 0.555065 0.181978 -0.110182
C38   C     C_R   0.704136 0.562270 0.254725 0.061008
C39   C     C_R   0.463595 0.566552 0.039652 -0.045545
C40   C     C_3   0.665133 0.296340 0.236553 0.230049
C41   C     C_R   0.410371 0.558714 0.967026 -0.064585
C42   C     C_R   0.337148 0.493343 0.931150 0.047702
C43   C     C_R   0.316166 0.436360 0.970091 -0.073071
C44   C     C_R   0.369482 0.444199 0.042806 -0.055288
C45   C     C_3   0.917101 0.265181 0.671297 0.307290
C46   C     C_R   0.444375 0.509359 0.078482 0.070738
C47   C     C_R   0.138665 0.447448 0.824332 -0.117991
C48   C     C_R   0.092174 0.440829 0.750837 0.021324
C49   C     C_R   0.338501 0.507672 0.733887 0.032435
C50   C     C_R   0.385670 0.514690 0.806975 -0.118961
C51   C     C_R   0.286933 0.484336 0.853125 -0.016093
C52   C     C_3   0.014295 0.619543 0.688874 0.303367
C53   C     C_R   0.195324 0.468699 0.705871 -0.298102
C54   C     C_3   0.035178 0.638096 0.769960 -0.377380
C55   C     C_3   0.285101 0.319438 0.369437 0.315948
C56   C     C_3   0.942290 0.190903 0.693527 0.111264
C57   C     C_3   0.225543 0.242194 0.341105 -0.326249
C58   C     C_2   0.236921 0.722760 0.177699 0.917923
C59   C     C_2   0.782831 0.152008 0.700810 0.980691
C60   C     C_3   0.423498 0.312497 0.715688 0.342538
C61   C     C_3   0.462986 0.299093 0.791976 -0.251681
C62   C     C_R   0.999990 0.952182 0.537394 0.025420
Cl1   Cl    Cl    0.610564 0.211054 0.259408 -0.689362
Cl2   Cl    Cl    0.498195 0.812997 0.233135 -0.634730
Cl3   Cl    Cl    0.075872 0.197218 0.773257 -0.686750
Cl4   Cl    Cl    0.860551 0.412805 0.263769 -0.739065
H1    H     H_    0.324456 0.642897 0.278573 0.031704
H2    H     H_    0.387833 0.318962 0.410843 0.050308
H3    H     H_    0.117548 0.241596 0.302072 0.173982
H4    H     H_    0.192893 0.213859 0.385259 0.035969
H5    H     H_    0.322210 0.211785 0.314296 0.191925
H6    H     H_    0.521629 0.685329 0.307575 -0.102522
H7    H     H_    0.482348 0.689701 0.183168 -0.052325
H8    H     H_    0.634777 0.664987 0.630885 0.015802
H9    H     H_    0.424244 0.670600 0.595961 0.061846
H10   H     H_    0.612362 0.779432 0.713120 0.141776
H11   H     H_    0.561854 0.791092 0.621431 0.057088
H12   H     H_    0.554568 0.320532 0.214170 0.033912
H13   H     H_    0.400877 0.784271 0.679747 0.125802
H14   H     H_    0.886804 0.852112 0.359515 0.061395
H15   H     H_    0.830425 0.259513 0.622799 0.044137
H16   H     H_    0.036564 0.284973 0.657036 -0.049223
H17   H     H_    0.005159 0.158027 0.651299 0.026137
H18   H     H_    0.288962 0.310835 0.705075 -0.017342
H19   H     H_    0.473796 0.367007 0.711901 0.063603
H20   H     H_    0.392965 0.335551 0.828809 0.063172
H21   H     H_    0.595080 0.310165 0.807870 0.129136
H22   H     H_    0.977883 0.730931 0.381854 0.082198
H23   H     H_    0.749671 0.285598 0.193570 0.117307
H24   H     H_    0.429458 0.242616 0.796895 0.210275
H25   H     H_    0.166767 0.346781 0.521998 0.066952
H26   H     H_    0.400508 0.132695 0.588830 0.146577
H27   H     H_    0.100703 0.799759 0.604659 0.099317
H28   H     H_    0.704998 0.201449 0.401991 0.149102
H29   H     H_    0.408620 0.868434 0.414932 0.122923
H30   H     H_    0.637349 0.655370 0.485834 0.071990
H31   H     H_    0.307595 0.012908 0.585962 0.094654
H32   H     H_    0.199340 0.918556 0.607145 0.073844
H33   H     H_    0.608447 0.082880 0.398248 0.095052
H34   H     H_    0.130876 0.601416 0.668751 0.005108
H35   H     H_    0.773196 0.728363 0.338915 -0.028220
H36   H     H_    0.501745 0.987911 0.417618 0.082258
H37   H     H_    0.498212 0.544485 0.827673 0.077070
H38   H     H_    0.425397 0.604227 0.939047 0.075517
H39   H     H_    0.518327 0.617772 0.065567 0.078130
H40   H     H_    0.296588 0.456400 0.184849 0.110365
H41   H     H_    0.261829 0.385105 0.943973 0.095953
H42   H     H_    0.354982 0.398619 0.070733 0.082274
H43   H     H_    0.057515 0.426065 0.858944 0.090808
H44   H     H_    0.727999 0.576411 0.145784 0.075747
H45   H     H_    0.919221 0.575786 0.674100 0.069848
H46   H     H_    0.158877 0.464172 0.649315 0.064565
H47   H     H_    0.063990 0.824755 0.313526 0.165726
H48   H     H_    0.649191 0.538339 0.357855 0.076839
H49   H     H_    0.865078 0.819476 0.264799 0.192968
H50   H     H_    0.654229 0.374728 0.333102 -0.036731
H51   H     H_    0.049129 0.661301 0.123550 0.320196
H52   H     H_    0.753834 0.205852 0.799300 0.321422
H53   H     H_    0.137579 0.678445 0.786280 0.138340
H54   H     H_    0.061663 0.589424 0.794372 0.062250
H55   H     H_    0.921042 0.660521 0.790242 0.132834
H56   H     H_    0.183393 0.348777 0.393553 0.027168
O1    O     O_2   0.118870 0.674530 0.547560 -0.469236
O2    O     O_2   0.752013 0.443958 0.745497 -0.491690
O3    O     O_3   0.856012 0.312809 0.726631 -0.584112
O4    O     O_3   0.870460 0.585330 0.542110 -0.491537
O5    O     O_3   0.436130 0.464210 0.414140 -0.500925
O6    O     O_2   0.629420 0.533310 0.672080 -0.462543
O7    O     O_3   0.460031 0.651184 0.700872 -0.637777
O8    O     O_2   0.571897 0.242327 0.535041 -0.498406
O9    O     O_3   0.493097 0.259810 0.667652 -0.573551
O10   O     O_3   0.354280 0.631750 0.418430 -0.488069
O11   O     O_2   0.234574 0.757265 0.468344 -0.504889
O12   O     O_3   0.337341 0.351275 0.312653 -0.618117
O13   O     O_3   0.968999 0.681341 0.660999 -0.637252
O14   O     O_3   0.319891 0.744655 0.337473 -0.587552
O15   O     O_2   0.180880 0.466650 0.327890 -0.386591
O16   O     O_3   0.939000 0.596010 0.380670 -0.482275
O17   O     O_2   0.043653 0.555127 0.253081 -0.403504
O18   O     O_2   0.169239 0.778574 0.170150 -0.527813
O19   O     O_R   0.160551 0.656271 0.148880 -0.770621
O20   O     O_2   0.727422 0.105248 0.652518 -0.605814
O21   O     O_R   0.697264 0.167361 0.761710 -0.678359
O22   O     O_3   0.952072 0.687818 0.274189 -0.589087
O23   O     O_2   0.691430 0.325420 0.452420 -0.488072
O24   O     O_3   0.939830 0.414660 0.457830 -0.467852
O25   O     O_3   0.456020 0.368240 0.581510 -0.482688
O26   O     O_3   0.859229 0.311356 0.339190 -0.613662
O27   O     O_3   0.374170 0.535780 0.585810 -0.480537
O28   O     O_3   0.871300 0.403980 0.619270 -0.487775
P1    P     P_3+3 0.947550 0.663200 0.567530 0.973014
P2    P     P_3+3 0.354660 0.445020 0.336980 1.026974
P3    P     P_3+3 0.909374 0.599957 0.289364 1.041223
P4    P     P_3+3 0.862750 0.336790 0.432410 1.018701
P5    P     P_3+3 0.892074 0.401378 0.711459 0.974012
P6    P     P_3+3 0.370854 0.724773 0.423393 0.951128
P7    P     P_3+3 0.448831 0.557630 0.675374 0.946931
P8    P     P_3+3 0.437912 0.276087 0.580668 0.951414

loop_
_geom_bond_atom_site_label_1
_geom_bond_atom_site_label_2
_ccdc_geom_bond_type
C40   H12   S    
C61   H20   S    
C25   C27   A    
H51   O19   S    
C9    C22   A    
C17   C18   A    
C33   P2    S    
C4    H35   S    
C49   C53   A    
C43   C44   A    
C42   C43   A    
C5    C9    A    
C60   H18   S    
C24   C25   A    
C60   C61   S    
C32   C38   A    
C15   C24   A    
C12   H6    S    
C60   O9    S    
C26   C27   A    
C33   C35   A    
Ba1   O1    S    
Ba1   Ba2   S    
Ba1   O5    S    
C15   C62   A    
C36   C37   A    
C4    O22   S    
C43   H41   S    
C55   C57   S    
C52   O13   S    
O16   P3    S    
Ba2   O24   S    
C13   C14   A    
C52   H45   S    
C25   H36   S    
Ba2   O5    S    
C32   C33   A    
C59   O21   S    
C58   O18   D    
C42   C51   S    
O22   P3    S    
C12   O14   S    
C6    C7    A    
C61   H24   S    
C40   Cl1   S    
Ba2   P4    S    
C21   C22   A    
Ba1   O4    S    
C38   P3    S    
C45   H15   S    
C55   H2    S    
C1    H7    S    
C7    C8    A    
C57   H5    S    
C36   C46   S    
Ba1   O15   S    
C57   H4    S    
C47   H43   S    
C1    C58   S    
C56   C59   S    
H52   O21   S    
O11   P6    D    
O26   P4    S    
C39   C41   A    
O25   P8    S    
O1    P1    D    
C44   C46   A    
C48   P5    S    
Ba2   O28   S    
C4    C16   S    
C52   C54   S    
C49   C50   A    
C54   H55   S    
C3    H31   S    
C6    H26   S    
C35   H40   S    
C37   C38   A    
C3    C5    A    
O17   P3    D    
C19   H27   S    
O15   P2    D    
Ba2   O23   S    
C4    H22   S    
C11   H25   S    
O6    P7    D    
C41   H38   S    
O27   P7    S    
O7    P7    S    
C41   C42   A    
C35   C36   A    
O23   P4    D    
O12   P2    S    
O14   P6    S    
C59   O20   D    
C29   C30   A    
C34   H13   S    
C61   H21   S    
O13   P1    S    
C55   O12   S    
O8    P8    D    
C45   H16   S    
C10   P8    S    
Ba1   P1    S    
C17   C26   A    
Ba1   O16   S    
C16   H49   S    
C13   P4    S    
C1    C12   S    
O4    P1    S    
C18   C31   A    
C37   H44   S    
O10   P6    S    
C50   H37   S    
C11   C13   A    
C12   H1    S    
C23   H9    S    
C1    Cl2   S    
C15   C17   A    
Ba1   O10   S    
C23   O7    S    
C56   H17   S    
Ba2   O6    S    
C50   C51   A    
O2    P5    D    
Ba2   O27   S    
O3    P5    S    
O28   P5    S    
C14   C20   A    
C39   H39   S    
C18   C19   A    
C20   H28   S    
C52   H34   S    
C26   C29   A    
C22   C24   A    
C34   H11   S    
C16   H47   S    
C3    C6    A    
C45   O3    S    
C53   H46   S    
C28   H50   S    
C60   H19   S    
C2    C62   A    
C48   C53   A    
C27   H29   S    
C23   H8    S    
C30   C31   A    
O9    P8    S    
C2    H32   S    
C58   O19   S    
C44   H42   S    
C34   H10   S    
C54   H53   S    
C55   H56   S    
C2    C19   A    
C21   H33   S    
Ba2   O25   S    
C47   C51   A    
C49   P7    S    
C16   H14   S    
C39   C46   A    
C30   H30   S    
Ba1   O27   S    
C31   P1    S    
Ba1   P2    S    
C7    C10   A    
C5    C62   A    
C29   P6    S    
C28   O26   S    
C8    C9    A    
C23   C34   S    
C56   Cl3   S    
C10   C11   A    
C47   C48   A    
C57   H3    S    
C20   C21   A    
C28   C40   S    
Ba1   O24   S    
C8    C14   A    
O24   P4    S    
C32   H48   S    
C28   Cl4   S    
O5    P2    S    
C40   H23   S    
C54   H54   S    
C45   C56   S    
Ba2   O4    S    
