data_mof_unit_40452.cif
_audit_creation_date              2013-03-05T16:45:56-0500
_audit_creation_method            fapswitch 2.2
_symmetry_space_group_name_H-M    P1
_symmetry_Int_Tables_number       1
_space_group_crystal_system       triclinic
_cell_length_a                    9.849721
_cell_length_b                    10.717009
_cell_length_c                    16.836842
_cell_angle_alpha                 89.219938
_cell_angle_beta                  93.193295
_cell_angle_gamma                 89.906638
_cell_volume                      1774.36029105

loop_
_atom_site_label
_atom_site_type_symbol
_atom_site_description
_atom_site_fract_x
_atom_site_fract_y
_atom_site_fract_z
_atom_type_partial_charge
O1    O     O_R   0.614690 0.316790 0.499990 -0.589876
O2    O     O_R   0.385350 0.316760 0.500000 -0.644058
C1    C     C_R   0.499973 0.259939 0.500641 0.947185
O3    O     O_R   0.627460 0.498860 0.616130 -0.618888
O4    O     O_R   0.398120 0.498820 0.616130 -0.565810
C2    C     C_R   0.516160 0.499207 0.652791 1.046223
Zn1   Zn    Zn3+2 0.653130 0.500020 0.499990 1.070258
Zn2   Zn    Zn3+2 0.346870 0.499980 0.500010 1.011252
O5    O     O_R   0.614650 0.683240 0.500000 -0.580866
O6    O     O_R   0.385310 0.683210 0.500010 -0.625127
O7    O     O_R   0.601880 0.501180 0.383870 -0.535250
O8    O     O_R   0.372540 0.501140 0.383870 -0.650278
C3    C     C_R   0.499661 0.739976 0.500806 0.910358
C4    C     C_R   0.483701 0.503131 0.346691 0.945289
C5    C     C_R   0.520387 0.504751 0.738308 -0.321184
C6    C     C_R   0.466254 0.611814 0.772615 0.207882
C7    C     C_R   0.435807 0.608537 0.852763 0.418448
C8    C     C_R   0.475316 0.502549 0.899885 0.093698
C9    C     C_R   0.535059 0.400041 0.865547 -0.265712
C10   C     C_R   0.556492 0.398457 0.784765 0.266148
C11   C     C_R   0.573118 0.513987 0.133747 -0.412667
C12   C     C_R   0.582231 0.483436 0.214934 0.473618
C13   C     C_R   0.460154 0.578643 0.099330 0.219167
N1    N     N_2   0.466567 0.495126 0.982946 -0.162781
N2    N     N_2   0.449733 0.596117 0.016532 -0.075720
C14   C     C_R   0.475568 0.522522 0.261017 -0.163592
H1    H     H_    0.650754 0.484730 0.095049 0.167936
H2    H     H_    0.563966 0.319722 0.902561 0.211565
C15   C     C_R   0.364632 0.590774 0.226885 -0.453477
C16   C     C_R   0.354209 0.617393 0.144938 0.508878
H3    H     H_    0.288033 0.624901 0.264840 0.169668
C17   C     C_R   0.615332 0.062344 0.534232 0.099588
C18   C     C_R   0.498111 0.128131 0.509253 -0.042268
C19   C     C_R   0.374115 0.064601 0.498304 -0.194206
H4    H     H_    0.279134 0.113330 0.484249 0.178946
C20   C     C_R   0.373753 0.935895 0.498556 -0.168295
H5    H     H_    0.278683 0.888223 0.484449 0.171691
C21   C     C_R   0.497348 0.871231 0.510000 -0.039711
C22   C     C_R   0.614566 0.934987 0.535082 0.154593
C23   C     C_3   0.758415 0.924828 0.512206 -0.523925
C24   C     C_3   0.760337 0.066748 0.511236 0.101169
H6    H     H_    0.825614 0.882970 0.560723 0.220185
H7    H     H_    0.767145 0.882441 0.453046 0.253943
H8    H     H_    0.831128 0.106477 0.557891 0.126649
C25   C     C_R   0.074492 0.409220 0.540242 0.103266
N3    N     N_R   0.142860 0.499130 0.500540 -0.097789
C26   C     C_R   0.068166 0.581794 0.453617 -0.236710
H9    H     H_    0.123129 0.648834 0.419390 0.129088
C27   C     C_R   0.921670 0.581147 0.451812 0.532461
N4    N     N_R   0.857210 0.499170 0.500530 -0.122671
C28   C     C_R   0.932260 0.408780 0.539654 0.127819
C29   C     C_3   0.929550 0.375799 0.625610 -0.490310
C30   C     C_3   0.084154 0.377252 0.627665 0.112904
H10   H     H_    0.883769 0.450408 0.660854 0.247470
H11   H     H_    0.887178 0.281398 0.635656 0.203146
H12   H     H_    0.131375 0.284391 0.641059 0.134077
O9    O     O_3   0.685533 0.408385 0.250554 -0.557673
C31   C     C_3   0.810472 0.419375 0.213484 0.091806
H13   H     H_    0.836006 0.518760 0.201735 0.117062
H14   H     H_    0.806953 0.366089 0.157220 0.151273
C32   C     C_3   0.923811 0.363226 0.267612 -0.684156
H15   H     H_    0.908774 0.260966 0.273345 0.295577
H16   H     H_    0.023593 0.380453 0.241937 0.168214
H17   H     H_    0.924381 0.405783 0.327288 0.260712
N5    N     N_R   0.777331 0.119468 0.431808 0.238264
O10   O     O_R   0.694853 0.090742 0.371728 -0.404027
O11   O     O_R   0.880757 0.191269 0.420276 -0.431937
O12   O     O_3   0.839638 0.663557 0.405712 -0.585701
C33   C     C_3   0.904005 0.715486 0.340046 0.019211
H18   H     H_    0.958371 0.642973 0.307197 0.120998
H19   H     H_    0.975769 0.790025 0.360352 0.154433
C34   C     C_3   0.797122 0.774680 0.282554 -0.750884
H20   H     H_    0.742948 0.850445 0.312078 0.278295
H21   H     H_    0.846598 0.814536 0.230285 0.210295
H22   H     H_    0.721979 0.703682 0.261841 0.246661
N6    N     N_R   0.140467 0.476453 0.678313 0.247634
O13   O     O_R   0.203098 0.446358 0.745883 -0.433918
O14   O     O_R   0.110749 0.593106 0.663078 -0.373567
N7    N     N_R   0.612944 0.288268 0.751301 0.218390
O15   O     O_R   0.564155 0.245843 0.683615 -0.423987
O16   O     O_R   0.701307 0.220845 0.793250 -0.369446
O17   O     O_3   0.377033 0.712185 0.885046 -0.567204
C35   C     C_3   0.235360 0.692411 0.886838 0.182189
H23   H     H_    0.212771 0.619132 0.931621 0.158462
H24   H     H_    0.189968 0.664178 0.827724 0.206512
C36   C     C_3   0.167406 0.813396 0.909349 -0.696464
H25   H     H_    0.187550 0.887807 0.865011 0.280976
H26   H     H_    0.055850 0.799580 0.910558 0.199684
H27   H     H_    0.207717 0.843198 0.968997 0.278265
O18   O     O_3   0.246678 0.683954 0.107123 -0.602120
C37   C     C_3   0.120822 0.659131 0.140721 0.081803
H28   H     H_    0.111189 0.716005 0.194850 0.143925
H29   H     H_    0.108918 0.558151 0.155480 0.136181
C38   C     C_3   0.005383 0.696010 0.081246 -0.825194
H30   H     H_    0.010630 0.640122 0.026453 0.255022
H31   H     H_    0.906053 0.678560 0.107355 0.203701
H32   H     H_    0.012364 0.796762 0.065799 0.267416
N8    N     N_R   0.446511 0.724837 0.726330 0.240313
O19   O     O_R   0.545439 0.768522 0.686224 -0.410237
O20   O     O_R   0.334481 0.788876 0.728112 -0.320158

loop_
_geom_bond_atom_site_label_1
_geom_bond_atom_site_label_2
_geom_bond_distance
_ccdc_geom_bond_type
C27   O12   1.394438 S    
C32   H17   1.108811 S    
C9    C10   1.388292 A    
C16   O18   1.395016 S    
C27   N4    1.374043 A    
C12   O9    1.399324 S    
O9    C31   1.414881 S    
C26   C27   1.441600 A    
C25   N3    1.365099 A    
Zn1   O7    1.991666 S    
C8    N1    1.407091 S    
C20   H5    1.083695 S    
N6    O14   1.302353 A    
C8    C9    1.393017 A    
O3    Zn1   1.985503 S    
C21   C22   1.390811 A    
O7    C4    1.290590 A    
C36   H26   1.110245 S    
C1    C18   1.418293 S    
C31   H14   1.111688 S    
C5    C6    1.408835 A    
C33   H19   1.112214 S    
C19   H4    1.083660 S    
C17   C22   1.364803 A    
C32   H16   1.110245 S    
O5    C3    1.285456 A    
C7    O17   1.383416 S    
C2    C5    1.440155 S    
C23   H7    1.107997 S    
C26   H9    1.079864 S    
O12   C33   1.412980 S    
N5    O11   1.299278 A    
C17   C24   1.501126 S    
O6    C3    1.280494 A    
C32   H15   1.109741 S    
C29   H11   1.109461 S    
C31   C32   1.519350 S    
C23   H6    1.111505 S    
C11   H1    1.080676 S    
C25   C30   1.504521 S    
C11   C12   1.399210 A    
C33   H18   1.113509 S    
C34   H22   1.108462 S    
C29   H10   1.111916 S    
N4    C28   1.358238 A    
C5    C10   1.406917 A    
C28   C29   1.486774 S    
C13   C16   1.395568 A    
N1    N2    1.243072 D    
C34   H21   1.110242 S    
C22   C23   1.493033 S    
N7    O16   1.301553 A    
C36   H25   1.110598 S    
C6    C7    1.398562 A    
C24   N5    1.462987 S    
C38   H32   1.110331 S    
C31   H13   1.112433 S    
O17   C35   1.413706 S    
C4    C14   1.452336 S    
O1    C1    1.285113 A    
C33   C34   1.521622 S    
C15   C16   1.403209 A    
C37   H29   1.114900 S    
C35   H23   1.112610 S    
Zn2   O8    1.985504 S    
C7    C8    1.418013 A    
N6    O13   1.300023 A    
C38   H31   1.109813 S    
C9    H2    1.084068 S    
C3    C21   1.417525 S    
O3    C2    1.287740 A    
C23   C24   1.520980 S    
C35   H24   1.114057 S    
O8    C4    1.291198 A    
N5    O10   1.302203 A    
N8    O20   1.300511 A    
C11   C13   1.403100 A    
C24   H8    1.110658 S    
C30   N6    1.462529 S    
C37   H28   1.111604 S    
C29   C30   1.521385 S    
C30   H12   1.112791 S    
Zn1   O5    1.999212 S    
N3    C26   1.365409 A    
C10   N7    1.439455 S    
O1    Zn1   2.000452 S    
O2    Zn2   1.999213 S    
Zn1   N4    2.009651 S    
C34   H20   1.109181 S    
C36   H27   1.110398 S    
O4    Zn2   1.991666 S    
C17   C18   1.393643 A    
C20   C21   1.402447 A    
O2    C1    1.281332 A    
C15   H3    1.081919 S    
C37   C38   1.520774 S    
C6    N8    1.438375 S    
O18   C37   1.415134 S    
O4    C2    1.285670 A    
C18   C19   1.403652 A    
C19   C20   1.379301 A    
C13   N2    1.402093 S    
C38   H30   1.110297 S    
Zn2   N3    2.009993 S    
N7    O15   1.300077 A    
C35   C36   1.520403 S    
C14   C15   1.405427 A    
Zn2   O6    2.000452 S    
N8    O19   1.300317 A    
C12   C14   1.406941 A    
C25   C28   1.400446 A    
