data_mof_unit_11792.cif
_audit_creation_date              2012-12-10T18:47:48-0500
_audit_creation_method            fapswitch 2.2
_symmetry_space_group_name_H-M    P1
_symmetry_Int_Tables_number       1
_space_group_crystal_system       triclinic
_cell_length_a                    9.849334
_cell_length_b                    10.712652
_cell_length_c                    15.500657
_cell_angle_alpha                 90.25153
_cell_angle_beta                  68.012665
_cell_angle_gamma                 90.142541
_cell_volume                      1516.54128522

loop_
_atom_site_label
_atom_site_type_symbol
_atom_type_description
_atom_site_fract_x
_atom_site_fract_y
_atom_site_fract_z
_atom_type_partial_charge
C1    C     C_R   0.499989 0.740102 0.500294 0.866688
C2    C     C_R   0.367525 0.935885 0.521128 -0.204520
C3    C     C_R   0.499753 0.127461 0.500276 -0.007019
C4    C     C_R   0.499863 0.872559 0.500733 -0.011714
C5    C     C_R   0.959866 0.418638 0.445153 -0.336132
C6    C     C_R   0.040764 0.582378 0.554118 -0.350790
C7    C     C_R   0.104530 0.416146 0.446082 0.617486
C8    C     C_R   0.893871 0.582317 0.555745 0.614841
C9    C     C_R   0.408787 0.498251 0.676001 0.871549
C10   C     C_R   0.591298 0.497789 0.324063 0.871591
C11   C     C_R   0.354545 0.476635 0.776015 -0.060931
C12   C     C_R   0.499867 0.259901 0.499992 0.865907
C13   C     C_R   0.648637 0.486679 0.223024 -0.064728
C14   C     C_R   0.184161 0.380044 0.915278 -0.223221
C15   C     C_R   0.841474 0.511117 0.072121 -0.219335
C16   C     C_R   0.218373 0.421035 0.824150 -0.212912
C17   C     C_R   0.794723 0.513965 0.168712 -0.204450
C18   C     C_R   0.453773 0.492894 0.819586 -0.257221
C19   C     C_R   0.552396 0.449604 0.180874 -0.254961
C20   C     C_R   0.427815 0.441899 0.906830 0.091155
C21   C     C_R   0.596726 0.444945 0.084276 0.086507
C22   C     C_R   0.287981 0.390492 0.957137 0.179854
C23   C     C_R   0.355725 0.364888 0.090306 -0.231921
C24   C     C_R   0.742720 0.479959 0.029556 0.183902
C25   C     C_R   0.536694 0.444129 0.945769 0.074943
C26   C     C_R   0.496011 0.417000 0.041253 0.067223
C27   C     C_3   0.159604 0.216345 0.384134 -0.387633
C28   C     C_3   0.814949 0.725715 0.680256 -0.392830
C29   C     C_R   0.685202 0.470995 0.891921 -0.238965
C30   C     C_R   0.254554 0.349864 0.048012 -0.243919
C31   C     C_R   0.786834 0.487154 0.933351 -0.252691
C32   C     C_R   0.632044 0.936265 0.480532 -0.175460
C33   C     C_R   0.367473 0.063770 0.521007 -0.197686
C34   C     C_R   0.632031 0.064140 0.480164 -0.203136
H1    H     H_    0.148697 0.308871 0.087284 0.150160
H2    H     H_    0.726334 0.477003 0.817045 0.150907
H3    H     H_    0.735102 0.887676 0.464251 0.167638
H4    H     H_    0.264377 0.112387 0.537721 0.158578
H5    H     H_    0.929245 0.356840 0.400185 0.167616
H6    H     H_    0.075448 0.647873 0.594932 0.167285
H7    H     H_    0.735155 0.113018 0.463566 0.150425
H8    H     H_    0.264423 0.886991 0.537705 0.152163
H9    H     H_    0.107791 0.212102 0.331691 0.161490
H10   H     H_    0.082695 0.183084 0.453219 0.152560
H11   H     H_    0.253833 0.151093 0.360730 0.207376
H12   H     H_    0.898825 0.510521 0.890255 0.146920
H13   H     H_    0.899715 0.799142 0.651640 0.168399
H14   H     H_    0.846422 0.658107 0.723749 0.153622
H15   H     H_    0.713512 0.772879 0.726507 0.205353
H16   H     H_    0.440269 0.431393 0.224893 0.192687
H17   H     H_    0.552871 0.544548 0.783210 0.173672
H18   H     H_    0.870922 0.541634 0.200697 0.161205
H19   H     H_    0.141044 0.405808 0.790590 0.154393
H20   H     H_    0.078447 0.337336 0.952065 0.146732
H21   H     H_    0.953055 0.537913 0.030881 0.151216
H22   H     H_    0.322851 0.330947 0.160625 0.166772
N1    N     N_R   0.142780 0.500030 0.500020 -0.129584
N2    N     N_R   0.857220 0.499970 0.499980 -0.131870
O1    O     O_R   0.385370 0.683250 0.500010 -0.631677
O2    O     O_3   0.785307 0.665640 0.608096 -0.570781
O3    O     O_R   0.614630 0.316750 0.499990 -0.632567
O4    O     O_R   0.614700 0.683220 0.500000 -0.573311
O5    O     O_R   0.385300 0.316780 0.500000 -0.581969
O6    O     O_R   0.319830 0.500020 0.632250 -0.627732
O7    O     O_R   0.680170 0.499980 0.367750 -0.625734
O8    O     O_R   0.549160 0.499990 0.632240 -0.571015
O9    O     O_R   0.450840 0.500010 0.367760 -0.570665
O10   O     O_3   0.213057 0.337647 0.388438 -0.582832
Zn1   Zn    Zn3+2 0.346870 0.500020 0.500000 0.979402
Zn2   Zn    Zn3+2 0.653130 0.499980 0.500000 0.983696

loop_
_geom_bond_atom_site_label_1
_geom_bond_atom_site_label_2
_ccdc_geom_bond_type
O3    Zn2   S    
C8    O2    S    
C2    C4    A    
C21   C26   A    
C10   C13   S    
C11   C18   A    
C32   C34   A    
C19   C21   A    
C27   O10   S    
C12   O5    A    
C9    O6    A    
C5    C7    A    
C28   H15   S    
C33   H4    S    
C19   H16   S    
C13   C17   A    
C1    C4    S    
N1    Zn1   S    
C1    O4    A    
C27   H11   S    
C7    O10   S    
C1    O1    A    
C2    C33   A    
C24   C31   A    
C23   H22   S    
C28   H13   S    
O8    Zn2   S    
C32   H3    S    
C16   H19   S    
C7    N1    A    
C12   O3    A    
C9    C11   S    
C29   H2    S    
C14   C22   A    
C4    C32   A    
C34   H7    S    
C5    N2    A    
C2    H8    S    
C10   O7    A    
C30   H1    S    
C17   H18   S    
C15   C24   A    
C14   H20   S    
O1    Zn1   S    
C18   H17   S    
C18   C20   A    
C28   O2    S    
C25   C29   A    
C14   C16   A    
C21   C24   A    
C6    N1    A    
C20   C25   A    
C3    C33   A    
O7    Zn2   S    
C23   C30   A    
C27   H9    S    
C6    H6    S    
O4    Zn2   S    
C29   C31   A    
C11   C16   A    
C23   C26   A    
C15   C17   A    
C5    H5    S    
C13   C19   A    
C9    O8    A    
N2    Zn2   S    
C6    C8    A    
C3    C12   S    
C22   C30   A    
C3    C34   A    
C8    N2    A    
C25   C26   A    
C10   O9    A    
C27   H10   S    
O6    Zn1   S    
C28   H14   S    
O5    Zn1   S    
C20   C22   A    
O9    Zn1   S    
C31   H12   S    
C15   H21   S    
