data_mof_unit_11521.cif
_audit_creation_date              2012-12-10T20:36:33-0500
_audit_creation_method            fapswitch 2.2
_symmetry_space_group_name_H-M    P1
_symmetry_Int_Tables_number       1
_space_group_crystal_system       triclinic
_cell_length_a                    10.501481
_cell_length_b                    10.662498
_cell_length_c                    9.947979
_cell_angle_alpha                 90.659842
_cell_angle_beta                  90.106075
_cell_angle_gamma                 91.117371
_cell_volume                      1113.60724067

loop_
_atom_site_label
_atom_site_type_symbol
_atom_type_description
_atom_site_fract_x
_atom_site_fract_y
_atom_site_fract_z
_atom_type_partial_charge
C1    C     C_R   0.500490 0.260906 0.499127 0.894165
C2    C     C_3   0.957511 0.460174 0.377451 -0.106311
C3    C     C_3   0.040615 0.380635 0.471218 -0.296206
C4    C     C_3   0.122482 0.498099 0.500962 -0.048944
C5    C     C_R   0.600552 0.066359 0.554340 -0.079936
C6    C     C_R   0.501727 0.129506 0.494720 -0.083604
C7    C     C_R   0.408074 0.064473 0.420608 -0.162414
C8    C     C_R   0.401682 0.934542 0.424961 0.423530
C9    C     C_R   0.494970 0.871620 0.500768 -0.148935
C10   C     C_R   0.598110 0.938290 0.556067 -0.105287
C11   C     C_3   0.660759 0.937628 0.692206 0.761451
C12   C     C_R   0.257599 0.500013 0.500065 0.879507
C13   C     C_3   0.665622 0.081002 0.687622 0.186855
C14   C     C_R   0.397198 0.455201 0.069674 0.121284
C15   C     C_R   0.595913 0.557823 0.073489 -0.014056
C16   C     C_R   0.597644 0.555024 0.928979 -0.071630
C17   C     C_R   0.396570 0.456464 0.928045 0.190831
C18   C     C_3   0.335178 0.329452 0.916574 0.102837
C19   C     C_3   0.337386 0.326067 0.071255 0.208877
C20   C     C_R   0.498954 0.739421 0.500732 0.859287
C21   C     C_R   0.742226 0.497496 0.500066 0.883370
C22   C     C_3   0.041351 0.532813 0.623493 -0.069518
C23   C     C_3   0.956907 0.415250 0.593570 -0.090647
C24   C     C_3   0.877078 0.495608 0.500142 -0.084084
C25   C     C_3   0.958498 0.613263 0.530421 -0.298810
C26   C     C_3   0.040490 0.576020 0.409995 0.495586
H1    H     H_    0.917392 0.349174 0.668962 0.168820
H2    H     H_    0.762439 0.124893 0.679744 0.060968
H3    H     H_    0.395851 0.259803 0.864765 0.189531
H4    H     H_    0.079183 0.561824 0.723656 0.225120
H5    H     H_    0.921253 0.707919 0.552144 0.186521
H6    H     H_    0.919580 0.430278 0.277742 0.224601
H7    H     H_    0.078713 0.286459 0.447917 0.154689
H8    H     H_    0.334761 0.114628 0.367764 0.177818
N1    N     N_R   0.499140 0.499140 0.142800 -0.159574
N2    N     N_R   0.499140 0.499180 0.857150 -0.177722
O1    O     O_R   0.500020 0.316790 0.614690 -0.574836
O2    O     O_R   0.500000 0.316760 0.385350 -0.598309
O3    O     O_R   0.313960 0.499990 0.614650 -0.597924
O4    O     O_R   0.313940 0.499950 0.385310 -0.586462
O5    O     O_R   0.500000 0.683240 0.614650 -0.595231
O6    O     O_R   0.499980 0.683210 0.385310 -0.641667
O7    O     O_R   0.686060 0.500050 0.614690 -0.638065
O8    O     O_R   0.686040 0.500010 0.385350 -0.629963
Zn1   Zn    Zn3+2 0.500010 0.500020 0.653130 0.994069
Zn2   Zn    Zn3+2 0.499990 0.499980 0.346870 0.988483
O9    O     O_3   0.781358 0.882084 0.692161 -0.823923
H9    H     H_    0.831357 0.916918 0.616084 0.298213
O10   O     O_3   0.587679 0.136825 0.784494 -0.727018
H10   H     H_    0.641343 0.147792 0.866105 0.327490
C27   C     C_2   0.692075 0.632570 0.149330 0.503847
H11   H     H_    0.662815 0.709217 0.213550 0.067497
O11   O     O_2   0.804819 0.608039 0.142826 -0.541642
C28   C     C_2   0.702711 0.616281 0.855139 0.529217
H12   H     H_    0.681706 0.677031 0.772780 0.160898
O12   O     O_2   0.813734 0.594093 0.880154 -0.506785
O13   O     O_3   0.212903 0.337229 0.860805 -0.713728
H13   H     H_    0.180310 0.249539 0.852378 0.340279
C29   C     C_2   0.209186 0.322264 0.139295 0.563841
H14   H     H_    0.182511 0.242721 0.200938 0.038175
O14   O     O_2   0.133612 0.406622 0.124213 -0.525812
O15   O     O_3   0.418485 0.234162 0.122248 -0.778501
H15   H     H_    0.503015 0.243251 0.078341 0.338301
O16   O     O_3   0.089293 0.658694 0.314122 -0.698417
H16   H     H_    0.014840 0.704456 0.280100 0.368884
O17   O     O_3   0.300141 0.874797 0.361140 -0.719011
H17   H     H_    0.289836 0.788788 0.396059 0.361842
O18   O     O_3   0.580055 0.889378 0.792243 -0.717676
H18   H     H_    0.626743 0.900291 0.878540 0.335967

loop_
_geom_bond_atom_site_label_1
_geom_bond_atom_site_label_2
_ccdc_geom_bond_type
C25   H5    S    
C20   O6    A    
C23   C24   S    
C13   H2    S    
C12   O4    A    
O15   H15   S    
C17   N2    A    
C15   C27   S    
C4    C12   S    
C21   O8    A    
C4    C22   S    
C9    C10   A    
C9    C20   S    
C11   O9    S    
O9    H9    S    
C1    O1    A    
O3    Zn1   S    
C5    C13   S    
O16   H16   S    
C12   O3    A    
O17   H17   S    
C7    C8    A    
C2    C26   S    
C18   H3    S    
O5    Zn1   S    
C11   O18   S    
C8    O17   S    
O7    Zn1   S    
C14   C17   A    
O13   H13   S    
C6    C7    A    
C29   H14   S    
C1    O2    A    
C13   O10   S    
C16   C28   S    
C15   N1    A    
O8    Zn2   S    
C17   C18   S    
C2    C3    S    
C23   H1    S    
C22   C23   S    
C2    C24   S    
C5    C6    A    
C22   H4    S    
C7    H8    S    
C28   O12   D    
C4    C26   S    
C29   O14   D    
O2    Zn2   S    
C10   C11   S    
O4    Zn2   S    
C19   O15   S    
C5    C10   A    
C27   H11   S    
C11   C13   S    
C24   C25   S    
C2    H6    S    
C18   C19   S    
O6    Zn2   S    
C21   C24   S    
C14   N1    A    
O10   H10   S    
C3    C23   S    
C3    H7    S    
C28   H12   S    
O18   H18   S    
C26   O16   S    
N2    Zn1   S    
C18   O13   S    
C19   C29   S    
C25   C26   S    
C21   O7    A    
N1    Zn2   S    
O1    Zn1   S    
C14   C19   S    
C15   C16   A    
C16   N2    A    
C3    C4    S    
C1    C6    S    
C20   O5    A    
C8    C9    A    
C27   O11   D    
C22   C25   S    
