data_mof_unit_38040.cif
_audit_creation_date              2012-12-10T18:31:56-0500
_audit_creation_method            fapswitch 2.2
_symmetry_space_group_name_H-M    P1
_symmetry_Int_Tables_number       1
_space_group_crystal_system       triclinic
_cell_length_a                    10.649772
_cell_length_b                    14.93894
_cell_length_c                    15.433919
_cell_angle_alpha                 82.240196
_cell_angle_beta                  89.270072
_cell_angle_gamma                 104.005749
_cell_volume                      2358.02915756

loop_
_atom_site_label
_atom_site_type_symbol
_atom_type_description
_atom_site_fract_x
_atom_site_fract_y
_atom_site_fract_z
_atom_type_partial_charge
C1    C     C_R   0.479651 0.441768 0.662458 0.934033
C2    C     C_3   0.120550 0.497391 0.501885 0.008268
C3    C     C_3   0.104583 0.589940 0.448178 -0.489327
C4    C     C_3   0.066369 0.489584 0.598317 0.229977
C5    C     C_R   0.447122 0.407059 0.755249 -0.036038
C6    C     C_R   0.500555 0.591673 0.245768 -0.065959
C7    C     C_R   0.369289 0.282480 0.875066 -0.160025
C8    C     C_R   0.407541 0.311656 0.786919 -0.111592
C9    C     C_R   0.445404 0.472371 0.811568 -0.203930
C10   C     C_R   0.403120 0.444961 0.899070 0.104233
C11   C     C_R   0.369364 0.348511 0.931748 0.151512
C12   C     C_R   0.742273 0.500995 0.498822 0.860561
C13   C     C_R   0.404138 0.511696 0.956140 0.077387
C14   C     C_R   0.396728 0.481910 0.047129 0.051759
C15   C     C_R   0.355765 0.385293 0.078289 -0.195031
C16   C     C_R   0.339738 0.319681 0.020880 -0.176305
C17   C     C_R   0.415633 0.607257 0.925596 -0.198180
C18   C     C_R   0.436217 0.672990 0.983036 -0.219730
C19   C     C_R   0.451542 0.645784 0.071413 0.168993
C20   C     C_R   0.433630 0.549942 0.103574 0.095121
C21   C     C_R   0.487793 0.713039 0.127803 -0.184961
C22   C     C_R   0.511213 0.685980 0.215037 -0.190042
C23   C     C_R   0.514748 0.558122 0.337709 0.854987
C24   C     C_R   0.463422 0.525136 0.189647 -0.252105
C25   C     C_R   0.726811 0.853731 0.605185 -0.279893
C26   C     C_R   0.678400 0.759706 0.600379 0.017887
C27   C     C_R   0.508427 0.791760 0.512856 -0.049438
C28   C     C_R   0.551465 0.888216 0.516256 0.000532
C29   C     C_R   0.666230 0.918549 0.560614 0.110556
C30   C     C_R   0.487617 0.955267 0.475638 0.094030
C31   C     C_R   0.543507 0.051942 0.477155 0.001047
C32   C     C_R   0.672990 0.079069 0.504119 -0.041475
C33   C     C_R   0.726397 0.013001 0.553249 -0.138914
C34   C     C_R   0.257812 0.499252 0.500318 0.900840
C35   C     C_R   0.370200 0.929113 0.433554 -0.246331
C36   C     C_R   0.307141 0.995021 0.396581 -0.110603
C37   C     C_R   0.351944 0.089025 0.406534 0.042739
C38   C     C_R   0.467931 0.117118 0.451088 -0.054020
C39   C     C_R   0.281222 0.155342 0.376530 0.314465
C40   C     C_R   0.322826 0.245424 0.397251 -0.076401
C41   C     C_R   0.497559 0.207417 0.475076 -0.101408
C42   C     C_3   0.899681 0.413799 0.463565 -0.367688
C43   C     C_3   0.042825 0.415397 0.457747 -0.321732
C44   C     C_3   0.960793 0.588457 0.440664 -0.415746
C45   C     C_3   0.924446 0.499296 0.596439 -0.229258
C46   C     C_3   0.879211 0.501679 0.500202 0.013222
H1    H     H_    0.860118 0.409723 0.397332 0.178190
H2    H     H_    0.128412 0.547556 0.628456 0.082767
H3    H     H_    0.943209 0.654128 0.458707 0.185264
H4    H     H_    0.152645 0.650651 0.480643 0.182977
H5    H     H_    0.310206 0.246212 0.046855 0.182687
H6    H     H_    0.462191 0.453644 0.213259 0.164897
H7    H     H_    0.537681 0.738435 0.258064 0.167732
H8    H     H_    0.446243 0.745737 0.957505 0.153821
H9    H     H_    0.341575 0.208535 0.899184 0.146434
H10   H     H_    0.406258 0.259960 0.743830 0.164464
H11   H     H_    0.481861 0.545232 0.786818 0.161500
H12   H     H_    0.847055 0.350503 0.507627 0.238240
H13   H     H_    0.333394 0.358841 0.146819 0.178225
H14   H     H_    0.406626 0.632639 0.857640 0.153632
H15   H     H_    0.499426 0.786391 0.104182 0.149279
H16   H     H_    0.821457 0.034274 0.579327 0.204686
H17   H     H_    0.574239 0.229386 0.518441 0.135995
H18   H     H_    0.271094 0.297726 0.375680 0.164178
H19   H     H_    0.218577 0.969952 0.364458 0.211752
H20   H     H_    0.814466 0.875904 0.639656 0.157473
H21   H     H_    0.728471 0.709438 0.630181 0.170760
H22   H     H_    0.428577 0.762751 0.474915 0.124712
H23   H     H_    0.057082 0.347411 0.489323 0.273710
H24   H     H_    0.323488 0.857733 0.428193 0.132058
H25   H     H_    0.076301 0.424005 0.387753 0.162594
H26   H     H_    0.933710 0.585647 0.371457 0.189967
H27   H     H_    0.151219 0.600227 0.381366 0.190542
H28   H     H_    0.858593 0.437601 0.636052 0.187715
N1    N     N_R   0.573860 0.731700 0.552730 -0.106609
N2    N     N_R   0.426060 0.268290 0.447230 -0.115679
O1    O     O_R   0.462770 0.383110 0.605620 -0.587734
O2    O     O_R   0.510160 0.531900 0.639510 -0.612232
O3    O     O_R   0.661510 0.425600 0.483070 -0.638177
O4    O     O_R   0.708900 0.574390 0.516960 -0.614753
O5    O     O_R   0.489840 0.468100 0.360490 -0.623318
O6    O     O_R   0.537230 0.616890 0.394380 -0.617290
O7    O     O_R   0.291100 0.425610 0.483040 -0.596551
O8    O     O_R   0.338490 0.574400 0.516930 -0.645669
Zn1   Zn    Zn3+2 0.468350 0.400660 0.477370 0.974733
Zn2   Zn    Zn3+2 0.531650 0.599340 0.522630 0.957712
C47   C     C_2   0.762697 0.169370 0.467615 0.402135
H29   H     H_    0.733172 0.216146 0.416394 0.059161
O9    O     O_2   0.873816 0.190420 0.491015 -0.557364
S1    S     S_3+6 0.140369 0.129030 0.315399 0.014177
O10   O     O_2   0.170739 0.088804 0.235797 -0.280501
O11   O     O_2   0.034833 0.058454 0.370647 -0.294782
O12   O     O_3   0.088058 0.225342 0.282788 -0.549639
H30   H     H_    0.040840 0.235684 0.334780 0.369565
C48   C     C_2   0.912838 0.583363 0.637928 0.395964
H31   H     H_    0.969127 0.652556 0.611153 0.059470
O13   O     O_2   0.841404 0.573900 0.702781 -0.564621
S2    S     S_3+6 0.072880 0.383333 0.668873 0.009054
O14   O     O_2   0.195997 0.355330 0.652612 -0.282439
O15   O     O_2   0.066514 0.400352 0.762485 -0.296453
O16   O     O_3   0.948011 0.294361 0.652903 -0.539243
H32   H     H_    0.888426 0.283574 0.705133 0.368813

loop_
_geom_bond_atom_site_label_1
_geom_bond_atom_site_label_2
_ccdc_geom_bond_type
C44   H3    S    
C24   H6    S    
C47   H29   S    
O12   H30   S    
C23   O6    A    
C4    S2    S    
C1    O1    A    
C48   H31   S    
C16   H5    S    
C7    H9    S    
C42   H12   S    
C7    C8    A    
C45   C46   S    
C7    C11   A    
O16   H32   S    
C30   C35   A    
C1    C5    S    
C26   H21   S    
C36   C37   A    
C19   C21   A    
O8    Zn2   S    
C30   C31   A    
C15   C16   A    
C6    C22   A    
C12   O3    A    
C29   C33   A    
C18   C19   A    
C42   C46   S    
C20   C24   A    
O4    Zn2   S    
C27   H22   S    
C19   C20   A    
C35   H24   S    
C33   H16   S    
C9    C10   A    
C39   S1    S    
C21   H15   S    
O2    Zn2   S    
O1    Zn1   S    
C43   H23   S    
C21   C22   A    
C1    O2    A    
C8    H10   S    
C34   O8    A    
C27   N1    A    
C3    H4    S    
C44   C46   S    
C17   C18   A    
C22   H7    S    
C4    C45   S    
C25   C29   A    
C3    C44   S    
C14   C20   A    
C38   C41   A    
C12   C46   S    
C39   C40   A    
C36   H19   S    
C25   C26   A    
O6    Zn2   S    
C32   C47   S    
C40   N2    A    
C45   H28   S    
C35   C36   A    
C2    C4    S    
C5    C9    A    
C37   C38   A    
C11   C16   A    
N1    Zn2   S    
S1    O11   D    
C31   C32   A    
C2    C43   S    
C6    C24   A    
C26   N1    A    
O7    Zn1   S    
S2    O15   D    
C47   O9    D    
C34   O7    A    
C41   H17   S    
C45   C48   S    
O3    Zn1   S    
S1    O12   S    
C4    H2    S    
C28   C29   A    
C43   H25   S    
C23   O5    A    
C15   H13   S    
C25   H20   S    
C10   C13   A    
C5    C8    A    
C48   O13   D    
S2    O16   S    
C40   H18   S    
C31   C38   A    
C13   C17   A    
C32   C33   A    
C28   C30   A    
C2    C3    S    
C37   C39   A    
C41   N2    A    
C2    C34   S    
S1    O10   D    
C6    C23   S    
C12   O4    A    
C44   H26   S    
C9    H11   S    
C42   H1    S    
C3    H27   S    
C10   C11   A    
C18   H8    S    
C17   H14   S    
S2    O14   D    
C42   C43   S    
C27   C28   A    
C14   C15   A    
C13   C14   A    
N2    Zn1   S    
O5    Zn1   S    
