data_mof_unit_26642.cif
_audit_creation_date              2012-12-10T18:24:38-0500
_audit_creation_method            fapswitch 2.2
_symmetry_space_group_name_H-M    P1
_symmetry_Int_Tables_number       1
_space_group_crystal_system       triclinic
_cell_length_a                    14.046448
_cell_length_b                    14.919856
_cell_length_c                    16.746351
_cell_angle_alpha                 90.326139
_cell_angle_beta                  82.061081
_cell_angle_gamma                 90.343024
_cell_volume                      3475.8090181

loop_
_atom_site_label
_atom_site_type_symbol
_atom_type_description
_atom_site_fract_x
_atom_site_fract_y
_atom_site_fract_z
_atom_type_partial_charge
C1    C     C_R   0.500184 0.672901 0.499161 0.916330
C2    C     C_R   0.489057 0.908983 0.574028 0.097047
C3    C     C_R   0.497117 0.046795 0.495250 0.039866
C4    C     C_R   0.496483 0.953139 0.498457 0.036340
C5    C     C_R   0.499391 0.095879 0.566935 0.126581
C6    C     C_R   0.503268 0.903839 0.425974 0.120496
C7    C     C_R   0.501389 0.039792 0.349281 -0.240749
C8    C     C_R   0.487193 0.960507 0.644959 -0.227174
C9    C     C_R   0.506198 0.947135 0.352065 -0.200241
C10   C     C_R   0.494856 0.052893 0.641019 -0.214891
C11   C     C_R   0.200038 0.421494 0.508812 -0.081081
C12   C     C_R   0.500279 0.327149 0.496691 0.854679
C13   C     C_R   0.799391 0.578691 0.493200 -0.041317
C14   C     C_R   0.204187 0.578140 0.490296 -0.035312
C15   C     C_R   0.795866 0.421600 0.507571 -0.062370
C16   C     C_R   0.484096 0.496314 0.653550 0.870544
C17   C     C_R   0.516473 0.499104 0.346415 0.879398
C18   C     C_R   0.103243 0.581337 0.489935 -0.027030
C19   C     C_R   0.896527 0.418417 0.508596 -0.025946
C20   C     C_R   0.050153 0.500012 0.500546 0.019870
C21   C     C_R   0.949276 0.500091 0.500642 0.017242
C22   C     C_R   0.098557 0.418578 0.510827 -0.025729
C23   C     C_R   0.506549 0.187687 0.563800 -0.326342
C24   C     C_R   0.900362 0.581904 0.493189 -0.024376
C25   C     C_R   0.054970 0.663596 0.480004 0.072272
C26   C     C_R   0.944445 0.336096 0.518218 0.078312
C27   C     C_R   0.952542 0.664431 0.485868 0.076159
C28   C     C_R   0.045191 0.336765 0.522744 0.072686
C29   C     C_R   0.467538 0.477016 0.739750 -0.116866
C30   C     C_R   0.533529 0.486353 0.259414 -0.135265
C31   C     C_R   0.507477 0.533069 0.794524 0.107634
C32   C     C_R   0.481068 0.537709 0.211026 0.130881
C33   C     C_R   0.484479 0.518482 0.876743 -0.219262
C34   C     C_R   0.507815 0.811655 0.428229 -0.306160
C35   C     C_R   0.483689 0.515445 0.130553 -0.212261
C36   C     C_R   0.433071 0.441750 0.905044 0.107250
C37   C     C_R   0.528408 0.436302 0.099869 0.063467
C38   C     C_R   0.398478 0.383055 0.851319 -0.215620
C39   C     C_R   0.587655 0.389831 0.145714 -0.179991
C40   C     C_R   0.411832 0.400890 0.768924 0.077633
C41   C     C_R   0.596925 0.418041 0.224304 0.054878
C42   C     C_2   0.430667 0.416560 0.989793 0.039770
C43   C     C_2   0.516743 0.405952 0.017662 0.045366
C44   C     C_3   0.113420 0.749304 0.459792 -0.421212
C45   C     C_R   0.500181 0.231836 0.492253 -0.078790
C46   C     C_3   0.143171 0.793838 0.535693 -0.363780
C47   C     C_3   0.220280 0.865532 0.513812 -0.866861
C48   C     C_3   0.888043 0.247751 0.521996 -0.435151
C49   C     C_3   0.833135 0.231057 0.606611 -0.349613
C50   C     C_3   0.768251 0.148558 0.607159 -0.864290
C51   C     C_3   0.898147 0.753156 0.489057 -0.430200
C52   C     C_3   0.869715 0.778008 0.406583 -0.357287
C53   C     C_3   0.800679 0.857256 0.414023 -0.853143
C54   C     C_3   0.095000 0.251413 0.544395 -0.438758
C55   C     C_3   0.140631 0.200510 0.468897 -0.348080
C56   C     C_R   0.499196 0.768177 0.501870 -0.094478
C57   C     C_3   0.215704 0.133711 0.489037 -0.894378
C58   C     C_3   0.674351 0.378701 0.269803 -0.380076
C59   C     C_3   0.737110 0.304264 0.226433 -0.386442
C60   C     C_3   0.809872 0.270509 0.279033 -0.878703
C61   C     C_3   0.375786 0.329672 0.715644 -0.410014
C62   C     C_3   0.265321 0.322932 0.727580 -0.310575
C63   C     C_3   0.232279 0.226240 0.717872 -0.926023
C64   C     C_3   0.605916 0.373720 0.962271 -0.402172
C65   C     C_3   0.596795 0.274007 0.941715 -0.346681
C66   C     C_3   0.683134 0.242178 0.883183 -0.883176
C67   C     C_R   0.491882 0.185655 0.419644 0.023409
C68   C     C_3   0.334825 0.422314 0.045300 -0.414645
C69   C     C_3   0.258215 0.358156 0.020518 -0.360210
C70   C     C_3   0.168061 0.357800 0.082970 -0.867108
C71   C     C_3   0.479702 0.236592 0.342913 -0.424455
C72   C     C_3   0.378340 0.225648 0.320409 -0.333218
C73   C     C_3   0.369130 0.271923 0.240847 -0.880874
C74   C     C_3   0.460857 0.763955 0.654990 -0.391853
C75   C     C_3   0.353672 0.771209 0.687546 -0.361346
C76   C     C_3   0.328773 0.718185 0.765354 -0.843790
C77   C     C_R   0.484654 0.814700 0.575954 0.023902
C78   C     C_R   0.496517 0.091218 0.420506 0.100733
H1    H     H_    0.241019 0.361445 0.513087 0.160813
H2    H     H_    0.516075 0.773041 0.372578 0.173185
H3    H     H_    0.503246 0.069867 0.290585 0.157989
H4    H     H_    0.481858 0.930963 0.704074 0.157329
H5    H     H_    0.511251 0.909156 0.296263 0.163398
H6    H     H_    0.495583 0.090973 0.696289 0.143589
H7    H     H_    0.286417 0.834820 0.481140 0.278593
H8    H     H_    0.193791 0.917584 0.475270 0.265615
H9    H     H_    0.238668 0.897988 0.569579 0.246725
H10   H     H_    0.079601 0.825298 0.571610 0.220375
H11   H     H_    0.171266 0.743233 0.574609 0.216654
H12   H     H_    0.758567 0.638319 0.486830 0.160828
H13   H     H_    0.177268 0.734162 0.414958 0.215770
H14   H     H_    0.074211 0.798495 0.427519 0.201676
H15   H     H_    0.715103 0.157581 0.564572 0.271969
H16   H     H_    0.811807 0.087910 0.589529 0.259813
H17   H     H_    0.728741 0.138589 0.668650 0.250387
H18   H     H_    0.885002 0.220828 0.650108 0.218678
H19   H     H_    0.788123 0.289688 0.627845 0.226690
H20   H     H_    0.838561 0.246973 0.475735 0.191054
H21   H     H_    0.934538 0.189548 0.504086 0.203996
H22   H     H_    0.733209 0.839815 0.453859 0.270406
H23   H     H_    0.247829 0.637775 0.483538 0.166039
H24   H     H_    0.834473 0.916656 0.439184 0.257377
H25   H     H_    0.782364 0.874584 0.353587 0.251915
H26   H     H_    0.934978 0.795903 0.364296 0.220187
H27   H     H_    0.834683 0.720421 0.379823 0.223114
H28   H     H_    0.833847 0.749669 0.535702 0.207863
H29   H     H_    0.939909 0.809007 0.511111 0.201869
H30   H     H_    0.277247 0.169751 0.509868 0.269254
H31   H     H_    0.183528 0.086976 0.536836 0.268771
H32   H     H_    0.243003 0.094040 0.434470 0.250626
H33   H     H_    0.084566 0.163544 0.441289 0.216280
H34   H     H_    0.752014 0.362159 0.513874 0.161421
H35   H     H_    0.174687 0.248476 0.423245 0.218646
H36   H     H_    0.149417 0.268360 0.583789 0.208896
H37   H     H_    0.045716 0.206299 0.583085 0.200506
H38   H     H_    0.857316 0.326194 0.294020 0.263248
H39   H     H_    0.772088 0.241449 0.335763 0.257323
H40   H     H_    0.855087 0.217685 0.246114 0.251467
H41   H     H_    0.691354 0.246717 0.212761 0.216345
H42   H     H_    0.776860 0.330423 0.169213 0.228272
H43   H     H_    0.723032 0.434568 0.282253 0.224790
H44   H     H_    0.641357 0.351777 0.328641 0.210396
H45   H     H_    0.364859 0.320628 0.873001 0.135854
H46   H     H_    0.254692 0.183824 0.766234 0.263365
H47   H     H_    0.152688 0.223574 0.722630 0.248529
H48   H     H_    0.264199 0.198846 0.658443 0.274348
H49   H     H_    0.233724 0.346669 0.788498 0.220538
H50   H     H_    0.236580 0.366061 0.682651 0.220683
H51   H     H_    0.401304 0.340341 0.651236 0.205770
H52   H     H_    0.407246 0.264890 0.731299 0.193028
H53   H     H_    0.687975 0.279658 0.825578 0.266512
H54   H     H_    0.750588 0.252194 0.909870 0.261080
H55   H     H_    0.674931 0.169708 0.870132 0.248337
H56   H     H_    0.625758 0.331780 0.119615 0.133697
H57   H     H_    0.591631 0.233834 0.997866 0.213715
H58   H     H_    0.530606 0.262021 0.913718 0.226060
H59   H     H_    0.618732 0.413233 0.906000 0.226323
H60   H     H_    0.671704 0.383899 0.991247 0.195817
H61   H     H_    0.185193 0.334487 0.142160 0.258772
H62   H     H_    0.137046 0.426172 0.090052 0.267235
H63   H     H_    0.113601 0.311738 0.062871 0.247116
H64   H     H_    0.236854 0.379654 0.962185 0.225562
H65   H     H_    0.287380 0.288978 0.014066 0.220709
H66   H     H_    0.344211 0.405283 0.108155 0.227326
H67   H     H_    0.445869 0.557430 0.092983 0.162413
H68   H     H_    0.307611 0.492093 0.044880 0.207198
H69   H     H_    0.382064 0.345082 0.246057 0.275280
H70   H     H_    0.421428 0.243720 0.191398 0.260869
H71   H     H_    0.295436 0.261385 0.225675 0.245482
H72   H     H_    0.358772 0.153884 0.315424 0.225672
H73   H     H_    0.327267 0.257100 0.368536 0.236735
H74   H     H_    0.490559 0.309262 0.350296 0.195095
H75   H     H_    0.534932 0.215234 0.292700 0.197404
H76   H     H_    0.343235 0.645806 0.754009 0.270232
H77   H     H_    0.371750 0.742851 0.811988 0.271698
H78   H     H_    0.515029 0.562013 0.918713 0.167289
H79   H     H_    0.251293 0.726352 0.788324 0.245065
H80   H     H_    0.333405 0.842379 0.699368 0.223864
H81   H     H_    0.310779 0.744092 0.641857 0.234826
H82   H     H_    0.478086 0.691912 0.647265 0.218034
H83   H     H_    0.505911 0.788473 0.699954 0.219705
H84   H     H_    0.515321 0.225430 0.617756 0.139865
I1    I     I_    0.613424 0.632655 0.759851 -0.453028
I2    I     I_    0.398124 0.651124 0.254596 -0.454656
N1    N     N_R   0.249970 0.499930 0.499970 -0.102877
N2    N     N_R   0.750030 0.500070 0.500030 -0.104661
O1    O     O_R   0.419720 0.632140 0.499990 -0.619395
O2    O     O_R   0.580280 0.367860 0.500010 -0.638170
O3    O     O_R   0.580270 0.632160 0.499980 -0.622055
O4    O     O_R   0.419730 0.367840 0.500020 -0.636767
O5    O     O_R   0.410240 0.500000 0.615800 -0.619121
O6    O     O_R   0.589760 0.500000 0.384200 -0.634477
O7    O     O_R   0.570790 0.500020 0.615800 -0.573008
O8    O     O_R   0.429210 0.499980 0.384200 -0.575290
Zn1   Zn    Zn3+2 0.392800 0.499980 0.500010 0.945852
Zn2   Zn    Zn3+2 0.607200 0.500020 0.499990 0.943031

loop_
_geom_bond_atom_site_label_1
_geom_bond_atom_site_label_2
_ccdc_geom_bond_type
C16   O7    A    
C30   C32   A    
C34   C56   A    
C59   H42   S    
C23   C45   A    
C13   H12   S    
C14   C18   A    
C36   C42   S    
C24   C27   A    
C6    C9    A    
C63   H46   S    
C17   O6    A    
C39   C41   A    
C46   H11   S    
C64   H60   S    
C52   C53   S    
C70   H62   S    
C67   C78   A    
C73   H69   S    
C8    H4    S    
C47   H7    S    
C35   C37   A    
C1    C56   S    
C41   C58   S    
C62   H49   S    
C50   H17   S    
C67   C71   S    
C1    O1    A    
C71   H75   S    
C54   H36   S    
C33   C36   A    
O2    Zn2   S    
C35   H67   S    
C10   H6    S    
C19   C26   A    
O8    Zn1   S    
C34   H2    S    
C46   C47   S    
C57   H31   S    
C57   H32   S    
C27   C51   S    
C68   C69   S    
C58   H43   S    
C74   C77   S    
C45   C67   A    
C31   C33   A    
C30   C41   A    
C60   H40   S    
C46   H10   S    
C38   H45   S    
C44   H14   S    
C61   H51   S    
C64   H59   S    
C23   H84   S    
C55   H33   S    
C59   C60   S    
C38   C40   A    
C22   C28   A    
C42   C68   S    
C17   C30   S    
C61   C62   S    
C18   C25   A    
C25   C44   S    
C44   C46   S    
C43   C64   S    
C66   H54   S    
O4    Zn1   S    
C53   H22   S    
C37   C39   A    
C31   I1    S    
C76   H79   S    
C33   H78   S    
C58   H44   S    
C74   C75   S    
C73   H70   S    
C51   C52   S    
C65   H58   S    
C32   C35   A    
C4    C6    A    
C28   C54   S    
C50   H16   S    
C14   H23   S    
C12   O4    A    
C55   H35   S    
C58   C59   S    
O5    Zn1   S    
C40   C61   S    
C6    C34   A    
C13   C24   A    
C47   H9    S    
C37   C43   S    
C15   C19   A    
C75   C76   S    
C47   H8    S    
C62   C63   S    
C66   H55   S    
C71   H74   S    
C5    C23   A    
C53   H24   S    
C72   H73   S    
C54   H37   S    
C60   H39   S    
C15   N2    A    
C65   H57   S    
C14   N1    A    
C63   H47   S    
C44   H13   S    
C11   H1    S    
C61   H52   S    
C9    H5    S    
C7    C78   A    
C75   H80   S    
C51   H29   S    
C48   C49   S    
C7    H3    S    
C20   C22   A    
C52   H27   S    
C49   C50   S    
C72   H72   S    
C55   C57   S    
C60   H38   S    
C69   H65   S    
C42   C43   D    
C3    C4    A    
C1    O3    A    
C68   H68   S    
C17   O8    A    
O1    Zn1   S    
C66   H53   S    
O7    Zn2   S    
C75   H81   S    
C7    C9    A    
C48   H21   S    
C54   C55   S    
C52   H26   S    
C70   H63   S    
C59   H41   S    
N1    Zn1   S    
C76   H77   S    
C73   H71   S    
N2    Zn2   S    
C15   H34   S    
C2    C8    A    
C72   C73   S    
C3    C5    A    
C12   O2    A    
C74   H83   S    
C50   H15   S    
C12   C45   S    
C26   C48   S    
C25   C27   A    
C48   H20   S    
C11   C22   A    
C26   C28   A    
C74   H82   S    
C64   C65   S    
C36   C38   A    
C69   H64   S    
C5    C10   A    
C29   C31   A    
C2    C77   A    
C62   H50   S    
C16   O5    A    
C13   N2    A    
C53   H25   S    
C51   H28   S    
C2    C4    A    
C32   I2    S    
C29   C40   A    
C76   H76   S    
O3    Zn2   S    
C68   H66   S    
C18   C20   A    
C49   H18   S    
C69   C70   S    
C63   H48   S    
C56   C77   A    
C49   H19   S    
C70   H61   S    
C57   H30   S    
C71   C72   S    
C20   C21   A    
C16   C29   S    
C8    C10   A    
C65   C66   S    
C21   C24   A    
C11   N1    A    
C3    C78   A    
O6    Zn2   S    
C19   C21   A    
C39   H56   S    
