data_mof_unit_47822.cif
_audit_creation_date              2012-12-10T19:26:43-0500
_audit_creation_method            fapswitch 2.2
_symmetry_space_group_name_H-M    P1
_symmetry_Int_Tables_number       1
_space_group_crystal_system       triclinic
_cell_length_a                    19.13511
_cell_length_b                    10.518201
_cell_length_c                    9.749962
_cell_angle_alpha                 89.496085
_cell_angle_beta                  89.391899
_cell_angle_gamma                 90.17272
_cell_volume                      1962.14905985

loop_
_atom_site_label
_atom_site_type_symbol
_atom_type_description
_atom_site_fract_x
_atom_site_fract_y
_atom_site_fract_z
_atom_type_partial_charge
C1    C     C_R   0.499109 0.257828 0.500857 0.916623
C2    C     C_3   0.556712 0.046619 0.432385 -0.359706
C3    C     C_3   0.483934 0.388907 0.049954 -0.054364
C4    C     C_3   0.516066 0.611093 0.950046 -0.054363
C5    C     C_3   0.544766 0.419430 0.951067 -0.059021
C6    C     C_3   0.455233 0.580569 0.048933 -0.059020
C7    C     C_3   0.439112 0.469513 0.953012 -0.078831
C8    C     C_3   0.560888 0.530487 0.046988 -0.078831
C9    C     C_R   0.365956 0.501446 0.500781 0.881567
C10   C     C_R   0.634044 0.498554 0.499219 0.881567
C11   C     C_R   0.251810 0.418935 0.578500 0.003916
C12   C     C_R   0.500891 0.742172 0.499142 0.916624
C13   C     C_R   0.748191 0.581062 0.421499 0.003915
C14   C     C_R   0.179768 0.426005 0.581388 -0.208496
C15   C     C_R   0.820233 0.573990 0.418609 -0.208497
C16   C     C_R   0.145356 0.523730 0.512055 0.025539
C17   C     C_R   0.854643 0.476263 0.487942 0.025540
C18   C     C_R   0.183166 0.620403 0.441339 -0.015707
C19   C     C_R   0.816833 0.379591 0.558658 -0.015707
C20   C     C_R   0.256792 0.611360 0.433842 -0.097936
C21   C     C_R   0.743208 0.388637 0.566157 -0.097936
C22   C     C_R   0.290363 0.510203 0.503444 -0.127744
C23   C     C_3   0.500675 0.037582 0.630569 -0.010047
C24   C     C_R   0.709637 0.489795 0.496556 -0.127743
C25   C     C_R   0.930343 0.484606 0.493241 0.372210
C26   C     C_R   0.069657 0.515385 0.506755 0.372208
C27   C     C_1   0.284985 0.313592 0.648457 0.234020
C28   C     C_1   0.715016 0.686405 0.351542 0.234020
C29   C     C_2   0.146628 0.734709 0.386192 0.426593
C30   C     C_2   0.853370 0.265284 0.613805 0.426591
C31   C     C_2   0.299987 0.710650 0.363106 0.372125
C32   C     C_2   0.700012 0.289349 0.636895 0.372122
C33   C     C_2   0.624967 0.917253 0.626267 0.459104
C34   C     C_3   0.499325 0.962418 0.369431 -0.010048
C35   C     C_2   0.375032 0.082747 0.373733 0.459104
C36   C     C_2   0.498420 0.080528 0.776920 0.452493
C37   C     C_2   0.501580 0.919471 0.223080 0.452495
C38   C     C_3   0.558312 0.959501 0.560663 0.018991
C39   C     C_3   0.441688 0.040499 0.439337 0.018991
C40   C     C_3   0.501604 0.876705 0.497138 -0.075212
C41   C     C_3   0.498396 0.123295 0.502862 -0.075213
C42   C     C_3   0.443288 0.953381 0.567615 -0.359702
H1    H     H_    0.387890 0.443626 0.908504 0.151173
H2    H     H_    0.529621 0.704691 0.903204 0.176568
H3    H     H_    0.165246 0.783172 0.294542 0.141793
H4    H     H_    0.834751 0.216820 0.705453 0.141792
H5    H     H_    0.346568 0.747046 0.411928 0.044641
H6    H     H_    0.653430 0.252953 0.588073 0.044642
H7    H     H_    0.661076 0.987881 0.664542 0.107759
H8    H     H_    0.338924 0.012119 0.335458 0.107760
H9    H     H_    0.453909 0.134283 0.814097 0.091520
H10   H     H_    0.546092 0.865720 0.185903 0.091520
H11   H     H_    0.612110 0.556374 0.091496 0.151173
H12   H     H_    0.150032 0.352345 0.634721 0.172236
H13   H     H_    0.849969 0.647648 0.365276 0.172237
H14   H     H_    0.397296 0.911930 0.622427 0.161827
H15   H     H_    0.602704 0.088070 0.377573 0.161827
H16   H     H_    0.582324 0.351530 0.904692 0.183026
H17   H     H_    0.417676 0.648470 0.095308 0.183027
H18   H     H_    0.470379 0.295309 0.096796 0.176568
N1    N     N_R   0.036427 0.531737 0.385929 -0.131871
N2    N     N_R   0.963573 0.468254 0.614067 -0.131869
N3    N     N_R   0.967647 0.517552 0.379480 -0.148420
N4    N     N_R   0.032353 0.482439 0.620516 -0.148419
N5    N     N_3   0.499950 0.500030 0.863290 -0.093051
N6    N     N_3   0.500050 0.499970 0.136710 -0.093050
N7    N     N_1   0.311615 0.229413 0.704251 -0.208821
N8    N     N_1   0.688387 0.770585 0.295748 -0.208820
O1    O     O_R   0.500000 0.313960 0.616610 -0.654182
O2    O     O_2   0.904328 0.221617 0.554506 -0.539668
O3    O     O_2   0.286355 0.747204 0.247352 -0.575376
O4    O     O_2   0.713644 0.252796 0.752649 -0.575376
O5    O     O_2   0.639122 0.804636 0.636855 -0.572916
O6    O     O_2   0.360878 0.195364 0.363144 -0.572917
O7    O     O_2   0.546088 0.055475 0.854626 -0.568030
O8    O     O_2   0.453910 0.944521 0.145375 -0.568030
O9    O     O_R   0.500000 0.686040 0.383390 -0.654181
O10   O     O_R   0.500030 0.313950 0.383350 -0.586684
O11   O     O_R   0.499970 0.686050 0.616650 -0.586684
O12   O     O_R   0.398120 0.499990 0.616660 -0.632769
O13   O     O_R   0.601880 0.500010 0.383340 -0.632769
O14   O     O_R   0.398150 0.499980 0.383410 -0.578967
O15   O     O_R   0.601850 0.500020 0.616590 -0.578966
O16   O     O_2   0.095670 0.778376 0.445491 -0.539668
Zn1   Zn    Zn3+2 0.499980 0.500010 0.655740 0.984093
Zn2   Zn    Zn3+2 0.500020 0.499990 0.344260 0.984093

loop_
_geom_bond_atom_site_label_1
_geom_bond_atom_site_label_2
_ccdc_geom_bond_type
C35   O6    D    
C8    N6    S    
C34   C37   S    
C4    C8    S    
C2    H15   S    
C32   O4    D    
C23   C42   S    
C5    H16   S    
C34   C40   S    
C28   N8    T    
C26   N1    A    
C3    C7    S    
C4    N5    S    
C11   C14   A    
C9    C22   S    
C2    C41   S    
C33   H7    S    
C12   O11   A    
C10   O15   A    
C25   N3    A    
N1    N3    A    
C26   N4    A    
N2    N4    A    
C42   H14   S    
C13   C28   S    
C7    H1    S    
O13   Zn2   S    
C9    O14   A    
C3    H18   S    
C2    C34   S    
C31   O3    D    
C14   H12   S    
C31   H5    S    
C1    O10   A    
C32   H6    S    
C30   O2    D    
C39   C42   S    
C16   C26   S    
C21   C32   S    
C34   C39   S    
C29   O16   D    
C4    C6    S    
C37   H10   S    
C4    H2    S    
C10   C24   S    
O14   Zn2   S    
C1    O1    A    
C13   C24   A    
C29   H3    S    
C9    O12   A    
C15   H13   S    
C12   C40   S    
C35   C39   S    
O12   Zn1   S    
C36   O7    D    
C7    N5    S    
C2    C38   S    
C11   C27   S    
C12   O9    A    
C35   H8    S    
C18   C29   S    
C36   H9    S    
C5    N5    S    
O15   Zn1   S    
C37   O8    D    
C20   C22   A    
O9    Zn2   S    
C13   C15   A    
C14   C16   A    
C3    N6    S    
O11   Zn1   S    
O1    Zn1   S    
C33   O5    D    
C15   C17   A    
C10   O13   A    
C19   C21   A    
C6    H17   S    
C30   H4    S    
C1    C41   S    
C3    C5    S    
C8    H11   S    
N6    Zn2   S    
C5    C8    S    
N5    Zn1   S    
C6    C7    S    
C23   C38   S    
C11   C22   A    
C33   C38   S    
C23   C41   S    
C17   C25   S    
C38   C40   S    
O10   Zn2   S    
C40   C42   S    
C17   C19   A    
C18   C20   A    
C25   N2    A    
C27   N7    T    
C6    N6    S    
C39   C41   S    
C16   C18   A    
C23   C36   S    
C21   C24   A    
C19   C30   S    
C20   C31   S    
