data_mof_unit_51071.cif
_audit_creation_date              2013-03-05T16:11:11-0500
_audit_creation_method            fapswitch 2.2
_symmetry_space_group_name_H-M    P1
_symmetry_Int_Tables_number       1
_space_group_crystal_system       triclinic
_cell_length_a                    9.990511
_cell_length_b                    10.617685
_cell_length_c                    13.662779
_cell_angle_alpha                 93.029273
_cell_angle_beta                  82.026278
_cell_angle_gamma                 87.30469
_cell_volume                      1431.11010584

loop_
_atom_site_label
_atom_site_type_symbol
_atom_site_description
_atom_site_fract_x
_atom_site_fract_y
_atom_site_fract_z
_atom_type_partial_charge
O1    O     O_R   0.385380 0.683250 0.500010 -0.580140
O2    O     O_R   0.614620 0.316750 0.499990 -0.580104
O3    O     O_R   0.614710 0.683220 0.500000 -0.603376
O4    O     O_R   0.385290 0.316780 0.500000 -0.603508
C1    C     C_R   0.498678 0.739311 0.489244 0.942089
C2    C     C_R   0.501328 0.260684 0.510740 0.942399
O5    O     O_R   0.368830 0.499990 0.640350 -0.606244
O6    O     O_R   0.631170 0.500010 0.359650 -0.606304
O7    O     O_R   0.598160 0.499960 0.640350 -0.603338
O8    O     O_R   0.401840 0.500040 0.359650 -0.603283
C3    C     C_R   0.474672 0.502403 0.685738 0.906955
C4    C     C_R   0.525328 0.497601 0.314262 0.906756
Zn1   Zn    Zn3+2 0.346870 0.500020 0.500000 1.019389
Zn2   Zn    Zn3+2 0.653130 0.499980 0.500000 1.019431
C5    C     C_R   0.945639 0.444690 0.422279 0.021493
C6    C     C_R   0.054363 0.555308 0.577722 0.021363
C7    C     C_R   0.088779 0.441004 0.423437 0.037653
C8    C     C_R   0.911223 0.559005 0.576559 0.037719
C9    C     C_1   0.544907 0.484802 0.209871 -0.105368
C10   C     C_1   0.455090 0.515220 0.790128 -0.105258
C11   C     C_2   0.543741 0.460614 0.018600 -0.056202
C12   C     C_2   0.456255 0.539433 0.981399 -0.056214
C13   C     C_1   0.448099 0.527962 0.877952 -0.030912
C14   C     C_1   0.551896 0.472076 0.122046 -0.030860
C15   C     C_R   0.618275 0.929985 0.457057 0.191397
C16   C     C_R   0.381731 0.070012 0.542907 0.191061
C17   C     C_R   0.627423 0.052653 0.495931 0.126084
C18   C     C_R   0.372582 0.947339 0.504015 0.125918
C19   C     C_R   0.505919 0.126197 0.525233 -0.290226
C20   C     C_R   0.494095 0.873795 0.474729 -0.290575
N1    N     N_R   0.142790 0.500030 0.500020 -0.100512
N2    N     N_R   0.857210 0.499970 0.499980 -0.100440
C21   C     C_R   0.894612 0.392432 0.333535 0.138721
C22   C     C_R   0.894735 0.465260 0.250759 -0.118668
C23   C     C_R   0.871177 0.409359 0.160430 -0.154676
C24   C     C_R   0.844344 0.281291 0.152771 -0.119463
C25   C     C_R   0.842867 0.208902 0.235172 -0.147437
C26   C     C_R   0.870137 0.264149 0.324698 -0.109851
H1    H     H_    0.917686 0.563918 0.255507 0.154283
H2    H     H_    0.874816 0.465722 0.096766 0.127009
H3    H     H_    0.826526 0.237194 0.083085 0.155325
H4    H     H_    0.824728 0.109293 0.228913 0.184422
H5    H     H_    0.878983 0.206617 0.385750 0.203450
C27   C     C_R   0.105400 0.607573 0.666460 0.138709
C28   C     C_R   0.105212 0.534786 0.749264 -0.118624
C29   C     C_R   0.128827 0.590706 0.839572 -0.154569
C30   C     C_R   0.155797 0.718746 0.847179 -0.119410
C31   C     C_R   0.157357 0.791088 0.764745 -0.147654
C32   C     C_R   0.130022 0.735826 0.675242 -0.109724
H6    H     H_    0.082173 0.436147 0.744551 0.154165
H7    H     H_    0.125137 0.534379 0.903259 0.126992
H8    H     H_    0.173670 0.762856 0.916846 0.155304
H9    H     H_    0.175626 0.890678 0.770958 0.184026
H10   H     H_    0.121266 0.793325 0.614159 0.203392
C33   C     C_R   0.176664 0.364851 0.343275 0.136867
C34   C     C_R   0.215044 0.239049 0.356825 -0.080489
C35   C     C_R   0.288634 0.163180 0.279434 -0.170016
C36   C     C_R   0.315694 0.209366 0.185384 -0.136205
C37   C     C_R   0.270562 0.331921 0.169467 -0.131197
C38   C     C_R   0.203973 0.410443 0.248413 -0.116269
H11   H     H_    0.185929 0.198762 0.426501 0.217868
H12   H     H_    0.321698 0.067790 0.292239 0.165412
H13   H     H_    0.369831 0.150004 0.124527 0.126683
H14   H     H_    0.288060 0.365999 0.096006 0.132445
H15   H     H_    0.171476 0.505986 0.235956 0.141818
C39   C     C_R   0.823347 0.635191 0.656704 0.136861
C40   C     C_R   0.795995 0.589617 0.751567 -0.116345
C41   C     C_R   0.729412 0.668162 0.830500 -0.131198
C42   C     C_R   0.684328 0.790725 0.814567 -0.136240
C43   C     C_R   0.711436 0.836897 0.720515 -0.170078
C44   C     C_R   0.785025 0.761003 0.643138 -0.080362
H16   H     H_    0.828454 0.494068 0.764035 0.141829
H17   H     H_    0.711883 0.634093 0.903962 0.132447
H18   H     H_    0.630195 0.850106 0.875413 0.126688
H19   H     H_    0.678412 0.932291 0.707698 0.165382
H20   H     H_    0.814188 0.801280 0.573463 0.217892
C45   C     C_R   0.381391 0.647447 0.041340 0.157385
C46   C     C_R   0.242401 0.643344 0.074204 -0.223275
C47   C     C_R   0.172706 0.744309 0.132427 -0.133193
C48   C     C_R   0.241690 0.849455 0.158775 -0.032671
C49   C     C_R   0.380783 0.853214 0.127653 -0.131427
C50   C     C_R   0.450486 0.752733 0.068980 -0.139360
H21   H     H_    0.188108 0.561754 0.055853 0.117605
H22   H     H_    0.065370 0.740730 0.157444 0.158758
H23   H     H_    0.187206 0.927306 0.203816 0.161889
H24   H     H_    0.435190 0.933385 0.149178 0.140375
H25   H     H_    0.558288 0.756407 0.045867 0.130097
C51   C     C_R   0.618618 0.352612 0.958651 0.157381
C52   C     C_R   0.757607 0.356733 0.925793 -0.223287
C53   C     C_R   0.827312 0.255792 0.867547 -0.133324
C54   C     C_R   0.758338 0.150656 0.841164 -0.032721
C55   C     C_R   0.619245 0.146880 0.872280 -0.131315
C56   C     C_R   0.549533 0.247334 0.930980 -0.139225
H26   H     H_    0.811890 0.438324 0.944160 0.117617
H27   H     H_    0.934648 0.259386 0.842534 0.158732
H28   H     H_    0.812829 0.072827 0.796101 0.161921
H29   H     H_    0.564846 0.066719 0.850727 0.140321
H30   H     H_    0.441731 0.243650 0.954085 0.130099
N3    N     N_R   0.719833 0.875131 0.379570 0.238772
O9    O     O_R   0.826235 0.811549 0.399296 -0.360654
O10   O     O_R   0.693441 0.870598 0.288888 -0.442144
N4    N     N_R   0.280182 0.124934 0.620382 0.238487
O11   O     O_R   0.307073 0.130562 0.710944 -0.442020
O12   O     O_R   0.173392 0.187871 0.600622 -0.360307
N5    N     N_R   0.753704 0.092725 0.523789 0.200266
O13   O     O_R   0.752547 0.170562 0.600839 -0.381729
O14   O     O_R   0.866867 0.030083 0.489701 -0.329036
N6    N     N_R   0.246354 0.907248 0.476067 0.200336
O15   O     O_R   0.247618 0.829433 0.398991 -0.381816
O16   O     O_R   0.133125 0.969777 0.510158 -0.328897

loop_
_geom_bond_atom_site_label_1
_geom_bond_atom_site_label_2
_geom_bond_distance
_ccdc_geom_bond_type
C27   C32   1.397033 A    
C33   C34   1.401116 A    
C17   C19   1.409447 A    
C23   C24   1.399591 A    
C49   C50   1.396651 A    
C35   C36   1.395514 A    
C53   H27   1.082452 S    
C45   C46   1.402298 A    
N6    O15   1.301970 A    
C6    N1    1.370091 A    
O5    C3    1.298513 A    
N5    O14   1.299188 A    
C37   H14   1.079117 S    
C48   H23   1.081314 S    
O1    C1    1.297529 A    
C28   H6    1.083347 S    
C24   C25   1.395123 A    
C22   C23   1.395388 A    
C44   H20   1.073215 S    
C17   N5    1.443658 S    
C50   H25   1.082614 S    
C25   H4    1.082355 S    
C34   C35   1.395017 A    
C40   H16   1.079835 S    
C52   H26   1.080057 S    
N4    O11   1.301019 A    
C54   H28   1.081314 S    
C29   C30   1.399606 A    
C46   H21   1.080054 S    
C15   N3    1.439004 S    
C30   C31   1.395142 A    
C41   C42   1.394908 A    
C43   C44   1.395017 A    
C6    C27   1.471347 S    
C49   H24   1.080709 S    
C39   C40   1.403264 A    
C11   C51   1.481725 S    
C37   C38   1.398145 A    
C33   C38   1.403283 A    
C24   H3    1.079417 S    
O2    C2    1.297495 A    
C55   H29   1.080707 S    
C31   H9    1.082404 S    
C3    C10   1.410874 S    
C22   H1    1.083337 S    
C35   H12   1.081117 S    
O4    C2    1.308326 A    
C54   C55   1.398744 A    
C46   C47   1.397435 A    
C15   C20   1.398255 A    
C41   H17   1.079110 S    
C28   C29   1.395394 A    
C29   H7    1.079056 S    
C40   C41   1.398132 A    
O7    Zn2   1.920043 S    
C25   C26   1.395039 A    
C39   C44   1.401122 A    
C10   C13   1.192353 T    
O6    C4    1.298518 A    
C21   C22   1.403257 A    
C42   H18   1.081161 S    
N4    O12   1.299852 A    
O7    C3    1.300117 A    
O3    Zn2   1.965297 S    
O8    C4    1.300117 A    
C31   C32   1.395041 A    
N3    O10   1.300920 A    
C38   H15   1.079845 S    
C15   C17   1.392253 A    
C7    N1    1.377643 A    
O1    Zn1   2.000821 S    
C27   C28   1.403265 A    
C1    C20   1.451430 S    
C36   H13   1.081162 S    
C5    C7    1.431048 A    
C7    C33   1.482255 S    
C51   C56   1.403241 A    
O6    Zn2   1.960100 S    
C34   H11   1.073190 S    
Zn1   N1    2.038822 S    
C12   C45   1.481723 S    
Zn2   N2    2.038820 S    
C48   C49   1.398747 A    
O3    C1    1.308300 A    
O8    Zn1   1.920044 S    
C5    N2    1.370102 A    
C30   H8    1.079416 S    
C8    C39   1.482235 S    
N5    O13   1.301983 A    
C16   C18   1.392391 A    
C21   C26   1.397037 A    
N3    O9    1.299844 A    
C18   C20   1.409488 A    
C23   H2    1.079051 S    
C36   C37   1.394916 A    
C26   H5    1.070504 S    
C16   N4    1.439086 S    
C53   C54   1.396296 A    
C47   H22   1.082455 S    
C45   C50   1.403239 A    
C18   N6    1.443688 S    
C4    C9    1.410875 S    
C55   C56   1.396654 A    
N6    O16   1.299187 A    
C9    C14   1.192353 T    
C42   C43   1.395513 A    
O2    Zn2   2.000823 S    
C47   C48   1.396298 A    
O5    Zn1   1.960099 S    
C2    C19   1.451406 S    
C8    N2    1.377656 A    
C51   C52   1.402292 A    
C16   C19   1.398296 A    
C6    C8    1.431049 A    
C11   C14   1.426096 S    
C43   H19   1.081095 S    
C12   C13   1.426097 S    
C52   C53   1.397437 A    
C11   C12   1.349840 D    
C56   H30   1.082615 S    
C5    C21   1.471348 S    
C32   H10   1.070492 S    
O4    Zn1   1.965297 S    
