data_mof_unit_35112.cif
_audit_creation_date              2012-12-10T17:56:52-0500
_audit_creation_method            fapswitch 2.2
_symmetry_space_group_name_H-M    P1
_symmetry_Int_Tables_number       1
_space_group_crystal_system       triclinic
_cell_length_a                    19.413685
_cell_length_b                    18.153024
_cell_length_c                    26.526471
_cell_angle_alpha                 89.584195
_cell_angle_beta                  90.410275
_cell_angle_gamma                 89.757304
_cell_volume                      9347.80993656

loop_
_atom_site_label
_atom_site_type_symbol
_atom_type_description
_atom_site_fract_x
_atom_site_fract_y
_atom_site_fract_z
_atom_type_partial_charge
C1    C     C_R   0.861785 0.141485 0.247508 0.825321
C2    C     C_R   0.747461 0.810428 0.778628 0.012600
C3    C     C_R   0.503510 0.519281 0.052533 -0.161885
C4    C     C_R   0.987264 0.946836 0.474129 -0.118920
C5    C     C_R   0.997185 0.948421 0.525738 -0.127947
C6    C     C_R   0.495621 0.452468 0.975043 -0.106958
C7    C     C_R   0.515602 0.455282 0.024434 -0.116069
C8    C     C_2   0.980648 0.873071 0.450323 0.992382
C9    C     C_2   0.013851 0.875830 0.549916 0.992383
C10   C     C_2   0.476380 0.378676 0.955136 0.964372
C11   C     C_2   0.558587 0.392321 0.043634 0.944365
C12   C     C_3   0.992583 0.181992 0.402028 -0.277477
C13   C     C_R   0.751689 0.808279 0.215649 0.024089
C14   C     C_3   0.017750 0.260292 0.394126 -0.829638
C15   C     C_3   0.001577 0.183660 0.598017 -0.304487
C16   C     C_3   0.021490 0.256126 0.621556 -0.741387
C17   C     C_3   0.494382 0.685119 0.893956 -0.243761
C18   C     C_3   0.509760 0.761140 0.876782 -0.842438
C19   C     C_3   0.495997 0.678607 0.100525 -0.259513
C20   C     C_3   0.502313 0.736807 0.140734 -0.681427
C21   C     C_3   0.873748 0.266896 0.441042 -0.333957
C22   C     C_3   0.813778 0.310603 0.463793 -0.911836
C23   C     C_3   0.960589 0.309150 0.526677 -0.312439
C24   C     C_R   0.259264 0.818150 0.773252 0.005102
C25   C     C_3   0.905564 0.336938 0.562308 -0.848158
C26   C     C_3   0.411334 0.795798 0.957528 -0.287701
C27   C     C_3   0.445399 0.872306 0.944123 -0.888254
C28   C     C_3   0.506690 0.811138 0.041403 -0.278078
C29   C     C_3   0.446228 0.851650 0.067205 -0.851928
C30   C     C_3   0.247070 0.868362 0.173339 -0.307413
C31   C     C_3   0.293640 0.877029 0.127440 -0.915318
C32   C     C_3   0.745046 0.872755 0.820054 -0.300204
C33   C     C_3   0.693630 0.884049 0.863144 -0.908488
C34   C     C_3   0.751427 0.870461 0.173087 -0.283481
C35   C     C_R   0.739617 0.295801 0.712598 0.046541
C36   C     C_3   0.702404 0.884777 0.127911 -0.893367
C37   C     C_3   0.266617 0.888271 0.807010 -0.306488
C38   C     C_3   0.329528 0.911639 0.837027 -0.994219
C39   C     C_3   0.725091 0.339769 0.662895 -0.332416
C40   C     C_3   0.762200 0.320683 0.614783 -0.931339
C41   C     C_3   0.234923 0.387099 0.309401 -0.267507
C42   C     C_3   0.175099 0.415122 0.343611 -0.912275
C43   C     C_3   0.285349 0.332923 0.655531 -0.284434
C44   C     C_3   0.267030 0.303082 0.602599 -0.872754
C45   C     C_3   0.766326 0.381732 0.310164 -0.321372
C46   C     C_R   0.241151 0.318267 0.273002 0.003082
C47   C     C_3   0.828864 0.398273 0.343655 -0.943422
C48   C     C_2   0.862575 0.281747 0.695695 0.946739
C49   C     C_2   0.136855 0.272260 0.304939 0.985243
C50   C     C_2   0.164055 0.247904 0.670707 0.936846
C51   C     C_2   0.884339 0.288425 0.280942 0.974661
C52   C     C_2   0.361110 0.774937 0.192034 0.957928
C53   C     C_2   0.635004 0.776120 0.800040 0.988918
C54   C     C_2   0.651153 0.761420 0.180302 0.950425
C55   C     C_2   0.369928 0.774308 0.800699 0.974738
C56   C     C_3   0.753016 0.138867 0.842032 -0.353659
C57   C     C_R   0.270896 0.286890 0.704851 0.037876
C58   C     C_3   0.818527 0.117831 0.872776 -0.741215
C59   C     C_3   0.256155 0.134839 0.161453 -0.365254
C60   C     C_3   0.198190 0.096096 0.131851 -0.725400
C61   C     C_3   0.250419 0.147472 0.842406 -0.352517
C62   C     C_3   0.182803 0.131837 0.870839 -0.749582
C63   C     C_3   0.741882 0.137784 0.160749 -0.374017
C64   C     C_3   0.799690 0.098062 0.132208 -0.723143
C65   C     C_3   0.256324 0.639978 0.340742 -0.334092
C66   C     C_3   0.323682 0.627050 0.371916 -0.743473
C67   C     C_3   0.758578 0.636061 0.660187 -0.374797
C68   C     C_R   0.759684 0.315010 0.273699 0.028830
C69   C     C_3   0.706655 0.583749 0.635259 -0.711970
C70   C     C_3   0.733669 0.655541 0.347773 -0.340205
C71   C     C_3   0.743540 0.570771 0.346301 -0.737560
C72   C     C_3   0.257917 0.655031 0.652062 -0.349628
C73   C     C_3   0.327802 0.642700 0.624180 -0.741694
C74   C     C_3   0.142019 0.743634 0.333298 -0.361606
C75   C     C_3   0.162551 0.795931 0.376549 -0.733913
C76   C     C_3   0.862234 0.744716 0.667130 -0.355610
C77   C     C_3   0.846104 0.802313 0.625604 -0.710020
C78   C     C_3   0.841939 0.770502 0.344576 -0.293033
C79   C     C_R   0.801028 0.256896 0.721424 -0.027790
C80   C     C_3   0.903995 0.717317 0.345617 -0.756521
C81   C     C_3   0.127301 0.723695 0.681593 -0.360428
C82   C     C_3   0.070869 0.692337 0.715921 -0.780744
C83   C     C_3   0.637666 0.239014 0.831979 -0.385725
C84   C     C_3   0.654399 0.290599 0.876237 -0.684785
C85   C     C_3   0.366705 0.237531 0.172563 -0.387526
C86   C     C_3   0.361741 0.290836 0.127260 -0.697437
C87   C     C_3   0.381397 0.216217 0.814736 -0.358723
C88   C     C_3   0.439139 0.189300 0.779746 -0.802622
C89   C     C_3   0.622193 0.223123 0.185243 -0.355154
C90   C     C_R   0.191079 0.263485 0.271211 -0.021763
C91   C     C_3   0.566852 0.192854 0.220262 -0.806912
C92   C     C_R   0.212881 0.241382 0.710181 -0.020790
C93   C     C_R   0.139854 0.141262 0.750962 0.842272
C94   C     C_R   0.814936 0.266390 0.265847 -0.049507
C95   C     C_R   0.303200 0.758258 0.221350 -0.005123
C96   C     C_R   0.693527 0.761223 0.771892 -0.019433
C97   C     C_R   0.701841 0.753756 0.217590 0.003466
C98   C     C_R   0.311019 0.764683 0.770835 -0.012547
C99   C     C_R   0.805781 0.199459 0.757673 -0.203229
C100  C     C_R   0.193011 0.200425 0.240283 -0.200718
C101  C     C_R   0.200645 0.194614 0.752463 -0.204407
C102  C     C_R   0.807632 0.200009 0.239585 -0.190923
C103  C     C_R   0.306392 0.700166 0.256851 -0.214748
C104  C     C_R   0.138457 0.141567 0.247868 0.834617
C105  C     C_R   0.694720 0.698737 0.740843 -0.199414
C106  C     C_R   0.696259 0.699019 0.255499 -0.224276
C107  C     C_R   0.309009 0.702984 0.739435 -0.186449
C108  C     C_R   0.753448 0.195334 0.796590 0.140460
C109  C     C_R   0.247770 0.195096 0.203493 0.139543
C110  C     C_R   0.252655 0.193600 0.792385 0.127962
C111  C     C_R   0.748833 0.191676 0.206325 0.136314
C112  C     C_R   0.255466 0.697821 0.296287 0.140874
C113  C     C_R   0.750295 0.692809 0.704563 0.138673
C114  C     C_R   0.744337 0.701455 0.297916 0.148006
C115  C     C_R   0.861946 0.142099 0.752151 0.828024
C116  C     C_R   0.254996 0.700159 0.702083 0.126543
C117  C     C_R   0.197291 0.746709 0.291984 0.081329
C118  C     C_R   0.805597 0.745664 0.707974 0.062082
C119  C     C_R   0.796279 0.758038 0.297471 0.060874
C120  C     C_R   0.194366 0.743644 0.710446 0.089679
C121  C     C_R   0.694650 0.243830 0.792176 0.074797
C122  C     C_R   0.303978 0.246585 0.207521 0.081049
C123  C     C_R   0.314438 0.236150 0.785077 0.088870
C124  C     C_R   0.690720 0.239762 0.213443 0.084846
C125  C     C_R   0.194599 0.802207 0.252601 -0.145601
C126  C     C_R   0.362276 0.642382 0.747142 0.842936
C127  C     C_R   0.804578 0.803429 0.745474 -0.134097
C128  C     C_R   0.802516 0.807148 0.254895 -0.158231
C129  C     C_R   0.197600 0.805313 0.744783 -0.132145
C130  C     C_R   0.690318 0.297020 0.751666 -0.134953
C131  C     C_R   0.301246 0.307079 0.242906 -0.141829
C132  C     C_R   0.315588 0.292546 0.746711 -0.127423
C133  C     C_R   0.696446 0.302421 0.246548 -0.131494
C134  C     C_R   0.062094 0.000683 0.026861 -0.183796
C135  C     C_R   0.937904 0.000396 0.973147 -0.182918
C136  C     C_R   0.937694 0.000402 0.026074 -0.184644
C137  C     C_R   0.639264 0.641629 0.251403 0.848118
C138  C     C_R   0.062299 0.000732 0.973933 -0.186964
C139  C     C_R   0.562103 0.499887 0.526874 -0.186489
C140  C     C_R   0.437906 0.500790 0.473154 -0.183780
C141  C     C_R   0.437700 0.500766 0.526080 -0.190504
C142  C     C_R   0.562307 0.499903 0.473945 -0.187523
C143  C     C_R   0.000199 0.000428 0.946081 0.015093
C144  C     C_R   0.999797 0.000392 0.053924 0.013300
C145  C     C_R   0.500201 0.500265 0.446088 0.013102
C146  C     C_R   0.499801 0.500234 0.553931 0.016040
C147  C     C_R   0.138928 0.859184 0.250803 0.822428
C148  C     C_R   0.638630 0.641390 0.747780 0.839940
C149  C     C_R   0.860751 0.859650 0.748814 0.814489
C150  C     C_R   0.860041 0.860744 0.251584 0.807731
C151  C     C_R   0.139632 0.859735 0.748906 0.813909
C152  C     C_R   0.637941 0.358057 0.750545 0.809167
C153  C     C_R   0.359952 0.360451 0.248159 0.798011
C154  C     C_R   0.363174 0.357087 0.749337 0.800825
C155  C     C_R   0.639361 0.358954 0.249484 0.807867
C156  C     C_R   0.999843 0.000089 0.110423 0.762492
C157  C     C_R   0.000155 0.000121 0.889579 0.761389
C158  C     C_R   0.499843 0.500044 0.610425 0.752564
C159  C     C_R   0.361666 0.641837 0.251646 0.829120
C160  C     C_R   0.500155 0.500070 0.389582 0.761556
C161  C     C_R   0.994086 0.002437 0.390019 0.817125
C162  C     C_R   0.998535 0.003414 0.609479 0.827829
C163  C     C_R   0.495668 0.503269 0.890150 0.824548
C164  C     C_R   0.501070 0.503948 0.109254 0.815670
C165  C     C_R   0.951911 0.152818 0.446140 -0.021779
C166  C     C_R   0.978576 0.165824 0.545547 -0.027891
C167  C     C_R   0.473319 0.666069 0.946074 -0.005368
C168  C     C_R   0.494319 0.668829 0.047187 -0.086914
C169  C     C_R   0.916454 0.208873 0.471730 0.160287
C170  C     C_R   0.248277 0.807079 0.216035 0.020431
C171  C     C_R   0.950822 0.226260 0.515718 0.201685
C172  C     C_R   0.459241 0.731129 0.974152 0.156680
C173  C     C_R   0.487337 0.735042 0.020416 0.167625
C174  C     C_R   0.980028 0.087830 0.525629 0.014708
C175  C     C_R   0.972404 0.083840 0.471467 0.018642
C176  C     C_R   0.492977 0.592962 0.024969 0.025678
C177  C     C_R   0.486826 0.591912 0.970691 0.027102
C178  C     C_R   0.983950 0.012191 0.445826 -0.155353
C179  C     C_R   0.993446 0.015354 0.552980 -0.154262
C180  C     C_R   0.490772 0.517210 0.945511 -0.148196
H1    H     H_    0.111042 0.000807 0.046686 0.154009
H2    H     H_    0.086574 0.806918 0.577141 0.324427
H3    H     H_    0.452399 0.839624 0.800531 0.309003
H4    H     H_    0.828896 0.058073 0.865946 0.290751
H5    H     H_    0.863416 0.154517 0.863810 0.250904
H6    H     H_    0.809499 0.118836 0.914788 0.196610
H7    H     H_    0.723784 0.162745 0.873513 0.209208
H8    H     H_    0.723926 0.088384 0.830349 0.186855
H9    H     H_    0.191980 0.038561 0.146327 0.287245
H10   H     H_    0.149392 0.128661 0.131941 0.263799
H11   H     H_    0.213262 0.086889 0.091649 0.185860
H12   H     H_    0.278800 0.163709 0.128848 0.208152
H13   H     H_    0.400257 0.306102 0.940907 0.328058
H14   H     H_    0.294266 0.092726 0.174780 0.187257
H15   H     H_    0.139173 0.166808 0.856982 0.246300
H16   H     H_    0.171061 0.071673 0.868362 0.283825
H17   H     H_    0.189005 0.141541 0.912262 0.205730
H18   H     H_    0.280286 0.094823 0.836920 0.191848
H19   H     H_    0.278851 0.180090 0.871538 0.182638
H20   H     H_    0.848549 0.129758 0.132872 0.264357
H21   H     H_    0.805598 0.040395 0.146456 0.285102
H22   H     H_    0.784279 0.090157 0.091980 0.190619
H23   H     H_    0.701967 0.095911 0.169946 0.198170
H24   H     H_    0.563373 0.293544 0.078738 0.323378
H25   H     H_    0.723021 0.173699 0.129462 0.194035
H26   H     H_    0.317113 0.636809 0.413499 0.200649
H27   H     H_    0.367584 0.661304 0.358292 0.250652
H28   H     H_    0.335192 0.566666 0.369988 0.283536
H29   H     H_    0.221935 0.656553 0.372586 0.199329
H30   H     H_    0.234169 0.585964 0.326205 0.187134
H31   H     H_    0.706098 0.529363 0.655535 0.283708
H32   H     H_    0.654904 0.610397 0.630740 0.267899
H33   H     H_    0.724819 0.568635 0.596517 0.185257
H34   H     H_    0.769232 0.670796 0.626514 0.213076
H35   H     H_    0.985980 0.307217 0.380035 0.237420
H36   H     H_    0.804619 0.601237 0.669263 0.192752
H37   H     H_    0.693420 0.541931 0.353290 0.286986
H38   H     H_    0.768462 0.552055 0.310779 0.263345
H39   H     H_    0.774633 0.551882 0.379359 0.190426
H40   H     H_    0.771499 0.669668 0.378185 0.194501
H41   H     H_    0.681785 0.671104 0.364057 0.180834
H42   H     H_    0.369161 0.683793 0.637124 0.244523
H43   H     H_    0.343232 0.583753 0.628968 0.287136
H44   H     H_    0.320997 0.646700 0.581165 0.203398
H45   H     H_    0.229072 0.601443 0.656583 0.197461
H46   H     H_    0.060348 0.276706 0.420036 0.267015
H47   H     H_    0.230480 0.688875 0.623134 0.188057
H48   H     H_    0.148560 0.771462 0.413564 0.259152
H49   H     H_    0.219326 0.805239 0.377763 0.239017
H50   H     H_    0.137328 0.850801 0.371645 0.283521
H51   H     H_    0.088291 0.750437 0.320372 0.227598
H52   H     H_    0.130995 0.686971 0.347010 0.141382
H53   H     H_    0.792373 0.824427 0.628412 0.222681
H54   H     H_    0.882194 0.849677 0.628161 0.288206
H55   H     H_    0.850611 0.776526 0.587707 0.261132
H56   H     H_    0.915050 0.747838 0.682590 0.229520
H57   H     H_    0.033974 0.249849 0.356157 0.309583
H58   H     H_    0.871355 0.691109 0.648750 0.157350
H59   H     H_    0.886820 0.659414 0.350541 0.235131
H60   H     H_    0.933686 0.721019 0.309914 0.254676
H61   H     H_    0.939470 0.731118 0.377152 0.249061
H62   H     H_    0.858533 0.828106 0.348832 0.240272
H63   H     H_    0.813206 0.770807 0.380406 0.174108
H64   H     H_    0.086766 0.636974 0.730993 0.242812
H65   H     H_    0.058958 0.728904 0.748418 0.257689
H66   H     H_    0.023164 0.684509 0.692678 0.227365
H67   H     H_    0.109408 0.771015 0.658238 0.232852
H68   H     H_    0.043795 0.153715 0.404458 0.256426
H69   H     H_    0.132820 0.679995 0.652949 0.172332
H70   H     H_    0.710634 0.290268 0.885243 0.227199
H71   H     H_    0.639491 0.348501 0.867154 0.276556
H72   H     H_    0.627061 0.271719 0.910525 0.278296
H73   H     H_    0.584930 0.246493 0.817097 0.237955
H74   H     H_    0.628499 0.181827 0.845359 0.152594
H75   H     H_    0.317954 0.275511 0.101961 0.220071
H76   H     H_    0.352580 0.348805 0.139300 0.256476
H77   H     H_    0.410225 0.288550 0.105227 0.282907
H78   H     H_    0.415946 0.240693 0.193292 0.229141
H79   H     H_    0.958062 0.170772 0.369176 0.300417
H80   H     H_    0.375587 0.181279 0.158320 0.157862
H81   H     H_    0.421836 0.139605 0.758718 0.247336
H82   H     H_    0.454986 0.232330 0.752081 0.258988
H83   H     H_    0.484996 0.172935 0.803069 0.224324
H84   H     H_    0.398079 0.262351 0.839353 0.235648
H85   H     H_    0.376686 0.169584 0.841742 0.173018
H86   H     H_    0.585270 0.140320 0.237656 0.244673
H87   H     H_    0.553042 0.231858 0.250572 0.261401
H88   H     H_    0.519928 0.180486 0.197547 0.226837
H89   H     H_    0.605051 0.270350 0.161777 0.237645
H90   H     H_    0.064571 0.281060 0.600782 0.256268
H91   H     H_    0.624012 0.181618 0.155402 0.166241
H92   H     H_    0.982385 0.297228 0.628178 0.268584
H93   H     H_    0.888958 0.000259 0.953331 0.151449
H94   H     H_    0.034252 0.242408 0.661394 0.292908
H95   H     H_    0.956888 0.167144 0.620783 0.308237
H96   H     H_    0.050939 0.153575 0.601158 0.266333
H97   H     H_    0.466561 0.796769 0.874341 0.284901
H98   H     H_    0.552660 0.786061 0.898589 0.280994
H99   H     H_    0.518589 0.753490 0.836573 0.311923
H100  H     H_    0.546875 0.660973 0.889736 0.274519
H101  H     H_    0.451637 0.667422 0.869208 0.298688
H102  H     H_    0.542290 0.716543 0.163159 0.266954
H103  H     H_    0.511920 0.794585 0.134344 0.262367
H104  H     H_    0.888656 0.000316 0.045275 0.153524
H105  H     H_    0.471000 0.727123 0.172825 0.285423
H106  H     H_    0.443601 0.656154 0.109290 0.282706
H107  H     H_    0.549097 0.653160 0.102554 0.246152
H108  H     H_    0.789866 0.282366 0.496819 0.286318
H109  H     H_    0.831559 0.368787 0.471352 0.239164
H110  H     H_    0.774149 0.322744 0.433891 0.247156
H111  H     H_    0.906927 0.313305 0.431604 0.219952
H112  H     H_    0.853802 0.239503 0.406448 0.241264
H113  H     H_    0.860796 0.366197 0.545102 0.245195
H114  H     H_    0.883713 0.286577 0.580512 0.321653
H115  H     H_    0.111335 0.000939 0.954734 0.151843
H116  H     H_    0.926691 0.378633 0.589543 0.234939
H117  H     H_    0.012994 0.321717 0.539516 0.188345
H118  H     H_    0.960711 0.346019 0.493385 0.186311
H119  H     H_    0.430455 0.918060 0.968819 0.246712
H120  H     H_    0.502260 0.870805 0.941161 0.244949
H121  H     H_    0.429458 0.893412 0.907023 0.235672
H122  H     H_    0.376677 0.777737 0.927483 0.244032
H123  H     H_    0.374430 0.805383 0.988427 0.190279
H124  H     H_    0.416747 0.890215 0.043148 0.241458
H125  H     H_    0.408247 0.810869 0.080480 0.316558
H126  H     H_    0.611055 0.499541 0.546705 0.155400
H127  H     H_    0.465048 0.886636 0.098590 0.229466
H128  H     H_    0.553202 0.806386 0.064981 0.167784
H129  H     H_    0.530443 0.847200 0.013513 0.192349
H130  H     H_    0.346780 0.892233 0.138485 0.276522
H131  H     H_    0.290337 0.828431 0.102517 0.296470
H132  H     H_    0.274733 0.924794 0.104653 0.228445
H133  H     H_    0.196393 0.863009 0.153952 0.234802
H134  H     H_    0.254483 0.922184 0.192615 0.243767
H135  H     H_    0.642552 0.902476 0.849594 0.258555
H136  H     H_    0.691591 0.836152 0.889104 0.299400
H137  H     H_    0.388956 0.501163 0.453340 0.151448
H138  H     H_    0.711930 0.930759 0.886464 0.226507
H139  H     H_    0.793148 0.865844 0.842533 0.237405
H140  H     H_    0.741915 0.926519 0.799578 0.240274
H141  H     H_    0.700805 0.838217 0.101390 0.275073
H142  H     H_    0.650599 0.904483 0.139333 0.294093
H143  H     H_    0.723132 0.931901 0.105779 0.219770
H144  H     H_    0.745457 0.923575 0.193442 0.239026
H145  H     H_    0.801336 0.864510 0.153200 0.231545
H146  H     H_    0.338157 0.872064 0.867997 0.297074
H147  H     H_    0.374056 0.921693 0.812317 0.272153
H148  H     H_    0.388664 0.501118 0.545277 0.152036
H149  H     H_    0.318634 0.964902 0.855737 0.245533
H150  H     H_    0.259135 0.936758 0.781728 0.250614
H151  H     H_    0.226941 0.883767 0.837043 0.245624
H152  H     H_    0.809839 0.353950 0.618462 0.278020
H153  H     H_    0.770041 0.259350 0.611067 0.296041
H154  H     H_    0.733794 0.342755 0.580546 0.245923
H155  H     H_    0.669087 0.332759 0.652882 0.221251
H156  H     H_    0.738600 0.399466 0.669566 0.238467
H157  H     H_    0.130766 0.438048 0.320604 0.260644
H158  H     H_    0.160751 0.375578 0.374752 0.284566
H159  H     H_    0.611345 0.499575 0.454746 0.152437
H160  H     H_    0.194311 0.464086 0.364363 0.223593
H161  H     H_    0.277111 0.378844 0.338216 0.236240
H162  H     H_    0.240800 0.436740 0.284069 0.232319
H163  H     H_    0.276655 0.242358 0.600649 0.277797
H164  H     H_    0.213254 0.318388 0.591260 0.270928
H165  H     H_    0.299452 0.330876 0.573375 0.233782
H166  H     H_    0.260856 0.388759 0.659182 0.242244
H167  H     H_    0.342254 0.338474 0.652320 0.208540
H168  H     H_    0.842411 0.349917 0.366743 0.295579
H169  H     H_    0.872372 0.421244 0.321125 0.279568
H170  H     H_    0.028163 0.778938 0.429913 0.326514
H171  H     H_    0.815998 0.440830 0.372218 0.234663
H172  H     H_    0.761217 0.432044 0.286340 0.244294
H173  H     H_    0.724261 0.376333 0.338478 0.233780
H174  H     H_    0.934931 0.360746 0.686634 0.326405
H175  H     H_    0.057712 0.342754 0.316183 0.305931
H176  H     H_    0.152141 0.208108 0.599930 0.317403
H177  H     H_    0.961974 0.359377 0.274225 0.347615
H178  H     H_    0.439171 0.849025 0.184278 0.332093
H179  H     H_    0.560798 0.854460 0.807899 0.309147
H180  H     H_    0.628593 0.740504 0.107089 0.316931
O1    O     O_3   0.000000 1.000000 0.249960 -0.488552
O2    O     O_R   0.585480 0.646190 0.219690 -0.667843
O3    O     O_R   0.585480 0.646190 0.780310 -0.626746
O4    O     O_R   0.414520 0.646190 0.219690 -0.663698
O5    O     O_R   0.085470 0.853840 0.280350 -0.654181
O6    O     O_R   0.914530 0.853840 0.719650 -0.655345
O7    O     O_R   0.914530 0.853840 0.280350 -0.647379
O8    O     O_R   0.085470 0.853840 0.719650 -0.635933
O9    O     O_R   0.585470 0.353840 0.780350 -0.655804
O10   O     O_R   0.414530 0.353840 0.219650 -0.642731
O11   O     O_R   0.414530 0.353840 0.780350 -0.646755
O12   O     O_3   0.000000 1.000000 0.750040 -0.487579
O13   O     O_R   0.585470 0.353840 0.219650 -0.637643
O14   O     O_R   0.853820 0.914550 0.219610 -0.680560
O15   O     O_R   0.146180 0.914550 0.780390 -0.674979
O16   O     O_R   0.146180 0.914550 0.219610 -0.678809
O17   O     O_R   0.853820 0.914550 0.780390 -0.676327
O18   O     O_R   0.353820 0.414550 0.719610 -0.659500
O19   O     O_R   0.646180 0.414550 0.280390 -0.676994
O20   O     O_R   0.646180 0.414550 0.719610 -0.666852
O21   O     O_R   0.353820 0.414550 0.280390 -0.674325
O22   O     O_R   0.146180 0.085440 0.219600 -0.634973
O23   O     O_3   0.500000 0.500000 0.749960 -0.492370
O24   O     O_R   0.853820 0.085440 0.780400 -0.633861
O25   O     O_R   0.853820 0.085440 0.219600 -0.637995
O26   O     O_R   0.146180 0.085440 0.780400 -0.629238
O27   O     O_R   0.646180 0.585440 0.719600 -0.633215
O28   O     O_R   0.353820 0.585440 0.280400 -0.633144
O29   O     O_R   0.353820 0.585440 0.719600 -0.630992
O30   O     O_R   0.646180 0.585440 0.280400 -0.634768
O31   O     O_R   0.939280 0.999970 0.134160 -0.663519
O32   O     O_R   0.060720 0.999970 0.865840 -0.666284
O33   O     O_R   0.060720 0.999970 0.134160 -0.665268
O34   O     O_3   0.500000 0.500000 0.250040 -0.482863
O35   O     O_R   0.939280 0.999970 0.865840 -0.670472
O36   O     O_R   0.439280 0.499970 0.634160 -0.673748
O37   O     O_R   0.560720 0.499970 0.365840 -0.665323
O38   O     O_R   0.560720 0.499970 0.634160 -0.663436
O39   O     O_R   0.439280 0.499970 0.365840 -0.668864
O40   O     O_R   0.000000 0.060760 0.365770 -0.696607
O41   O     O_R   0.000000 0.060760 0.634230 -0.688272
O42   O     O_R   0.500000 0.560760 0.865770 -0.705786
O43   O     O_R   0.500000 0.560760 0.134230 -0.693175
O44   O     O_R   0.000000 0.939310 0.365780 -0.621316
O45   O     O_R   0.914520 0.146190 0.280310 -0.628454
O46   O     O_R   0.000000 0.939310 0.634220 -0.622081
O47   O     O_R   0.500000 0.439310 0.865780 -0.607015
O48   O     O_R   0.500000 0.439310 0.134220 -0.587093
O49   O     O_2   0.924051 0.850984 0.437013 -0.652660
O50   O     O_R   0.039003 0.828534 0.445311 -0.811654
O51   O     O_2   0.968583 0.829818 0.555305 -0.656870
O52   O     O_R   0.081610 0.859526 0.564380 -0.778311
O53   O     O_2   0.520846 0.336558 0.940053 -0.633151
O54   O     O_R   0.407202 0.357266 0.955180 -0.805544
O55   O     O_2   0.618908 0.387916 0.030406 -0.617108
O56   O     O_R   0.085480 0.146190 0.719690 -0.641091
O57   O     O_R   0.529008 0.334623 0.071233 -0.795442
O58   O     O_2   0.882335 0.245686 0.660425 -0.693353
O59   O     O_R   0.895101 0.347988 0.709654 -0.807674
O60   O     O_2   0.145239 0.248745 0.348286 -0.669227
O61   O     O_R   0.079453 0.313369 0.288379 -0.808875
O62   O     O_2   0.137351 0.308742 0.663788 -0.675411
O63   O     O_R   0.160823 0.190673 0.635647 -0.817235
O64   O     O_2   0.907193 0.264719 0.321433 -0.692636
O65   O     O_R   0.921744 0.340675 0.252565 -0.779425
O66   O     O_2   0.363512 0.749099 0.149651 -0.680078
O67   O     O_R   0.085480 0.146190 0.280310 -0.625885
O68   O     O_R   0.408655 0.826216 0.210663 -0.812972
O69   O     O_2   0.633498 0.748493 0.841865 -0.671350
O70   O     O_R   0.586788 0.827027 0.781118 -0.801369
O71   O     O_2   0.607356 0.809157 0.186718 -0.675860
O72   O     O_R   0.658200 0.721242 0.135625 -0.824437
O73   O     O_2   0.367813 0.752127 0.844074 -0.705567
O74   O     O_R   0.428686 0.802907 0.778399 -0.786389
O75   O     O_R   0.914520 0.146190 0.719690 -0.624179
O76   O     O_R   0.414520 0.646190 0.780310 -0.634335
Zn1   Zn    Zn3+2 0.000000 0.913250 0.293350 0.968445
Zn2   Zn    Zn3+2 0.586770 0.499990 0.293420 0.926843
Zn3   Zn    Zn3+2 0.586770 0.499990 0.706580 0.922887
Zn4   Zn    Zn3+2 0.413230 0.499990 0.293420 0.922091
Zn5   Zn    Zn3+2 0.000000 0.086780 0.293330 0.978842
Zn6   Zn    Zn3+2 0.000000 0.086780 0.706670 0.973463
Zn7   Zn    Zn3+2 0.500000 0.586780 0.793330 0.978118
Zn8   Zn    Zn3+2 0.500000 0.586780 0.206670 0.950534
Zn9   Zn    Zn3+2 0.000000 0.913250 0.706650 0.976565
Zn10  Zn    Zn3+2 0.500000 0.413250 0.793350 0.975836
Zn11  Zn    Zn3+2 0.500000 0.413250 0.206650 0.982239
Zn12  Zn    Zn3+2 0.913230 0.999990 0.206580 0.917764
Zn13  Zn    Zn3+2 0.086770 0.999990 0.793420 0.933409
Zn14  Zn    Zn3+2 0.086770 0.999990 0.206580 0.922382
Zn15  Zn    Zn3+2 0.913230 0.999990 0.793420 0.917291
Zn16  Zn    Zn3+2 0.413230 0.499990 0.706580 0.931958

loop_
_geom_bond_atom_site_label_1
_geom_bond_atom_site_label_2
_ccdc_geom_bond_type
C93   O56   A    
O45   Zn5   S    
C141  H148  S    
C58   H6    S    
C28   H128  S    
C81   H67   S    
C19   C20   S    
O24   Zn15  S    
O56   Zn6   S    
C96   C105  A    
C67   H36   S    
C163  O47   A    
C124  C133  A    
H176  O63   S    
C24   C98   A    
C79   C99   A    
O19   Zn2   S    
C138  C143  A    
C157  O35   A    
C139  C142  A    
C28   C173  S    
C158  O36   A    
O3    Zn7   S    
C100  C104  S    
C150  O7    A    
C29   H127  S    
O1    Zn5   S    
C75   H49   S    
C5    C179  A    
O13   Zn11  S    
O11   Zn10  S    
O27   Zn3   S    
C24   C129  A    
C163  O42   A    
C28   H129  S    
C15   C166  S    
H177  O65   S    
C69   H31   S    
C161  O44   A    
C62   H16   S    
C108  C121  A    
C164  O43   A    
C119  C128  A    
C26   C172  S    
C100  C109  A    
C21   C22   S    
C151  O8    A    
O1    Zn12  S    
C102  C111  A    
C91   H87   S    
C45   C47   S    
C31   H130  S    
C165  C169  A    
C166  C174  A    
C26   H122  S    
C27   H119  S    
C140  C141  A    
O20   Zn3   S    
C93   C101  S    
C139  H126  S    
C73   H43   S    
C72   C73   S    
C101  C110  A    
C76   C118  S    
C103  C112  A    
C37   H150  S    
C38   H146  S    
C86   H77   S    
C37   C38   S    
C140  H137  S    
C110  C123  A    
O22   Zn14  S    
C42   H158  S    
C131  C153  S    
C45   C68   S    
C36   H143  S    
C15   H95   S    
C41   H162  S    
C142  H159  S    
O12   Zn13  S    
C128  C150  S    
C72   H45   S    
C64   H20   S    
C130  C152  S    
C30   H133  S    
C50   O63   S    
C80   H59   S    
C72   C116  S    
C25   H113  S    
C111  C124  A    
C126  O29   A    
O18   Zn16  S    
C33   H138  S    
C140  C145  A    
C14   H57   S    
C14   H46   S    
C6    C7    A    
O48   Zn11  S    
C8    O50   S    
O6    Zn9   S    
C78   H63   S    
O41   Zn6   S    
C33   H136  S    
C2    C96   A    
O2    Zn8   S    
O32   Zn13  S    
O23   Zn16  S    
O28   Zn4   S    
C66   H27   S    
C45   H172  S    
C51   O64   D    
C30   C31   S    
C55   C98   S    
C59   C109  S    
C53   O70   S    
H2    O52   S    
C136  H104  S    
C162  O41   A    
C68   C94   A    
C17   H100  S    
C18   H99   S    
C3    C176  A    
C23   C171  S    
C94   C102  A    
C60   H10   S    
C150  O14   A    
O15   Zn13  S    
C43   H167  S    
C39   H155  S    
C54   O71   D    
C59   C60   S    
C49   O61   S    
C57   C92   A    
C123  C132  A    
C55   O73   D    
O7    Zn1   S    
C121  C130  A    
C137  O30   A    
C61   H19   S    
C88   H82   S    
C153  O10   A    
C99   C108  A    
C10   O53   D    
C71   H38   S    
C63   H23   S    
C105  C113  A    
C68   C133  A    
C40   H154  S    
C86   H76   S    
O25   Zn12  S    
C70   H41   S    
C80   H61   S    
C2    C32   S    
O37   Zn2   S    
C174  C175  A    
C56   C108  S    
O8    Zn9   S    
O12   Zn15  S    
C72   H47   S    
C132  C154  S    
C20   H103  S    
C89   C91   S    
C114  C119  A    
C2    C127  A    
C135  C143  A    
C45   H173  S    
C84   H71   S    
C63   C111  S    
C169  C171  A    
C160  O37   A    
O14   Zn12  S    
C61   C110  S    
C95   C103  A    
C24   C37   S    
C151  O15   A    
H3    O74   S    
O67   Zn5   S    
C83   H74   S    
C120  C129  A    
O42   Zn7   S    
C16   H94   S    
C12   C165  S    
C48   O59   S    
C106  C137  S    
C31   H131  S    
C44   H164  S    
C105  C148  S    
O16   Zn14  S    
C116  C120  A    
C135  H93   S    
C144  C156  S    
C65   C112  S    
C5    C9    S    
C18   H97   S    
C83   C84   S    
C56   H7    S    
H170  O50   S    
C17   C18   S    
C11   O55   D    
C76   H56   S    
C21   H112  S    
O36   Zn16  S    
C35   C130  A    
C65   H30   S    
C159  O28   A    
C23   H118  S    
C77   H55   S    
C1    O25   A    
C36   H142  S    
C118  C127  A    
C122  C131  A    
C41   H161  S    
C168  C176  A    
C6    C180  A    
O4    Zn8   S    
C9    O52   S    
C4    C178  A    
C138  H115  S    
C16   H90   S    
C126  O76   A    
C146  C158  S    
C89   C124  S    
O39   Zn4   S    
C33   H135  S    
C127  C149  S    
C87   C123  S    
C21   C169  S    
C35   C79   A    
C77   H54   S    
C56   C58   S    
C34   C36   S    
C20   H105  S    
C61   C62   S    
C95   C170  A    
C107  C116  A    
C43   C57   S    
C29   H124  S    
C134  C144  A    
C63   C64   S    
C39   C40   S    
C4    C5    A    
C34   H144  S    
C67   H34   S    
C117  C125  A    
H175  O61   S    
C64   H21   S    
C139  C146  A    
C41   C42   S    
C57   C132  A    
C49   C90   S    
C135  C136  A    
H180  O72   S    
O75   Zn6   S    
O9    Zn10  S    
C34   H145  S    
C26   C27   S    
C26   H123  S    
C48   C79   S    
C28   C29   S    
C129  C151  S    
C3    C7    A    
C161  O40   A    
C99   C115  S    
C112  C117  A    
C93   O26   A    
C71   H39   S    
C52   C95   S    
C76   H58   S    
C22   H109  S    
C38   H147  S    
C30   C170  S    
C32   H139  S    
O23   Zn7   S    
C54   C97   S    
C70   C71   S    
C12   H79   S    
O34   Zn4   S    
C82   H65   S    
C4    C8    S    
C17   H101  S    
C89   H91   S    
C53   C96   S    
C142  C145  A    
C59   H12   S    
C20   H102  S    
C62   H15   S    
O30   Zn2   S    
C30   H134  S    
C16   H92   S    
O35   Zn15  S    
C81   C82   S    
C175  C178  A    
O40   Zn5   S    
H178  O68   S    
O1    Zn14  S    
O23   Zn10  S    
C84   H70   S    
C104  O22   A    
C62   H17   S    
C74   H52   S    
C125  C147  S    
C47   H171  S    
C154  O11   A    
C85   C86   S    
C19   H106  S    
O10   Zn11  S    
C115  O75   A    
C156  O33   A    
C38   H149  S    
C75   H50   S    
C35   C39   S    
C134  C138  A    
O76   Zn7   S    
C66   H28   S    
C148  O3    A    
C52   O68   S    
C69   H33   S    
C85   C122  S    
C13   C97   A    
C125  C170  A    
C92   C101  A    
C87   H85   S    
C97   C106  A    
C167  C177  A    
C106  C114  A    
C48   O58   D    
C19   C168  S    
C91   H88   S    
C54   O72   S    
C155  O19   A    
O33   Zn14  S    
C49   O60   D    
C153  O21   A    
C58   H4    S    
C27   H120  S    
C61   H18   S    
C6    C10   S    
C167  C172  A    
C46   C90   A    
O43   Zn8   S    
C156  O31   A    
C10   O54   S    
C71   H37   S    
C32   C33   S    
C78   C119  S    
C37   H151  S    
C13   C34   S    
C136  C144  A    
C12   H68   S    
C27   H121  S    
C42   H157  S    
O29   Zn16  S    
C78   C80   S    
C162  O46   A    
C15   H96   S    
O34   Zn2   S    
C98   C107  A    
C87   C88   S    
C63   H25   S    
O1    Zn1   S    
C161  C178  S    
C1    C102  S    
C40   H152  S    
O12   Zn9   S    
C25   H114  S    
C84   H72   S    
O34   Zn11  S    
O23   Zn3   S    
C43   C44   S    
O26   Zn13  S    
H174  O59   S    
C47   H169  S    
C70   C114  S    
C7    C11   S    
C8    O49   D    
C81   C120  S    
H24   O57   S    
C78   H62   S    
C73   H42   S    
C83   H73   S    
C104  O67   A    
C89   H89   S    
C75   H48   S    
C149  O17   A    
C66   H26   S    
C55   O74   S    
C109  C122  A    
C15   C16   S    
C164  O48   A    
C154  O18   A    
C18   H98   S    
C13   C128  A    
O47   Zn10  S    
C56   H8    S    
C60   H9    S    
C147  O16   A    
C41   C46   S    
C21   H111  S    
C85   H78   S    
C91   H86   S    
C159  O4    A    
C65   H29   S    
C23   H117  S    
C39   H156  S    
C149  O6    A    
C166  C171  A    
O21   Zn4   S    
C90   C100  A    
C88   H81   S    
C143  C157  S    
C59   H14   S    
C168  C173  A    
O31   Zn12  S    
C74   C75   S    
C148  O27   A    
C53   O69   D    
C152  O20   A    
C82   H66   S    
C76   C77   S    
C9    O51   D    
C17   C167  S    
C46   C131  A    
C69   H32   S    
C145  C160  S    
C40   H153  S    
O44   Zn1   S    
C86   H75   S    
O12   Zn6   S    
H179  O70   S    
C70   H40   S    
C44   H165  S    
H13   O54   S    
C67   C69   S    
O34   Zn8   S    
C47   H168  S    
C158  O38   A    
C51   O65   S    
C177  C180  A    
C19   H107  S    
C77   H53   S    
C82   H64   S    
C152  O9    A    
C29   H125  S    
C83   C121  S    
C162  C179  S    
C22   H108  S    
C3    C164  S    
C50   C92   S    
C176  C177  A    
C12   C14   S    
C155  O13   A    
C25   H116  S    
C134  H1    S    
C52   O66   D    
C11   O57   S    
C157  O32   A    
C172  C173  A    
O5    Zn1   S    
C74   C117  S    
C64   H22   S    
C73   H44   S    
C137  O2    A    
C133  C155  S    
C107  C126  S    
C81   H69   S    
C160  O39   A    
C50   O62   D    
C1    O45   A    
C31   H132  S    
C165  C175  A    
C44   H163  S    
C74   H51   S    
C80   H60   S    
C147  O5    A    
C67   C113  S    
O46   Zn9   S    
C103  C159  S    
C60   H11   S    
C174  C179  A    
C14   H35   S    
O38   Zn3   S    
C23   C25   S    
C85   H80   S    
C22   H110  S    
C43   H166  S    
C51   C94   S    
C113  C118  A    
C58   H5    S    
C42   H160  S    
C32   H140  S    
C65   C66   S    
C163  C180  S    
C141  C146  A    
C36   H141  S    
C87   H84   S    
O17   Zn15  S    
C115  O24   A    
C88   H83   S    
