data_mof_unit_27234.cif
_audit_creation_date              2013-03-05T16:41:04-0500
_audit_creation_method            fapswitch 2.2
_symmetry_space_group_name_H-M    P1
_symmetry_Int_Tables_number       1
_space_group_crystal_system       triclinic
_cell_length_a                    8.576035
_cell_length_b                    10.758151
_cell_length_c                    9.986845
_cell_angle_alpha                 92.057733
_cell_angle_beta                  98.186792
_cell_angle_gamma                 92.610529
_cell_volume                      910.234887786

loop_
_atom_site_label
_atom_site_type_symbol
_atom_site_description
_atom_site_fract_x
_atom_site_fract_y
_atom_site_fract_z
_atom_type_partial_charge
O1    O     O_R   0.500020 0.316790 0.614690 -0.622046
O2    O     O_R   0.500000 0.316760 0.385350 -0.613178
C1    C     C_R   0.496253 0.259717 0.497411 0.854120
O3    O     O_R   0.271760 0.500010 0.587850 -0.617969
O4    O     O_R   0.271740 0.499970 0.358500 -0.618450
C2    C     C_R   0.201756 0.499978 0.464550 0.943628
Zn1   Zn    Zn3+2 0.500010 0.500020 0.653130 0.996865
Zn2   Zn    Zn3+2 0.499990 0.499980 0.346870 0.927261
O5    O     O_R   0.500000 0.683240 0.614650 -0.574537
O6    O     O_R   0.499980 0.683210 0.385310 -0.640742
O7    O     O_R   0.728260 0.500030 0.641500 -0.553663
O8    O     O_R   0.728240 0.499990 0.412150 -0.655356
C3    C     C_R   0.498081 0.739169 0.501938 0.893952
C4    C     C_R   0.798276 0.501936 0.535328 0.975731
C5    C     C_2   0.036356 0.497155 0.445423 -0.419301
H1    H     H_    0.974825 0.483171 0.342600 0.181921
C6    C     C_2   0.963650 0.508505 0.553705 -0.355632
H2    H     H_    0.025250 0.524445 0.655908 0.203086
C7    C     C_R   0.514796 0.068569 0.617271 0.098589
C8    C     C_R   0.480275 0.125881 0.494059 -0.137540
C9    C     C_R   0.420239 0.051485 0.375918 0.134832
C10   C     C_R   0.418080 0.923065 0.383067 -0.249873
H3    H     H_    0.378838 0.865515 0.291999 0.180402
C11   C     C_R   0.477498 0.869147 0.503443 -0.135272
C12   C     C_R   0.512930 0.941758 0.622398 0.115571
C13   C     C_3   0.655494 0.945664 0.727795 -0.399960
C14   C     C_3   0.657594 0.086197 0.722267 -0.497503
H4    H     H_    0.627446 0.911590 0.825790 0.220765
H5    H     H_    0.758847 0.904746 0.690388 0.223505
H6    H     H_    0.631998 0.132524 0.817396 0.203498
H7    H     H_    0.761662 0.126869 0.681361 0.199628
C15   C     C_R   0.363797 0.480550 0.052410 0.164295
N1    N     N_R   0.498950 0.499140 0.142680 -0.139937
C16   C     C_R   0.622424 0.557033 0.088445 0.067838
C17   C     C_R   0.627646 0.546619 0.945028 0.330661
N2    N     N_R   0.498950 0.499180 0.857030 -0.184490
C18   C     C_R   0.363908 0.478230 0.912835 0.090675
C19   C     C_3   0.231553 0.379379 0.888303 -0.041678
C20   C     C_3   0.232264 0.385066 0.042490 -0.529957
H8    H     H_    0.121379 0.415293 0.835257 0.215049
H9    H     H_    0.124435 0.423623 0.073802 0.233502
H10   H     H_    0.268598 0.300548 0.092380 0.196167
N3    N     N_R   0.765394 0.592345 0.893441 0.225503
O9    O     O_R   0.759017 0.688142 0.817654 -0.425319
O10   O     O_R   0.901124 0.546789 0.933599 -0.484174
C21   C     C_3   0.271515 0.250215 0.833333 -0.342901
C22   C     C_3   0.170094 0.212575 0.698344 -0.847220
H11   H     H_    0.043045 0.212996 0.709189 0.244088
H12   H     H_    0.193713 0.276737 0.618846 0.273460
H13   H     H_    0.196493 0.117046 0.665659 0.243395
H14   H     H_    0.398306 0.248056 0.823479 0.227709
H15   H     H_    0.246321 0.177005 0.904070 0.205537
C23   C     C_3   0.367061 0.101970 0.239835 -0.381840
C24   C     C_3   0.507332 0.121402 0.161903 -0.814445
H16   H     H_    0.471740 0.169570 0.067304 0.222544
H17   H     H_    0.606197 0.177186 0.222834 0.277876
H18   H     H_    0.551285 0.029898 0.134397 0.244908
H19   H     H_    0.278301 0.036578 0.178418 0.189107
H20   H     H_    0.303425 0.186658 0.255233 0.205501
C25   C     C_3   0.736208 0.652563 0.171546 -0.318681
C26   C     C_3   0.706358 0.785558 0.128391 -0.892157
H21   H     H_    0.578006 0.801318 0.115026 0.256598
H22   H     H_    0.766916 0.853272 0.207732 0.244847
H23   H     H_    0.753591 0.805021 0.033573 0.293604
H24   H     H_    0.721732 0.656137 0.277546 0.268163
H25   H     H_    0.860503 0.630890 0.166321 0.219445

loop_
_geom_bond_atom_site_label_1
_geom_bond_atom_site_label_2
_geom_bond_distance
_ccdc_geom_bond_type
O4    Zn2   1.977360 S    
C9    C23   1.499669 S    
C23   H19   1.112574 S    
C5    C6    1.327640 D    
C18   C19   1.507143 S    
C26   H23   1.104694 S    
C7    C14   1.494683 S    
Zn1   N2    2.037974 S    
C13   H4    1.111215 S    
C7    C8    1.396176 A    
Zn2   O8    1.973138 S    
C15   N1    1.365479 A    
C26   H22   1.111366 S    
N1    C16   1.389277 A    
C23   H20   1.100316 S    
C17   N3    1.428825 S    
C25   H25   1.109488 S    
C1    C8    1.438844 S    
C22   H12   1.104652 S    
O1    Zn1   1.994681 S    
C23   C24   1.533634 S    
C11   C12   1.386643 A    
C14   H6    1.111082 S    
C16   C25   1.521163 S    
C2    C5    1.402847 S    
N3    O10   1.299660 A    
C4    C6    1.402112 S    
C13   C14   1.514247 S    
O4    C2    1.289559 A    
O3    Zn1   1.973139 S    
Zn2   O6    1.994680 S    
N2    C18   1.368109 A    
C19   H8    1.108183 S    
O8    C4    1.288826 A    
C25   H24   1.082804 S    
C6    H2    1.084392 S    
C22   H13   1.110031 S    
C24   H17   1.108964 S    
Zn2   N1    2.037656 S    
C10   H3    1.084968 S    
N3    O9    1.298984 A    
C26   H21   1.111308 S    
C7    C12   1.366494 A    
O7    C4    1.291130 A    
C10   C11   1.394234 A    
C19   C21   1.546582 S    
C15   C18   1.393370 A    
C14   H7    1.111753 S    
C5    H1    1.087620 S    
C21   H15   1.110842 S    
C19   C20   1.538000 S    
C8    C9    1.421047 A    
C20   H9    1.110400 S    
C13   H5    1.112199 S    
O3    C2    1.290782 A    
C16   C17   1.439860 A    
C21   C22   1.527312 S    
C15   C20   1.480803 S    
Zn1   O5    2.021721 S    
C20   H10   1.089134 S    
O5    C3    1.293687 A    
C24   H16   1.105293 S    
Zn1   O7    1.977360 S    
O2    C1    1.299175 A    
C17   N2    1.375203 A    
C12   C13   1.493373 S    
C9    C10   1.385375 A    
C21   H14   1.106885 S    
O6    C3    1.294319 A    
O2    Zn2   2.021720 S    
C22   H11   1.110384 S    
C3    C11   1.417187 S    
C25   C26   1.531226 S    
O1    C1    1.298316 A    
C24   H18   1.109276 S    
