data_mof_unit_46408.cif
_audit_creation_date              2013-03-05T15:40:46-0500
_audit_creation_method            fapswitch 2.2
_symmetry_space_group_name_H-M    P1
_symmetry_Int_Tables_number       1
_space_group_crystal_system       triclinic
_cell_length_a                    6.930071
_cell_length_b                    17.360049
_cell_length_c                    24.094072
_cell_angle_alpha                 104.158585
_cell_angle_beta                  89.887734
_cell_angle_gamma                 90.448657
_cell_volume                      2810.52960417

loop_
_atom_site_label
_atom_site_type_symbol
_atom_site_description
_atom_site_fract_x
_atom_site_fract_y
_atom_site_fract_z
_atom_type_partial_charge
O1    O     O_R   0.494290 0.391990 0.999150 -0.570860
O2    O     O_R   0.827170 0.534410 0.082350 -0.536851
O3    O     O_R   0.994360 0.608010 0.000850 -0.535834
C1    C     C_R   0.658098 0.548377 0.106149 0.964072
O4    O     O_R   0.824210 0.388010 0.004470 -0.558602
O5    O     O_R   0.991370 0.460560 0.922410 -0.533213
C2    C     C_R   0.654115 0.355009 0.001508 0.902025
O6    O     O_R   0.497270 0.539440 0.077590 -0.516696
O7    O     O_3   0.659770 0.523970 0.973170 -0.221674
V1    V     V_3+5 0.935840 0.495550 0.004980 1.326099
O8    O     O_R   0.320910 0.465590 0.917650 -0.521810
C3    C     C_R   0.151831 0.450558 0.893803 0.926955
O9    O     O_R   0.323870 0.611990 0.995530 -0.506607
C4    C     C_R   0.154483 0.644922 0.998341 0.871374
V2    V     V_3+5 0.435470 0.504450 0.995020 1.358704
O10   O     O_3   0.161670 0.476030 0.026830 -0.269857
C5    C     C_2   0.143683 0.730672 0.000230 0.098350
C6    C     C_2   0.971792 0.768749 0.997991 0.107828
C7    C     C_R   0.070666 0.256737 0.625707 0.651906
N1    N     N_R   0.076201 0.337297 0.647817 -0.442235
C8    C     C_R   0.059604 0.388495 0.612900 0.716132
C9    C     C_R   0.063489 0.359791 0.552453 -0.085701
C10   C     C_R   0.050841 0.276506 0.529495 -0.116496
C11   C     C_R   0.044120 0.224498 0.566479 -0.086073
C12   C     C_R   0.074030 0.410644 0.514078 0.369101
C13   C     C_R   0.053918 0.378048 0.454924 -0.067413
C14   C     C_R   0.038427 0.295832 0.432183 -0.080417
C15   C     C_R   0.041673 0.244924 0.469385 -0.041314
C16   C     C_R   0.033766 0.162224 0.446432 -0.089155
C17   C     C_R   0.016671 0.111681 0.483510 -0.003982
C18   C     C_R   0.012831 0.142211 0.542770 0.462951
C19   C     C_R   0.021075 0.263107 0.372695 0.707866
N2    N     N_R   0.022894 0.182250 0.350749 -0.420995
C20   C     C_R   0.034382 0.131968 0.386613 0.692851
O11   O     O_2   0.096755 0.208248 0.661000 -0.443824
O12   O     O_2   0.033437 0.466299 0.636932 -0.382398
H1    H     H_    0.059620 0.417332 0.426257 0.187829
O13   O     O_2   0.000786 0.311806 0.337229 -0.447810
O14   O     O_2   0.043929 0.052779 0.364507 -0.465987
H2    H     H_    0.996892 0.048304 0.466521 0.170679
C21   C     C_R   0.840407 0.101636 0.267218 0.326191
C22   C     C_R   0.825021 0.067877 0.207492 0.310903
C23   C     C_R   0.972685 0.081043 0.169757 -0.235688
C24   C     C_R   0.133173 0.127613 0.192960 -0.143854
H3    H     H_    0.247393 0.138856 0.165114 0.159364
C25   C     C_R   0.148458 0.161757 0.251604 0.441433
C26   C     C_R   0.002977 0.149312 0.289506 0.090804
C27   C     C_R   0.256978 0.416017 0.732738 0.344341
C28   C     C_R   0.274946 0.443949 0.792890 0.282287
C29   C     C_R   0.138521 0.420648 0.830048 -0.254387
C30   C     C_R   0.982417 0.370280 0.805385 0.291068
C31   C     C_R   0.960329 0.347608 0.745869 -0.034192
H4    H     H_    0.839423 0.310020 0.727595 0.174938
C32   C     C_R   0.097203 0.368190 0.709180 0.084325
C33   C     C_R   0.522864 0.867438 0.613996 0.630424
N3    N     N_R   0.515588 0.816188 0.649109 -0.449997
C34   C     C_R   0.528015 0.735766 0.626988 0.700710
C35   C     C_R   0.569932 0.704372 0.568342 -0.108432
C36   C     C_R   0.556195 0.755618 0.531009 -0.105596
C37   C     C_R   0.526521 0.838124 0.553565 -0.096007
C38   C     C_R   0.622366 0.623681 0.545646 0.390804
C39   C     C_R   0.637214 0.593891 0.486123 -0.012141
C40   C     C_R   0.614090 0.643331 0.448550 -0.079853
C41   C     C_R   0.574703 0.724379 0.471026 -0.038379
C42   C     C_R   0.554125 0.774179 0.433413 -0.088962
C43   C     C_R   0.522047 0.855355 0.455771 -0.061162
C44   C     C_R   0.508884 0.888032 0.514894 0.357633
C45   C     C_R   0.636069 0.614024 0.388828 0.685837
N4    N     N_R   0.608983 0.662897 0.352562 -0.417451
C46   C     C_R   0.565118 0.741533 0.373893 0.711167
O15   O     O_2   0.532079 0.946152 0.637796 -0.433940
O16   O     O_2   0.496183 0.686569 0.661606 -0.383066
H5    H     H_    0.675297 0.532160 0.469359 0.163207
O17   O     O_2   0.684381 0.537386 0.367266 -0.473649
O18   O     O_2   0.531778 0.788100 0.337592 -0.438159
H6    H     H_    0.504347 0.894145 0.427116 0.185519
C47   C     C_R   0.776479 0.656808 0.260551 0.383991
C48   C     C_R   0.787599 0.630061 0.200492 0.252428
C49   C     C_R   0.648108 0.575907 0.170015 -0.305083
C50   C     C_R   0.501460 0.547321 0.201168 0.287047
C51   C     C_R   0.488490 0.575577 0.261302 0.339799
C52   C     C_R   0.624883 0.631453 0.291095 0.048475
C53   C     C_R   0.654282 0.837363 0.746788 0.413978
C54   C     C_R   0.638964 0.866533 0.806644 0.338110
C55   C     C_R   0.473230 0.910256 0.831142 -0.203899
C56   C     C_R   0.322852 0.919852 0.794314 -0.113347
H7    H     H_    0.194228 0.952261 0.811344 0.154063
C57   C     C_R   0.337111 0.888846 0.734994 0.016712
H8    H     H_    0.219378 0.897417 0.707700 0.163332
C58   C     C_R   0.502141 0.847520 0.710645 0.146611
C59   C     C_2   0.642490 0.270013 0.001886 -0.185021
H9    H     H_    0.776951 0.239673 0.005198 0.101815
C60   C     C_2   0.473009 0.229969 0.997980 -0.213447
H10   H     H_    0.338559 0.260314 0.994652 0.112343
O19   O     O_R   0.618210 0.960470 0.922400 -0.525855
O20   O     O_R   0.291310 0.111960 0.995450 -0.575085
O21   O     O_R   0.124210 0.039530 0.077580 -0.561368
C61   C     C_R   0.461387 0.144978 0.998414 0.840424
O22   O     O_R   0.288310 0.965490 0.917650 -0.551017
O23   O     O_R   0.121180 0.892010 0.999220 -0.533014
C62   C     C_R   0.457745 0.946538 0.894238 0.921855
O24   O     O_R   0.621230 0.107990 0.000760 -0.576086
O25   O     O_3   0.455770 0.976060 0.026840 -0.212457
V3    V     V_3+5 0.179680 0.004440 0.995020 1.256015
O26   O     O_R   0.791670 0.888040 0.004570 -0.488589
C63   C     C_R   0.960958 0.854879 0.001088 0.896751
O27   O     O_R   0.794680 0.034510 0.082370 -0.527453
C64   C     C_R   0.963147 0.049049 0.106241 0.896886
V4    V     V_3+5 0.680070 0.995560 0.005010 1.315462
O28   O     O_3   0.953840 0.023940 0.973160 -0.286566
N5    N     N_R   0.322653 0.773642 0.006938 0.103288
O29   O     O_R   0.412273 0.784476 0.961936 -0.276805
O30   O     O_R   0.378047 0.812503 0.057713 -0.257457
Cl1   Cl    Cl    0.354938 0.219605 0.276053 -0.502719
N6    N     N_R   0.403674 0.434235 0.695585 0.134419
O31   O     O_R   0.482846 0.377593 0.656947 -0.338993
O32   O     O_R   0.450420 0.507679 0.697887 -0.152354
Cl2   Cl    Cl    0.471286 0.507694 0.820393 -0.465529
N7    N     N_R   0.850950 0.337446 0.839860 0.112885
O33   O     O_R   0.917787 0.301955 0.877448 -0.373774
O34   O     O_R   0.668660 0.329804 0.826644 -0.326322
N8    N     N_R   0.683106 0.573807 0.582008 0.162465
O35   O     O_R   0.803897 0.601740 0.623469 -0.174805
O36   O     O_R   0.656741 0.497258 0.565878 -0.292589
N9    N     N_R   0.465211 0.970939 0.533922 0.135717
O37   O     O_R   0.313173 0.992749 0.565243 -0.252032
O38   O     O_R   0.547106 0.021610 0.509316 -0.312165
Cl3   Cl    Cl    0.951468 0.724673 0.297704 -0.443778
N10   N     N_R   0.793663 0.725184 0.988843 0.107514
O39   O     O_R   0.697141 0.713538 0.032421 -0.256498
O40   O     O_R   0.744308 0.687342 0.937243 -0.253267
N11   N     N_R   0.936336 0.661106 0.170411 0.140188
O41   O     O_R   0.117130 0.650093 0.180415 -0.268126
O42   O     O_R   0.891256 0.705297 0.135927 -0.295048
Cl4   Cl    Cl    0.331941 0.475275 0.165501 -0.535194
N12   N     N_R   0.335890 0.547845 0.292206 0.145667
O43   O     O_R   0.309382 0.472085 0.286809 -0.206767
O44   O     O_R   0.234188 0.598026 0.329649 -0.302202
Cl5   Cl    Cl    0.868401 0.790007 0.716615 -0.520081
Cl6   Cl    Cl    0.826930 0.843090 0.849392 -0.535226
N13   N     N_R   0.119521 0.494037 0.533159 0.127620
O45   O     O_R   0.259430 0.517489 0.569342 -0.240229
O46   O     O_R   0.055797 0.543407 0.504741 -0.363716
Cl7   Cl    Cl    0.941219 0.076002 0.584238 -0.434387
N14   N     N_R   0.691482 0.087271 0.305357 0.144204
O47   O     O_R   0.632452 0.015157 0.302820 -0.199759
O48   O     O_R   0.629895 0.144726 0.346841 -0.318431
Cl8   Cl    Cl    0.618478 0.009726 0.181230 -0.488478

loop_
_geom_bond_atom_site_label_1
_geom_bond_atom_site_label_2
_geom_bond_distance
_ccdc_geom_bond_type
C33   N3    1.370119 A    
C60   H10   1.086615 S    
C21   C22   1.418697 A    
N5    O29   1.300785 A    
C1    O6    1.299164 A    
C22   Cl8   1.771074 S    
C53   Cl5   1.768819 S    
N14   O47   1.301141 A    
C8    O12   1.346576 S    
C47   C48   1.409586 A    
C24   H3    1.083672 S    
C27   C32   1.412477 A    
C13   C14   1.401465 A    
C39   C40   1.401688 A    
C50   Cl4   1.771456 S    
C14   C15   1.404608 A    
C15   C16   1.407299 A    
N13   O46   1.301007 A    
O5    C3    1.297405 A    
C17   C18   1.396476 A    
C56   C57   1.402200 A    
C45   O17   1.349161 S    
V2    O10   2.143781 S    
O23   V3    2.016967 S    
N3    C34   1.370514 A    
C18   Cl7   1.765388 S    
C48   N11   1.434463 S    
N4    C52   1.451969 S    
C40   C45   1.412377 A    
O21   C64   1.301564 A    
O8    V2    1.985612 S    
C28   Cl2   1.770952 S    
C37   C44   1.425070 A    
C31   C32   1.398139 A    
N11   O41   1.300735 A    
N6    O32   1.301009 A    
C9    C12   1.427453 A    
O20   C61   1.300993 A    
O19   C62   1.293827 A    
C30   N7    1.437174 S    
C10   C11   1.415682 A    
C39   H5    1.083284 S    
O1    V2    2.023671 S    
C19   O13   1.349234 S    
O7    V1    2.167173 S    
C33   C37   1.420284 A    
C35   C38   1.423287 A    
N3    C58   1.452084 S    
C43   C44   1.401535 A    
C43   H6    1.083635 S    
C36   C37   1.418624 A    
O1    C2    1.292821 A    
O9    C4    1.304086 A    
O27   V4    1.985714 S    
C4    C5    1.480621 S    
N4    C46   1.372145 A    
C5    N5    1.431149 S    
N14   O48   1.301288 A    
C24   C25   1.396048 A    
C29   C30   1.421796 A    
N7    O34   1.301216 A    
C25   Cl1   1.759098 S    
C30   C31   1.399439 A    
C54   C55   1.426713 A    
C1    C49   1.497134 S    
N12   O44   1.300829 A    
O19   V4    1.980577 S    
C59   H9    1.086569 S    
O4    C2    1.300985 A    
C48   C49   1.417173 A    
C45   N4    1.372740 A    
C12   C13   1.405710 A    
C61   O24   1.292942 A    
C16   C20   1.408124 A    
C51   C52   1.413254 A    
C20   O14   1.349453 S    
C38   N8    1.439667 S    
C42   C46   1.409313 A    
O2    C1    1.301624 A    
C23   C24   1.403699 A    
C6    C63   1.481222 S    
C16   C17   1.401223 A    
C59   C60   1.351756 D    
C53   C54   1.410845 A    
O9    V2    2.023598 S    
O27   C64   1.297890 A    
C2    C59   1.479350 S    
C5    C6    1.374371 D    
C21   C26   1.418800 A    
C17   H2    1.083699 S    
N5    O30   1.301213 A    
C10   C15   1.418988 A    
N1    C8    1.370668 A    
O3    C4    1.285760 A    
C55   C56   1.407057 A    
C47   Cl3   1.768021 S    
C27   N6    1.436922 S    
N1    C32   1.451358 S    
C27   C28   1.416718 A    
O22   C62   1.310669 A    
C57   C58   1.403978 A    
C42   C43   1.399495 A    
O6    V2    1.979489 S    
O20   V3    2.012595 S    
N9    O37   1.298596 A    
N2    C26   1.452666 S    
C49   C50   1.419097 A    
C22   C23   1.421402 A    
N8    O36   1.301606 A    
O2    V1    1.970928 S    
C46   O18   1.349651 S    
C55   C62   1.500451 S    
C31   H4    1.083524 S    
C51   N12   1.438367 S    
N10   O39   1.299896 A    
C53   C58   1.408093 A    
O26   V4    2.023652 S    
C25   C26   1.409456 A    
C14   C19   1.411676 A    
C56   H7    1.083024 S    
C12   N13   1.440290 S    
C50   C51   1.414368 A    
C6    N10   1.431536 S    
O5    V1    1.970897 S    
C3    C29   1.499126 S    
N7    O33   1.301315 A    
C13   H1    1.083357 S    
O26   C63   1.304363 A    
O23   C63   1.285772 A    
O25   V4    1.697972 S    
C41   C42   1.405263 A    
C7    N1    1.369636 A    
C44   N9    1.434135 S    
C7    C11   1.411464 A    
C35   C36   1.415200 A    
C11   C18   1.417878 A    
O4    V1    2.012492 S    
O3    V1    2.017023 S    
V1    O10   1.714664 S    
N13   O45   1.299747 A    
C19   N2    1.373757 A    
V3    O28   1.714718 S    
C34   C35   1.414969 A    
C47   C52   1.409699 A    
N2    C20   1.373072 A    
O22   V3    1.971000 S    
C23   C64   1.496291 S    
C34   O16   1.348581 S    
O7    V2    1.698238 S    
C38   C39   1.404362 A    
O21   V3    1.970700 S    
C40   C41   1.407157 A    
C36   C41   1.419926 A    
C21   N14   1.440868 S    
C57   H8    1.082665 S    
C54   Cl6   1.772559 S    
N11   O42   1.301178 A    
C28   C29   1.423678 A    
V4    O28   2.143779 S    
O25   V3    2.167171 S    
N9    O38   1.301292 A    
C9    C10   1.418108 A    
N12   O43   1.301167 A    
O24   V4    2.024018 S    
C7    O11   1.348152 S    
N8    O35   1.301433 A    
C8    C9    1.419577 A    
C60   C61   1.479603 S    
C33   O15   1.347452 S    
N6    O31   1.301231 A    
O8    C3    1.302180 A    
N10   O40   1.301087 A    
