data_mof_unit_22978.cif
_audit_creation_date              2013-03-05T15:41:28-0500
_audit_creation_method            fapswitch 2.2
_symmetry_space_group_name_H-M    P1
_symmetry_Int_Tables_number       1
_space_group_crystal_system       triclinic
_cell_length_a                    11.909364
_cell_length_b                    18.331557
_cell_length_c                    10.141574
_cell_angle_alpha                 89.714198
_cell_angle_beta                  111.932518
_cell_angle_gamma                 90.765584
_cell_volume                      2053.65121866

loop_
_atom_site_label
_atom_site_type_symbol
_atom_site_description
_atom_site_fract_x
_atom_site_fract_y
_atom_site_fract_z
_atom_type_partial_charge
O1    O     O_R   0.267710 0.668200 0.902110 -0.434789
O2    O     O_R   0.732290 0.331800 0.097890 -0.476926
O3    O     O_R   0.732290 0.168200 0.097890 -0.480064
O4    O     O_R   0.267710 0.831800 0.902110 -0.479603
O5    O     O_R   0.099480 0.674460 0.038850 -0.489764
O6    O     O_R   0.900520 0.325540 0.961150 -0.472145
O7    O     O_R   0.900520 0.174460 0.961150 -0.497906
O8    O     O_R   0.099480 0.825540 0.038850 -0.526517
C1    C     C_R   0.074653 0.644894 0.138826 0.547601
C2    C     C_R   0.881129 0.363575 0.844969 0.524459
C3    C     C_R   0.878630 0.137015 0.844624 0.513938
C4    C     C_R   0.072523 0.853051 0.138686 0.531700
O9    O     O_R   0.116720 0.669210 0.267660 -0.458378
O10   O     O_R   0.883280 0.330790 0.732340 -0.414770
O11   O     O_R   0.883280 0.169210 0.732340 -0.406100
O12   O     O_R   0.116720 0.830790 0.267660 -0.437766
O13   O     O_R   0.366710 0.675440 0.427590 -0.499279
O14   O     O_R   0.633290 0.324560 0.572410 -0.517021
O15   O     O_R   0.633290 0.175440 0.572410 -0.505189
O16   O     O_R   0.366710 0.824560 0.427590 -0.497145
C5    C     C_R   0.470856 0.647324 0.443495 0.599409
C6    C     C_R   0.529379 0.352867 0.558124 0.551986
C7    C     C_R   0.526488 0.147762 0.557254 0.534261
C8    C     C_R   0.472533 0.852730 0.441426 0.560948
O17   O     O_R   0.534870 0.669390 0.371760 -0.487306
O18   O     O_R   0.465130 0.330610 0.628240 -0.507789
O19   O     O_R   0.465130 0.169390 0.628240 -0.509421
O20   O     O_R   0.534870 0.830610 0.371760 -0.495640
O21   O     O_R   0.453080 0.674480 0.075160 -0.504938
O22   O     O_R   0.546920 0.325520 0.924840 -0.473844
O23   O     O_R   0.546920 0.174480 0.924840 -0.473963
O24   O     O_R   0.453080 0.825520 0.075160 -0.503632
C9    C     C_R   0.375336 0.645527 0.962622 0.582085
C10   C     C_R   0.641441 0.363216 0.002840 0.524287
C11   C     C_R   0.646124 0.137714 0.991912 0.531517
C12   C     C_R   0.374897 0.856016 0.966811 0.550274
Cr1   Cr    Cr6+3 0.187610 0.750000 0.979860 1.098933
Cr2   Cr    Cr6+3 0.812390 0.250000 0.020140 1.093111
Cr3   Cr    Cr6+3 0.245810 0.750000 0.341640 1.129095
Cr4   Cr    Cr6+3 0.754190 0.250000 0.658360 1.129516
Cr5   Cr    Cr6+3 0.485760 0.750000 0.219910 1.087350
Cr6   Cr    Cr6+3 0.514240 0.250000 0.780090 1.079101
O25   O     O_3   0.306390 0.750000 0.180470 -0.287629
O26   O     O_3   0.693610 0.250000 0.819530 -0.363005
C13   C     C_R   0.494571 0.424074 0.484975 0.033515
C14   C     C_R   0.503593 0.576310 0.520277 0.028994
C15   C     C_R   0.510609 0.924861 0.510026 0.024534
C16   C     C_R   0.484735 0.076628 0.485232 0.022334
C17   C     C_R   0.281145 0.424945 0.471613 0.080997
C18   C     C_R   0.720320 0.571647 0.548199 0.050806
C19   C     C_R   0.700089 0.940255 0.460047 0.079440
C20   C     C_R   0.297868 0.061265 0.544486 0.069615
C21   C     C_R   0.189188 0.464254 0.493452 -0.125494
C22   C     C_R   0.806739 0.534629 0.510829 -0.100399
C23   C     C_R   0.765083 0.983230 0.397910 -0.138025
C24   C     C_R   0.233613 0.016802 0.605659 -0.162274
C25   C     C_R   0.207717 0.536603 0.539517 0.018835
C26   C     C_R   0.778882 0.468015 0.438397 0.025419
C27   C     C_R   0.737481 0.056720 0.367518 0.028912
C28   C     C_R   0.254713 0.941892 0.621300 0.025176
C29   C     C_R   0.320697 0.568408 0.573301 -0.108241
C30   C     C_R   0.669366 0.434008 0.417641 -0.101404
C31   C     C_R   0.630363 0.082702 0.371196 -0.078302
C32   C     C_R   0.361773 0.917115 0.617194 -0.092320
C33   C     C_R   0.408514 0.534787 0.534863 -0.033353
C34   C     C_R   0.587489 0.465835 0.468310 -0.044079
C35   C     C_R   0.565197 0.041843 0.436051 -0.037979
C36   C     C_R   0.428313 0.959145 0.556236 -0.042089
C37   C     C_R   0.394677 0.460279 0.496913 0.011857
C38   C     C_R   0.603854 0.539135 0.512691 -0.024529
C39   C     C_R   0.592705 0.968090 0.470067 -0.005595
C40   C     C_R   0.402308 0.033374 0.526052 -0.000036
H1    H     H_    0.101678 0.439497 0.469219 0.200702
H2    H     H_    0.897213 0.555662 0.545877 0.222776
H3    H     H_    0.845615 0.961751 0.391144 0.194363
H4    H     H_    0.159856 0.039930 0.625606 0.182168
H5    H     H_    0.336139 0.622912 0.617926 0.167601
H6    H     H_    0.649121 0.381368 0.364916 0.169829
H7    H     H_    0.604411 0.138200 0.336667 0.165786
H8    H     H_    0.389329 0.862062 0.653694 0.153584
H9    H     H_    0.465140 0.052396 0.837269 0.172139
H10   H     H_    0.591917 0.913451 0.005119 0.163254
H11   H     H_    0.587543 0.579749 0.053487 0.171367
H12   H     H_    0.481409 0.453363 0.833318 0.156382
C41   C     C_2   0.403067 0.927885 0.929811 -0.106753
C42   C     C_2   0.630046 0.060335 0.011082 -0.133893
C43   C     C_2   0.617190 0.436709 0.035620 -0.114362
C44   C     C_2   0.405886 0.578233 0.910382 -0.088718
C45   C     C_2   0.515598 0.949207 0.954360 -0.165736
C46   C     C_2   0.535055 0.024387 0.923091 -0.158386
C47   C     C_2   0.536241 0.476496 0.936321 -0.168748
C48   C     C_2   0.515917 0.550699 0.969696 -0.147427
H13   H     H_    0.697179 0.031511 0.097897 0.128827
H14   H     H_    0.329381 0.966245 0.888999 0.170339
H15   H     H_    0.333289 0.546266 0.834510 0.131519
H16   H     H_    0.670794 0.460716 0.137336 0.155567
H17   H     H_    0.849524 0.038719 0.017407 0.144589
H18   H     H_    0.929982 0.908047 0.888199 0.168438
H19   H     H_    0.858566 0.599518 0.974344 0.131916
H20   H     H_    0.802417 0.461344 0.968182 0.109302
C49   C     C_2   0.009169 0.921888 0.110528 0.064846
C50   C     C_2   0.925176 0.063271 0.867118 0.073996
C51   C     C_2   0.924993 0.440334 0.869522 0.060747
C52   C     C_2   0.033599 0.568687 0.109087 0.127064
C53   C     C_2   0.941981 0.943178 0.978528 -0.141432
C54   C     C_2   0.896027 0.017912 0.952667 -0.158052
C55   C     C_2   0.878160 0.482455 0.945770 -0.131873
C56   C     C_2   0.922968 0.555278 0.007976 -0.086226
C57   C     C_2   0.106569 0.585262 0.523166 0.595589
O27   O     O_2   0.015454 0.581611 0.415436 -0.495255
O28   O     O_R   0.120802 0.641594 0.620431 -0.638259
H21   H     H_    0.050921 0.676811 0.588086 0.384508
C58   C     C_2   0.864253 0.430178 0.390130 0.568167
O29   O     O_2   0.899034 0.369262 0.435623 -0.426782
O30   O     O_R   0.895784 0.460853 0.282445 -0.690939
H22   H     H_    0.942599 0.425780 0.246206 0.375643
C59   C     C_2   0.828618 0.110014 0.358671 0.635474
O31   O     O_2   0.831026 0.172053 0.403919 -0.416711
O32   O     O_R   0.910392 0.090835 0.296994 -0.704405
H23   H     H_    0.965016 0.133141 0.293799 0.381017
C60   C     C_2   0.165489 0.886732 0.631370 0.640554
O33   O     O_2   0.168889 0.824226 0.591138 -0.466813
O34   O     O_R   0.079332 0.904084 0.687802 -0.674800
H24   H     H_    0.030253 0.860121 0.696909 0.358144
C61   C     C_2   0.248857 0.352886 0.398825 0.620636
O35   O     O_2   0.163576 0.317128 0.405109 -0.455672
O36   O     O_R   0.312199 0.327976 0.316397 -0.709396
H25   H     H_    0.274915 0.283057 0.258632 0.349598
C62   C     C_2   0.760682 0.636872 0.642544 0.587635
O37   O     O_2   0.696237 0.662636 0.699831 -0.553104
O38   O     O_R   0.876636 0.666174 0.673185 -0.675025
H26   H     H_    0.899586 0.704908 0.749890 0.329917
C63   C     C_2   0.758526 0.873473 0.537683 0.601999
O39   O     O_2   0.822489 0.836682 0.494273 -0.492538
O40   O     O_R   0.740505 0.853159 0.661439 -0.717929
H27   H     H_    0.786381 0.807872 0.707058 0.341603
C64   C     C_2   0.237495 0.128902 0.473708 0.649705
O41   O     O_2   0.176998 0.164245 0.524491 -0.450158
O42   O     O_R   0.243428 0.149408 0.343758 -0.653308
H28   H     H_    0.178825 0.185921 0.291962 0.353097
C65   C     C_2   0.997112 0.039771 0.787197 0.627416
O43   O     O_2   0.099637 0.017070 0.848075 -0.479593
O44   O     O_R   0.946162 0.046706 0.640928 -0.683731
H29   H     H_    0.983232 0.013731 0.591086 0.335221
C66   C     C_2   0.042255 0.972120 0.229991 0.602811
O45   O     O_2   0.088615 0.031340 0.224620 -0.474405
O46   O     O_R   0.025032 0.949417 0.351139 -0.680184
H30   H     H_    0.036215 0.991269 0.417685 0.333730
C67   C     C_2   0.130736 0.512959 0.155317 0.584377
O47   O     O_2   0.237002 0.532592 0.201854 -0.514488
O48   O     O_R   0.102755 0.438698 0.139758 -0.707933
H31   H     H_    0.172903 0.409067 0.137274 0.370809
C68   C     C_2   0.021959 0.466251 0.820152 0.577799
O49   O     O_2   0.043862 0.531397 0.816156 -0.498756
O50   O     O_R   0.089393 0.415473 0.779409 -0.633903
H32   H     H_    0.155527 0.439259 0.753282 0.327786

loop_
_geom_bond_atom_site_label_1
_geom_bond_atom_site_label_2
_geom_bond_distance
_ccdc_geom_bond_type
C26   C30   1.381500 A    
O4    C12   1.272470 A    
C24   H4    1.065741 S    
O23   Cr6   1.946885 S    
C23   C27   1.396416 A    
C59   O31   1.224462 D    
C32   H8    1.085157 S    
O28   H21   1.012583 S    
C59   O32   1.389129 S    
C66   O45   1.221542 D    
O1    C9    1.271359 A    
O40   H27   1.010553 S    
C31   H7    1.084980 S    
O7    C3    1.307230 A    
H11   C48   1.088219 S    
C64   O42   1.395370 S    
C49   C66   1.454587 S    
C18   C22   1.405693 A    
H10   C45   1.088010 S    
Cr6   O26   2.021131 S    
C32   C36   1.395962 A    
C2    C51   1.483746 S    
C42   H13   1.083697 S    
C9    C44   1.448216 S    
C41   C45   1.322332 D    
C5    C14   1.493224 S    
C43   C47   1.327299 D    
C65   O44   1.382961 S    
C11   C42   1.450638 S    
C33   C37   1.411617 A    
O5    Cr1   1.949116 S    
O44   H29   0.996344 S    
O21   C9    1.282597 A    
O20   Cr5   2.055248 S    
O13   Cr3   1.950444 S    
O14   Cr4   1.950443 S    
C1    O9    1.291389 A    
O46   H30   0.998564 S    
C22   H2    1.067779 S    
C3    O11   1.299086 A    
C51   C68   1.491598 S    
C25   C57   1.467067 S    
C44   C48   1.326479 D    
O3    Cr2   2.071762 S    
C29   H5    1.083680 S    
C26   C58   1.465757 S    
C55   C56   1.484155 S    
O6    Cr2   1.949114 S    
C50   C65   1.452087 S    
C7    O19   1.270048 A    
C68   O50   1.397802 S    
C19   C23   1.399991 A    
O1    Cr1   2.095767 S    
C64   O41   1.223562 D    
C23   H3    1.067291 S    
O2    C10   1.289760 A    
C44   H15   1.084885 S    
C27   C59   1.477870 S    
C17   C37   1.425701 A    
Cr5   O25   2.021131 S    
C19   C39   1.421702 A    
C16   C40   1.429420 A    
C66   O46   1.380468 S    
Cr2   O26   1.997581 S    
C49   C53   1.337013 D    
O9    Cr3   2.051441 S    
C31   C35   1.398859 A    
C60   O34   1.389515 S    
O22   C10   1.299963 A    
C13   C37   1.414192 A    
C4    O12   1.280841 A    
O34   H24   1.013237 S    
C14   C33   1.408696 A    
C58   O29   1.223068 D    
C2    O10   1.302188 A    
O17   Cr5   2.055440 S    
C47   C48   1.448457 S    
O16   Cr3   1.929460 S    
C30   C34   1.395629 A    
Cr3   O25   2.018192 S    
O13   C5    1.302633 A    
C24   C28   1.396888 A    
C36   C40   1.406228 A    
C13   C34   1.398205 A    
C52   C67   1.491089 S    
Cr1   O25   1.997581 S    
O15   C7    1.317717 A    
O5    C1    1.274123 A    
C20   C40   1.426560 A    
C18   C62   1.492874 S    
C29   C33   1.396350 A    
C41   H14   1.085432 S    
O2    Cr2   2.095767 S    
O3    C11   1.298949 A    
O8    C4    1.278592 A    
C43   H16   1.081859 S    
C20   C64   1.482889 S    
O32   H23   1.013778 S    
H18   C53   1.086272 S    
C15   C39   1.421333 A    
C60   O33   1.224464 D    
H9    C46   1.086309 S    
H12   C47   1.088544 S    
H19   C56   1.086629 S    
C42   C46   1.319917 D    
C61   O35   1.222871 D    
O23   C11   1.314964 A    
O8    Cr1   1.973134 S    
H17   C54   1.078460 S    
O24   Cr5   1.946883 S    
O38   H26   1.012675 S    
C45   C46   1.447620 S    
O24   C12   1.276865 A    
C15   C36   1.392021 A    
C52   C56   1.353670 D    
O18   Cr6   2.055440 S    
C63   O40   1.397996 S    
C62   O37   1.222768 D    
C22   C26   1.398904 A    
C5    O17   1.295077 A    
H20   C55   1.076143 S    
C21   C25   1.395445 A    
C7    C16   1.483925 S    
O21   Cr5   1.949900 S    
O14   C6    1.305445 A    
C8    C15   1.481730 S    
C30   H6    1.085282 S    
C21   H1    1.072227 S    
C8    O20   1.271811 A    
O6    C2    1.311719 A    
O42   H28   1.012048 S    
C25   C29   1.379991 A    
C12   C41   1.437494 S    
C17   C61   1.490586 S    
C53   C54   1.467785 S    
C34   C38   1.406976 A    
C27   C31   1.381175 A    
C28   C32   1.374424 A    
C67   O48   1.392806 S    
C18   C38   1.419743 A    
C4    C49   1.450542 S    
C67   O47   1.223613 D    
C19   C63   1.485528 S    
O19   Cr6   2.055250 S    
O30   H22   1.012086 S    
C63   O39   1.223181 D    
C1    C52   1.468804 S    
C17   C21   1.404106 A    
C57   O28   1.395953 S    
O7    Cr2   1.973135 S    
C50   C54   1.332183 D    
C3    C50   1.452346 S    
C35   C39   1.406069 A    
C10   C43   1.447612 S    
C16   C35   1.396481 A    
C28   C60   1.487732 S    
O11   Cr4   2.075556 S    
C14   C38   1.409595 A    
O15   Cr4   1.929461 S    
O12   Cr3   2.075554 S    
O10   Cr4   2.051440 S    
C20   C24   1.402765 A    
Cr4   O26   2.018193 S    
C6    C13   1.483625 S    
O4    Cr1   2.071760 S    
C6    O18   1.285619 A    
C57   O27   1.220162 D    
O50   H32   1.013038 S    
C61   O36   1.400166 S    
O22   Cr6   1.949900 S    
C51   C55   1.358286 D    
C62   O38   1.397629 S    
C68   O49   1.222686 D    
C65   O43   1.221921 D    
O48   H31   1.010731 S    
O16   C8    1.313732 A    
O36   H25   1.009517 S    
C58   O30   1.394439 S    
