data_mof_unit_49926.cif
_audit_creation_date              2012-12-10T18:22:33-0500
_audit_creation_method            fapswitch 2.2
_symmetry_space_group_name_H-M    P1
_symmetry_Int_Tables_number       1
_space_group_crystal_system       triclinic
_cell_length_a                    23.435478
_cell_length_b                    10.636547
_cell_length_c                    9.47685
_cell_angle_alpha                 90.26323
_cell_angle_beta                  89.994687
_cell_angle_gamma                 88.928369
_cell_volume                      2361.880545

loop_
_atom_site_label
_atom_site_type_symbol
_atom_type_description
_atom_site_fract_x
_atom_site_fract_y
_atom_site_fract_z
_atom_type_partial_charge
C1    C     C_R   0.501802 0.259713 0.499438 0.834169
C2    C     C_R   0.696876 0.612725 0.453971 -0.231034
C3    C     C_R   0.242234 0.383638 0.543720 0.192505
C4    C     C_R   0.756410 0.622671 0.453745 0.190702
C5    C     C_R   0.209716 0.489451 0.500024 0.284369
C6    C     C_R   0.790018 0.518745 0.498163 0.282237
C7    C     C_3   0.538888 0.038917 0.595558 -0.196170
C8    C     C_3   0.461647 0.961216 0.404495 -0.195463
C9    C     C_3   0.551967 0.951070 0.467939 -0.305846
C10   C     C_3   0.448590 0.049039 0.532116 -0.306737
C11   C     C_3   0.498091 0.877224 0.502000 -0.138377
C12   C     C_R   0.498436 0.740328 0.500569 0.833587
C13   C     C_3   0.502435 0.122860 0.498039 -0.138363
C14   C     C_3   0.485106 0.963442 0.628216 0.514114
C15   C     C_3   0.515434 0.036672 0.371836 0.515044
C16   C     C_R   0.391364 0.500694 0.500068 0.785675
C17   C     C_R   0.608630 0.499234 0.499919 0.785268
C18   C     C_3   0.478851 0.603576 0.049579 0.428414
C19   C     C_3   0.521149 0.396428 0.950419 0.428016
C20   C     C_3   0.448563 0.513201 0.948920 -0.265779
C21   C     C_3   0.551436 0.486796 0.051076 -0.264029
C22   C     C_3   0.529867 0.590328 0.950634 0.435558
C23   C     C_R   0.236894 0.598896 0.457470 -0.134570
C24   C     C_3   0.470133 0.409673 0.049360 0.435354
C25   C     C_R   0.879720 0.552147 0.615782 0.582097
C26   C     C_R   0.119965 0.459770 0.381352 0.567433
C27   C     C_R   0.879237 0.486115 0.374602 0.567115
C28   C     C_R   0.120474 0.525664 0.622573 0.582558
C29   C     C_R   0.939578 0.479624 0.371334 -0.099608
C30   C     C_R   0.060136 0.532880 0.625612 -0.101650
C31   C     C_R   0.969659 0.509834 0.496672 -0.066978
C32   C     C_R   0.030050 0.502843 0.500227 -0.067177
C33   C     C_R   0.939449 0.546809 0.618961 -0.072611
C34   C     C_R   0.763983 0.408703 0.543410 -0.134138
C35   C     C_R   0.060254 0.465876 0.377932 -0.069649
C36   C     C_R   0.971084 0.443207 0.249338 0.408232
C37   C     C_R   0.028634 0.569648 0.747488 0.406979
C38   C     C_R   0.030500 0.436615 0.254308 -0.142566
C39   C     C_R   0.969214 0.576382 0.742478 -0.141873
C40   C     C_3   0.323415 0.729539 0.420956 -0.424172
C41   C     C_3   0.336658 0.803665 0.554792 -0.774017
C42   C     C_3   0.678789 0.275072 0.585750 -0.419733
C43   C     C_3   0.665445 0.196953 0.454852 -0.781647
C44   C     C_3   0.214654 0.263048 0.589383 -0.418016
C45   C     C_R   0.296437 0.605855 0.457386 0.113856
C46   C     C_3   0.221170 0.242900 0.747984 -0.711217
C47   C     C_3   0.782622 0.743875 0.405007 -0.378478
C48   C     C_3   0.771538 0.849974 0.511181 -0.768827
C49   C     C_R   0.704535 0.399006 0.544775 0.113692
C50   C     C_R   0.329061 0.499851 0.500105 -0.049990
C51   C     C_R   0.670871 0.502642 0.499710 -0.050579
C52   C     C_R   0.301911 0.390257 0.543081 -0.236080
Cl1   Cl    Cl    0.940010 0.404310 0.085489 -0.505859
Cl2   Cl    Cl    0.059716 0.608471 0.911348 -0.510035
Cl3   Cl    Cl    0.446271 0.745283 0.112207 -0.502452
Cl4   Cl    Cl    0.553686 0.254679 0.887794 -0.501822
Cl5   Cl    Cl    0.573719 0.711340 0.883826 -0.464477
Cl6   Cl    Cl    0.426326 0.288563 0.116124 -0.469137
Cl7   Cl    Cl    0.462529 0.919296 0.799873 -0.423084
Cl8   Cl    Cl    0.538016 0.081031 0.200259 -0.420236
Cu1   Cu    Cu3+1 0.500010 0.499990 0.643150 1.049806
Cu2   Cu    Cu3+1 0.499990 0.500010 0.356850 1.050748
H1    H     H_    0.405242 0.524703 0.902858 0.204286
H2    H     H_    0.406524 0.092308 0.559526 0.172488
H3    H     H_    0.571086 0.070653 0.672920 0.227660
H4    H     H_    0.429404 0.929527 0.327223 0.227692
H5    H     H_    0.297902 0.813884 0.621705 0.273586
H6    H     H_    0.371035 0.755794 0.616042 0.267819
H7    H     H_    0.350777 0.898925 0.525993 0.241350
H8    H     H_    0.362935 0.714421 0.358221 0.242365
H9    H     H_    0.293958 0.787114 0.354455 0.227807
H10   H     H_    0.630626 0.242307 0.392749 0.266652
H11   H     H_    0.704025 0.185815 0.387477 0.273697
H12   H     H_    0.594757 0.475286 0.097133 0.205257
H13   H     H_    0.651865 0.102145 0.487271 0.239729
H14   H     H_    0.709045 0.220297 0.653020 0.227699
H15   H     H_    0.639503 0.290191 0.649363 0.244719
H16   H     H_    0.266954 0.234691 0.777428 0.256039
H17   H     H_    0.201049 0.322477 0.807094 0.293842
H18   H     H_    0.199832 0.154767 0.778570 0.249779
H19   H     H_    0.168509 0.262832 0.563072 0.218244
H20   H     H_    0.234807 0.182475 0.531813 0.212782
H21   H     H_    0.725039 0.869664 0.522424 0.246646
H22   H     H_    0.789639 0.824276 0.615714 0.284493
H23   H     H_    0.053484 0.408276 0.159811 0.237076
H24   H     H_    0.792204 0.936930 0.474120 0.248197
H25   H     H_    0.829421 0.733340 0.389903 0.218528
H26   H     H_    0.764199 0.770634 0.301086 0.225982
H27   H     H_    0.946232 0.604799 0.836947 0.237934
H28   H     H_    0.211072 0.679915 0.427065 0.153276
H29   H     H_    0.790631 0.329412 0.575198 0.152145
H30   H     H_    0.327429 0.309158 0.575025 0.149855
H31   H     H_    0.670537 0.691558 0.419094 0.151981
H32   H     H_    0.594117 0.908156 0.440607 0.171681
N1    N     N_R   0.851166 0.521511 0.495373 -0.481777
N2    N     N_R   0.148524 0.489444 0.502079 -0.480116
N3    N     N_3   0.500040 0.499970 0.858290 -0.262133
N4    N     N_3   0.499960 0.500030 0.141710 -0.261823
O1    O     O_R   0.500030 0.316850 0.620870 -0.538095
O2    O     O_2   0.149479 0.425001 0.264765 -0.498814
O3    O     O_2   0.848351 0.456756 0.259561 -0.447320
O4    O     O_2   0.151359 0.555399 0.737475 -0.457234
O5    O     O_R   0.499970 0.683150 0.379130 -0.538227
O6    O     O_R   0.500000 0.316860 0.379090 -0.521113
O7    O     O_R   0.500000 0.683140 0.620910 -0.521581
O8    O     O_R   0.417890 0.499960 0.620920 -0.583764
O9    O     O_R   0.582110 0.500040 0.379080 -0.583520
O10   O     O_R   0.417870 0.499970 0.379140 -0.541742
O11   O     O_R   0.582130 0.500030 0.620860 -0.541974
O12   O     O_2   0.850192 0.586728 0.732409 -0.497104

loop_
_geom_bond_atom_site_label_1
_geom_bond_atom_site_label_2
_ccdc_geom_bond_type
C19   Cl4   S    
C43   H11   S    
C46   H18   S    
C8    H4    S    
C43   H10   S    
C23   C45   A    
C40   H9    S    
C27   C29   A    
C15   Cl8   S    
C27   N1    A    
Cu1   O11   S    
C1    O1    A    
C22   Cl5   S    
C19   N3    S    
C41   H5    S    
C14   Cl7   S    
C29   C36   A    
C33   C39   A    
C40   H8    S    
C24   N4    S    
C19   C21   S    
C16   C50   S    
C44   H20   S    
C17   O9    A    
C46   H17   S    
C11   C14   S    
Cu2   O10   S    
C34   H29   S    
C36   Cl1   S    
Cu2   N4    S    
C7    C14   S    
C20   N3    S    
C20   C24   S    
C49   C51   A    
C50   C52   A    
C31   C33   A    
Cu1   O7    S    
C16   O8    A    
C22   N3    S    
C21   C22   S    
C26   N2    A    
C17   C51   S    
Cu1   O1    S    
C44   C46   S    
C41   H6    S    
Cu2   O6    S    
C2    H31   S    
C43   H13   S    
C40   C45   S    
C37   C39   A    
Cu1   N3    S    
C3    C44   S    
C38   H23   S    
C32   C35   A    
C35   C38   A    
C12   O5    A    
C4    C6    A    
C44   H19   S    
C10   C14   S    
C46   H16   S    
Cu2   O9    S    
C21   H12   S    
C27   O3    S    
C48   H22   S    
C30   C37   A    
C47   H25   S    
C2    C4    A    
C28   O4    S    
C7    H3    S    
C47   C48   S    
C5    C23   A    
C3    C52   A    
C23   H28   S    
Cu1   O8    S    
C9    C11   S    
C1    O6    A    
C18   Cl3   S    
C37   Cl2   S    
C25   O12   S    
C24   Cl6   S    
C40   C41   S    
C25   N1    A    
C8    C15   S    
C13   C15   S    
C48   H24   S    
C52   H30   S    
C1    C13   S    
C42   C43   S    
C5    N2    S    
C41   H7    S    
Cu2   O5    S    
C7    C9    S    
C34   C49   A    
C18   C22   S    
C31   C32   A    
C10   H2    S    
C3    C5    A    
C10   C13   S    
C17   O11   A    
C11   C12   S    
C42   H14   S    
C48   H21   S    
C28   N2    A    
C47   H26   S    
C20   H1    S    
C28   C30   A    
C19   C24   S    
C9    C15   S    
C29   C31   A    
C30   C32   A    
C21   N4    S    
C12   O7    A    
C45   C50   A    
C8    C11   S    
C36   C38   A    
C18   C20   S    
Cu1   Cu2   S    
C2    C51   A    
C16   O10   A    
C42   C49   S    
C6    C34   A    
C26   C35   A    
C7    C13   S    
C42   H15   S    
C8    C10   S    
C6    N1    S    
C26   O2    S    
C18   N4    S    
C9    H32   S    
C39   H27   S    
C25   C33   A    
C4    C47   S    
