data_mof_unit_44073.cif
_audit_creation_date              2012-12-11T17:04:30-0500
_audit_creation_method            fapswitch 2.2
_symmetry_space_group_name_H-M    P1
_symmetry_Int_Tables_number       1
_space_group_crystal_system       triclinic
_cell_length_a                    17.412785
_cell_length_b                    24.392159
_cell_length_c                    15.015025
_cell_angle_alpha                 89.019363
_cell_angle_beta                  125.73004
_cell_angle_gamma                 90.888247
_cell_volume                      5176.16269698

loop_
_atom_site_label
_atom_site_type_symbol
_atom_type_description
_atom_site_fract_x
_atom_site_fract_y
_atom_site_fract_z
_atom_type_partial_charge
C1    C     C_R   0.807843 0.622479 0.905438 -0.227639
C2    C     C_R   0.035806 0.504317 0.710041 -0.223182
C3    C     C_R   0.768561 0.047612 0.248921 -0.097118
C4    C     C_R   0.811472 0.374033 0.909021 -0.198076
C5    C     C_R   0.154408 0.351047 0.091347 -0.292251
C6    C     C_R   0.311473 0.874032 0.909023 -0.198091
C7    C     C_R   0.654407 0.851046 0.091343 -0.292118
C8    C     C_R   0.900331 0.625454 0.088308 0.736205
C9    C     C_R   0.054644 0.654791 0.912130 0.864719
C10   C     C_R   0.400332 0.125452 0.088311 0.736199
C11   C     C_R   0.554647 0.154793 0.912134 0.864767
C12   C     C_R   0.811275 0.637574 0.995556 -0.152003
C13   C     C_R   0.576389 0.003984 0.372061 -0.332877
C14   C     C_R   0.116260 0.686264 0.003984 -0.159090
C15   C     C_R   0.311274 0.137571 0.995560 -0.152003
C16   C     C_R   0.616259 0.186263 0.003991 -0.159147
C17   C     C_3   0.478684 0.606631 0.342905 -0.405353
C18   C     C_3   0.570827 0.638042 0.388179 -0.885979
C19   C     C_3   0.527575 0.585334 0.595159 -0.432315
C20   C     C_3   0.431584 0.607372 0.558600 -0.828009
C21   C     C_3   0.978742 0.106545 0.342664 -0.405321
C22   C     C_3   0.070900 0.137923 0.387852 -0.885834
C23   C     C_3   0.027623 0.085474 0.594969 -0.432469
C24   C     C_R   0.535786 0.004319 0.710022 -0.223191
C25   C     C_3   0.931643 0.107536 0.558397 -0.828046
C26   C     C_3   0.323163 0.736159 0.316649 -0.318020
C27   C     C_3   0.273283 0.781405 0.334051 -0.813876
C28   C     C_3   0.766656 0.747360 0.779035 -0.286990
C29   C     C_3   0.854896 0.779653 0.866620 -0.811216
C30   C     C_3   0.823393 0.236035 0.316608 -0.318152
C31   C     C_3   0.773665 0.281283 0.334228 -0.814046
C32   C     C_3   0.266513 0.247323 0.778910 -0.287020
C33   C     C_3   0.354758 0.279630 0.866446 -0.811175
C34   C     C_3   0.113666 0.403706 0.370355 -0.251804
C35   C     C_R   0.687507 0.500812 0.644780 0.053730
C36   C     C_3   0.119368 0.359356 0.304456 -0.892338
C37   C     C_3   0.974309 0.405502 0.665542 -0.309680
C38   C     C_3   0.870984 0.390554 0.614045 -0.741215
C39   C     C_3   0.613630 0.903689 0.370316 -0.251798
C40   C     C_3   0.619515 0.859408 0.304440 -0.892084
C41   C     C_3   0.474283 0.905504 0.665523 -0.309636
C42   C     C_3   0.370966 0.890552 0.614062 -0.741223
C43   C     C_R   0.324437 0.502458 0.273954 0.036640
C44   C     C_R   0.187493 0.000814 0.644796 0.053778
C45   C     C_R   0.824436 0.002452 0.273937 0.036679
C46   C     C_3   0.525790 0.453057 0.500070 -0.171858
C47   C     C_3   0.500832 0.462466 0.383842 -0.160184
C48   C     C_3   0.025732 0.953085 0.500185 -0.171851
C49   C     C_R   0.146366 0.652986 0.093058 -0.284909
C50   C     C_3   0.000792 0.962396 0.383940 -0.160175
C51   C     C_3   0.448701 0.493536 0.475618 -0.177794
C52   C     C_3   0.573034 0.510815 0.426887 -0.185530
C53   C     C_3   0.948675 0.993619 0.475634 -0.177699
C54   C     C_3   0.073037 0.010719 0.426883 -0.185520
C55   C     C_3   0.424797 0.503303 0.360278 0.051978
C56   C     C_3   0.595366 0.501451 0.541184 0.060047
C57   C     C_3   0.924791 0.003288 0.360278 0.051961
C58   C     C_3   0.095353 0.001455 0.541198 0.060041
C59   C     C_3   0.495062 0.551477 0.401985 0.220686
C60   C     C_R   0.307841 0.122476 0.905442 -0.227614
C61   C     C_3   0.518575 0.541811 0.516764 0.223017
C62   C     C_3   0.995097 0.051437 0.401883 0.220583
C63   C     C_3   0.018594 0.041869 0.516682 0.223033
C64   C     C_R   0.770173 0.308767 0.107074 0.194716
C65   C     C_R   0.194518 0.270221 0.929841 0.086225
C66   C     C_R   0.270102 0.808804 0.107070 0.194475
C67   C     C_R   0.694570 0.770238 0.929882 0.086273
C68   C     C_R   0.742354 0.333875 0.007785 0.083265
C69   C     C_R   0.164931 0.271247 0.997873 0.105068
C70   C     C_R   0.242335 0.833884 0.007774 0.083276
C71   C     C_R   0.646358 0.152987 0.093062 -0.284933
C72   C     C_R   0.664944 0.771253 0.997875 0.105069
C73   C     C_R   0.651786 0.321981 0.913682 -0.231278
C74   C     C_R   0.190292 0.228578 0.073970 -0.211062
C75   C     C_R   0.151792 0.821970 0.913645 -0.231257
C76   C     C_R   0.690267 0.728574 0.073942 -0.211054
C77   C     C_R   0.898323 0.380946 0.089999 0.681317
C78   C     C_R   0.055761 0.349110 0.909787 0.681983
C79   C     C_R   0.398319 0.880948 0.089998 0.681091
C80   C     C_R   0.555768 0.849112 0.909784 0.681994
C81   C     C_R   0.100995 0.777249 0.914906 -0.167901
C82   C     C_R   0.812298 0.363347 0.000638 -0.106259
C83   C     C_R   0.734379 0.682196 0.070189 -0.107423
C84   C     C_R   0.600987 0.277263 0.914951 -0.167794
C85   C     C_R   0.234404 0.182200 0.070218 -0.107418
C86   C     C_R   0.140894 0.744493 0.010527 0.042799
C87   C     C_R   0.753317 0.679612 0.991279 0.031893
C88   C     C_R   0.640916 0.244488 0.010552 0.042748
C89   C     C_R   0.253308 0.179605 0.991281 0.031873
C90   C     C_R   0.219066 0.765725 0.109753 0.119905
C91   C     C_R   0.739255 0.725744 0.927712 0.173662
C92   C     C_R   0.719142 0.265690 0.109770 0.119902
C93   C     C_R   0.124192 0.320671 0.000522 -0.055472
C94   C     C_R   0.239206 0.225727 0.927673 0.173671
C95   C     C_3   0.308424 0.738388 0.204066 -0.072237
C96   C     C_3   0.696248 0.733572 0.807668 -0.040184
C97   C     C_3   0.808517 0.238314 0.203958 -0.071892
C98   C     C_3   0.196152 0.233535 0.807612 -0.040238
C99   C     C_3   0.863400 0.284677 0.197031 -0.482267
C100  C     C_3   0.145929 0.283099 0.810740 -0.556908
C101  C     C_3   0.363320 0.784752 0.197158 -0.481631
C102  C     C_3   0.646027 0.783137 0.810797 -0.557007
C103  C     C_R   0.044972 0.555554 0.576235 0.242553
C104  C     C_R   0.312296 0.863347 0.000641 -0.106195
C105  C     C_R   0.057811 0.555857 0.494859 0.208433
C106  C     C_R   0.545035 0.055565 0.576279 0.242477
C107  C     C_R   0.557881 0.055862 0.494908 0.208338
C108  C     C_R   0.072934 0.510545 0.646414 0.074626
C109  C     C_R   0.099314 0.511127 0.481307 0.103906
C110  C     C_R   0.572939 0.010545 0.646421 0.074667
C111  C     C_R   0.599333 0.011114 0.481323 0.103900
C112  C     C_R   0.133365 0.471811 0.650227 -0.231739
C113  C     C_R   0.147316 0.472266 0.567506 -0.224859
C114  C     C_R   0.633331 0.971790 0.650215 -0.231777
C115  C     C_R   0.624196 0.820673 0.000520 -0.055547
C116  C     C_R   0.647281 0.972235 0.567496 -0.224827
C117  C     C_3   0.963760 0.582524 0.414922 -0.465005
C118  C     C_3   0.950033 0.582027 0.505279 -0.495335
C119  C     C_3   0.463865 0.082566 0.414989 -0.464876
C120  C     C_3   0.450132 0.082076 0.505340 -0.495282
C121  C     C_R   0.055653 0.547444 0.303937 0.771680
C122  C     C_R   0.014535 0.548001 0.747361 0.704853
C123  C     C_R   0.555667 0.047440 0.303946 0.771652
C124  C     C_R   0.514525 0.048003 0.747351 0.704867
C125  C     C_R   0.737879 0.454965 0.702349 -0.139421
C126  C     C_R   0.076375 0.503991 0.372052 -0.332924
C127  C     C_R   0.269123 0.455815 0.248594 -0.128339
C128  C     C_R   0.237872 0.954966 0.702354 -0.139442
C129  C     C_R   0.769119 0.955813 0.248582 -0.128459
C130  C     C_R   0.062972 0.457018 0.312886 0.301121
C131  C     C_R   0.003585 0.456994 0.732200 0.088413
C132  C     C_R   0.562978 0.957014 0.312884 0.301068
C133  C     C_R   0.503571 0.956995 0.732187 0.088409
C134  C     C_R   0.739682 0.546451 0.699527 -0.146055
C135  C     C_R   0.268558 0.547615 0.248927 -0.097147
C136  C     C_R   0.239678 0.046452 0.699535 -0.146088
F1    F     F_    0.915710 0.391036 0.188341 -0.749601
F2    F     F_    0.985744 0.675404 0.812119 -0.700969
F3    F     F_    0.436773 0.142275 0.191275 -0.694934
F4    F     F_    0.485758 0.175409 0.812121 -0.700940
F5    F     F_    0.983009 0.323794 0.819108 -0.738667
F6    F     F_    0.415724 0.891030 0.188351 -0.749656
F7    F     F_    0.483024 0.823795 0.819100 -0.738661
F8    F     F_    0.092518 0.598461 0.339152 -0.664785
F9    F     F_    0.031225 0.601326 0.738230 -0.694463
F10   F     F_    0.592540 0.098455 0.339163 -0.664813
F11   F     F_    0.531232 0.101325 0.738242 -0.694482
F12   F     F_    0.936770 0.642282 0.191269 -0.694902
H1    H     H_    0.749515 0.627370 0.820573 0.131372
H2    H     H_    0.174236 0.230637 0.133494 0.139744
H3    H     H_    0.188691 0.414643 0.433999 0.147843
H4    H     H_    0.082047 0.385490 0.410481 0.196376
H5    H     H_    0.858483 0.384185 0.677871 0.284686
H6    H     H_    0.824027 0.423838 0.557475 0.218829
H7    H     H_    0.852462 0.352160 0.566708 0.240235
H8    H     H_    0.980977 0.411380 0.596865 0.182345
H9    H     H_    0.022379 0.371856 0.715802 0.208229
H10   H     H_    0.552353 0.836891 0.250554 0.275193
H11   H     H_    0.644984 0.877174 0.258639 0.254817
H12   H     H_    0.672229 0.828426 0.362099 0.229496
H13   H     H_    0.125255 0.842568 0.836414 0.142038
H14   H     H_    0.688631 0.914616 0.434079 0.147844
H15   H     H_    0.581896 0.885423 0.410277 0.196458
H16   H     H_    0.358488 0.884184 0.677906 0.284693
H17   H     H_    0.323996 0.923834 0.557494 0.218807
H18   H     H_    0.352438 0.852157 0.566727 0.240237
H19   H     H_    0.480921 0.911388 0.596824 0.182332
H20   H     H_    0.522365 0.871860 0.715769 0.208231
H21   H     H_    0.674181 0.730624 0.133439 0.139745
H22   H     H_    0.037020 0.765334 0.837794 0.205912
H23   H     H_    0.753264 0.648701 0.127684 0.152929
H24   H     H_    0.536980 0.265364 0.837856 0.205852
H25   H     H_    0.253317 0.148713 0.127739 0.152963
H26   H     H_    0.322954 0.698530 0.181827 0.130374
H27   H     H_    0.645309 0.700425 0.755909 0.108573
H28   H     H_    0.822960 0.198466 0.181599 0.130379
H29   H     H_    0.176267 0.666521 0.174814 0.179318
H30   H     H_    0.145219 0.200378 0.755894 0.108608
H31   H     H_    0.905612 0.271011 0.167640 0.158809
H32   H     H_    0.068209 0.276533 0.760868 0.239832
H33   H     H_    0.405626 0.771077 0.167896 0.158833
H34   H     H_    0.568303 0.776582 0.760889 0.239804
H35   H     H_    0.903217 0.310549 0.271515 0.248881
H36   H     H_    0.168969 0.323210 0.797266 0.184251
H37   H     H_    0.403047 0.810656 0.271604 0.248856
H38   H     H_    0.669094 0.823251 0.797367 0.184264
H39   H     H_    0.162437 0.438841 0.710458 0.138484
H40   H     H_    0.249509 0.127360 0.820578 0.131381
H41   H     H_    0.189400 0.440074 0.569012 0.129233
H42   H     H_    0.662362 0.938809 0.710421 0.138471
H43   H     H_    0.689318 0.940017 0.568994 0.129226
H44   H     H_    0.912549 0.555604 0.345175 0.191078
H45   H     H_    0.949544 0.623882 0.533048 0.257976
H46   H     H_    0.412623 0.055669 0.345220 0.191073
H47   H     H_    0.449693 0.123932 0.533140 0.258006
H48   H     H_    0.971216 0.624647 0.391321 0.274911
H49   H     H_    0.891414 0.554584 0.488519 0.188661
H50   H     H_    0.471373 0.124686 0.391424 0.274935
H51   H     H_    0.676240 0.166527 0.174813 0.179370
H52   H     H_    0.391478 0.054659 0.488554 0.188664
H53   H     H_    0.721794 0.413176 0.673709 0.101328
H54   H     H_    0.293105 0.413894 0.266616 0.112593
H55   H     H_    0.221782 0.913178 0.673710 0.101341
H56   H     H_    0.793100 0.913891 0.266600 0.112528
H57   H     H_    0.726583 0.588140 0.668662 0.100124
H58   H     H_    0.289602 0.590094 0.264999 0.090018
H59   H     H_    0.226586 0.088141 0.668667 0.100113
H60   H     H_    0.789617 0.090090 0.265003 0.089988
H61   H     H_    0.754492 0.365765 0.824739 0.140558
H62   H     H_    0.539629 0.412795 0.542307 0.127714
H63   H     H_    0.202151 0.337606 0.175645 0.145056
H64   H     H_    0.254494 0.865766 0.824740 0.140540
H65   H     H_    0.702154 0.837602 0.175637 0.145053
H66   H     H_    0.396203 0.485702 0.493946 0.132922
H67   H     H_    0.627179 0.516954 0.410721 0.129517
H68   H     H_    0.896162 0.985859 0.493965 0.132967
H69   H     H_    0.127191 0.016787 0.410710 0.129495
H70   H     H_    0.610006 0.644259 0.477771 0.249604
H71   H     H_    0.616306 0.615544 0.371913 0.257165
H72   H     H_    0.554620 0.678841 0.347194 0.252940
H73   H     H_    0.491153 0.430235 0.326739 0.132360
H74   H     H_    0.443184 0.599209 0.254148 0.196352
H75   H     H_    0.432120 0.632477 0.352068 0.183761
H76   H     H_    0.391996 0.623898 0.473738 0.242952
H77   H     H_    0.388835 0.574477 0.562507 0.259406
H78   H     H_    0.442257 0.640871 0.614039 0.255705
H79   H     H_    0.562841 0.566885 0.678368 0.203533
H80   H     H_    0.571949 0.619952 0.600301 0.184766
H81   H     H_    0.110082 0.144208 0.477429 0.249604
H82   H     H_    0.116371 0.115357 0.371652 0.257138
H83   H     H_    0.054714 0.178692 0.346751 0.252919
H84   H     H_    0.039535 0.912852 0.542513 0.127700
H85   H     H_    0.943231 0.099059 0.253923 0.196372
H86   H     H_    0.932194 0.132441 0.351770 0.183750
H87   H     H_    0.891993 0.123950 0.473450 0.242920
H88   H     H_    0.888949 0.074682 0.562518 0.259453
H89   H     H_    0.942332 0.141122 0.613687 0.255675
H90   H     H_    0.062921 0.067092 0.678240 0.203530
H91   H     H_    0.071974 0.120070 0.599976 0.184789
H92   H     H_    0.296975 0.822574 0.326215 0.252469
H93   H     H_    0.195366 0.777682 0.273628 0.259130
H94   H     H_    0.290535 0.777250 0.417664 0.244575
H95   H     H_    0.991088 0.930110 0.326912 0.132349
H96   H     H_    0.299475 0.695973 0.328102 0.176551
H97   H     H_    0.400258 0.738371 0.383246 0.195592
H98   H     H_    0.835357 0.818131 0.886951 0.241225
H99   H     H_    0.899692 0.754337 0.942173 0.256045
H100  H     H_    0.897077 0.790583 0.835090 0.245026
H101  H     H_    0.790139 0.708661 0.764296 0.204277
H102  H     H_    0.728791 0.771019 0.700644 0.185465
H103  H     H_    0.797322 0.322449 0.326342 0.252559
H104  H     H_    0.695738 0.277575 0.273959 0.259165
H105  H     H_    0.791082 0.277116 0.417905 0.244595
H106  H     H_    0.625223 0.342597 0.836460 0.142048
H107  H     H_    0.799674 0.195851 0.328018 0.176467
H108  H     H_    0.900511 0.238199 0.383122 0.195666
H109  H     H_    0.335225 0.318108 0.886784 0.241210
H110  H     H_    0.399587 0.254322 0.942005 0.256054
H111  H     H_    0.396900 0.290560 0.834867 0.245006
H112  H     H_    0.289993 0.208626 0.764164 0.204211
H113  H     H_    0.228612 0.270974 0.700508 0.185470
H114  H     H_    0.052235 0.336763 0.250965 0.275280
H115  H     H_    0.144458 0.377061 0.258243 0.254986
H116  H     H_    0.172276 0.328454 0.362099 0.229495
N1    N     N_R   0.892620 0.603790 0.941770 -0.076847
N2    N     N_R   0.973690 0.529110 0.793240 -0.123528
N3    N     N_R   0.526310 0.029110 0.206760 -0.144285
N4    N     N_R   0.473690 0.029110 0.793240 -0.123532
N5    N     N_R   0.818570 0.472310 0.793020 -0.038724
N6    N     N_R   0.181430 0.472310 0.206980 -0.055137
N7    N     N_R   0.318570 0.972310 0.793020 -0.038724
N8    N     N_R   0.681430 0.972310 0.206980 -0.055138
N9    N     N_R   0.026930 0.472300 0.207330 -0.083274
N10   N     N_R   0.973070 0.472300 0.792670 -0.089398
N11   N     N_R   0.526930 0.972300 0.207330 -0.083217
N12   N     N_R   0.107380 0.603790 0.058230 -0.082014
N13   N     N_R   0.473070 0.972300 0.792670 -0.089402
N14   N     N_R   0.817960 0.529130 0.792460 -0.037297
N15   N     N_R   0.182040 0.529130 0.207540 -0.041632
N16   N     N_R   0.317960 0.029130 0.792460 -0.037295
N17   N     N_R   0.682040 0.029130 0.207540 -0.041613
N18   N     N_R   0.894850 0.397640 0.943830 -0.063424
N19   N     N_R   0.105150 0.397640 0.056170 -0.071779
N20   N     N_R   0.394850 0.897640 0.943830 -0.063422
N21   N     N_R   0.605150 0.897640 0.056170 -0.071718
N22   N     N_R   0.950040 0.603780 0.055950 -0.108998
N23   N     N_R   0.392620 0.103790 0.941770 -0.076853
N24   N     N_R   0.049960 0.603780 0.944050 -0.117774
N25   N     N_R   0.450040 0.103780 0.055950 -0.108996
N26   N     N_R   0.549960 0.103780 0.944050 -0.117776
N27   N     N_R   0.607380 0.103790 0.058230 -0.082017
N28   N     N_R   0.952270 0.397640 0.058010 -0.102933
N29   N     N_R   0.047730 0.397640 0.941990 -0.100198
N30   N     N_R   0.452270 0.897640 0.058010 -0.102902
N31   N     N_R   0.547730 0.897640 0.941990 -0.100208
N32   N     N_R   0.026310 0.529110 0.206760 -0.144301
Ni1   Ni    Ni4+2 0.934160 0.565860 0.869070 0.255515
Ni2   Ni    Ni4+2 0.065840 0.565860 0.130930 0.260894
Ni3   Ni    Ni4+2 0.434160 0.065860 0.869070 0.255512
Ni4   Ni    Ni4+2 0.565840 0.065860 0.130930 0.260924
Ni5   Ni    Ni4+2 0.067260 0.435560 0.132230 0.194386
Ni6   Ni    Ni4+2 0.932740 0.435560 0.867770 0.227912
Ni7   Ni    Ni4+2 0.567260 0.935560 0.132230 0.194380
Ni8   Ni    Ni4+2 0.432740 0.935560 0.867770 0.227910

loop_
_geom_bond_atom_site_label_1
_geom_bond_atom_site_label_2
_ccdc_geom_bond_type
C114  H42   S    
C55   C59   S    
C19   C20   S    
C66   C101  S    
C90   C95   S    
C30   C97   S    
C45   C57   S    
C102  H38   S    
N15   Ni2   S    
N4    Ni3   S    
C96   C102  S    
N5    Ni6   S    
C79   F6    S    
C106  C107  A    
C133  N13   A    
C89   C94   A    
C28   H101  S    
C91   C96   S    
C129  H56   S    
C127  N6    A    
C83   H23   S    
N23   N25   A    
C6    C104  A    
C81   C86   A    
C8    N22   A    
N19   Ni5   S    
C48   C50   S    
C60   H40   S    
C21   C22   S    
C16   C71   A    
C112  H39   S    
N10   Ni6   S    
C35   C134  A    
C27   H92   S    
C49   H29   S    
C124  F11   S    
N20   Ni8   S    
C87   C91   A    
C102  H34   S    
C24   C110  S    
C86   C90   A    
C78   F5    S    
C43   C127  A    
C134  H57   S    
C46   H62   S    
N4    N13   A    
C124  N4    A    
C52   H67   S    
C128  H55   S    
N6    N15   A    
C11   F4    S    
C37   C38   S    
C117  H44   S    
C9    F2    S    
C21   H86   S    
C22   H82   S    
C25   H89   S    
N3    N11   A    
N21   N31   A    
C2    C131  A    
C20   H76   S    
C31   H103  S    
C69   C74   A    
C130  N9    A    
C48   C58   S    
C21   C62   S    
C135  H58   S    
N18   N28   A    
C53   H68   S    
C27   H94   S    
C50   C57   S    
C84   C88   A    
C136  H59   S    
C47   C52   S    
C69   C93   S    
C28   C96   S    
C66   C70   A    
C77   C82   A    
C19   C61   S    
C2    C108  S    
C13   C132  A    
C32   C98   S    
C51   C55   S    
N18   Ni6   S    
C73   H106  S    
C33   H109  S    
C94   C98   S    
C96   H27   S    
C119  H50   S    
C29   H98   S    
C40   H11   S    
C18   H72   S    
C41   C133  S    
C72   C115  S    
C64   C68   A    
C42   H16   S    
C20   H78   S    
C67   C72   A    
C37   H9    S    
C35   C125  A    
C118  H45   S    
C19   H79   S    
C64   C99   S    
C4    N18   A    
C98   H30   S    
C110  C114  A    
C99   H35   S    
C42   H17   S    
N13   Ni8   S    
C47   H73   S    
C37   H8    S    
C1    C12   A    
C38   H7    S    
C101  H37   S    
N17   Ni4   S    
C121  F8    S    
C92   C97   S    
N6    Ni5   S    
C48   C53   S    
C59   C61   S    
C36   H115  S    
C32   H112  S    
C14   C86   S    
C50   H95   S    
C39   C40   S    
C23   H90   S    
C34   H4    S    
C78   N29   A    
C46   C51   S    
C4    H61   S    
C37   C131  S    
C17   H75   S    
C15   C89   S    
N20   N30   A    
C8    C12   A    
C33   H111  S    
C17   C18   S    
N28   Ni5   S    
C103  C105  A    
C39   H14   S    
N27   Ni4   S    
C51   H66   S    
C43   C55   S    
C29   H100  S    
C30   H108  S    
C100  H32   S    
C101  H33   S    
C122  N2    A    
C105  C109  A    
C35   C56   S    
C107  C111  A    
C84   H24   S    
N12   Ni2   S    
C75   H13   S    
C68   C82   S    
C13   C111  S    
C117  C118  S    
C53   C63   S    
N19   N29   A    
N32   Ni2   S    
C34   C36   S    
C74   C85   A    
C32   H113  S    
C127  H54   S    
C28   H102  S    
C109  C126  S    
C46   C56   S    
C70   C75   A    
C38   H5    S    
C95   C101  S    
C18   H70   S    
C44   C136  A    
C83   C87   A    
C45   C129  A    
C41   C42   S    
C77   N28   A    
C66   C90   A    
C125  H53   S    
C26   C27   S    
C50   C54   S    
N23   Ni3   S    
N21   Ni7   S    
C135  N15   A    
C40   H10   S    
C28   C29   S    
C136  N16   A    
C77   F1    S    
C54   C58   S    
C30   C31   S    
C13   C123  A    
C70   C104  S    
C126  C130  A    
C41   H20   S    
C58   C63   S    
C76   C83   A    
N26   N27   A    
C15   C60   A    
C21   H85   S    
C22   H83   S    
C25   H88   S    
C44   C58   S    
N24   Ni1   S    
C1    H1    S    
C111  C116  A    
C9    N24   A    
C23   C63   S    
N2    Ni1   S    
C105  C117  S    
C8    F12   S    
N7    Ni8   S    
C27   H93   S    
C107  C119  S    
C2    C122  A    
C5    H63   S    
C120  H47   S    
C31   H105  S    
C134  N14   A    
C131  N10   A    
C85   C89   A    
C54   C62   S    
C132  N11   A    
C3    C45   A    
C108  C112  A    
C36   H114  S    
C9    C14   A    
C99   H31   S    
C62   C63   S    
C7    N21   A    
C23   H91   S    
C11   C16   A    
C80   N31   A    
C114  C116  A    
C80   C115  A    
C67   C91   A    
C81   H22   S    
N7    N16   A    
C116  H43   S    
C98   C100  S    
C103  C118  S    
C10   F3    S    
C64   C92   A    
C39   H15   S    
C54   H69   S    
N12   N24   A    
N8    N17   A    
C46   C47   S    
C53   C57   S    
C40   H12   S    
C65   C100  S    
C119  C120  S    
C71   H51   S    
C113  H41   S    
N1    Ni1   S    
C60   N23   A    
C32   C33   S    
C129  N8    A    
C22   H81   S    
N2    N10   A    
C65   C69   A    
C120  H52   S    
C31   H104  S    
C26   H96   S    
C76   H21   S    
C100  H36   S    
N14   Ni1   S    
C123  N3    A    
C16   C88   S    
N16   Ni3   S    
C56   C61   S    
N9    N32   A    
C42   H18   S    
C24   C133  A    
C51   C61   S    
C72   C76   A    
C57   C62   S    
C3    H60   S    
C36   H116  S    
C95   H26   S    
N9    Ni5   S    
C10   C15   A    
C79   N30   A    
N11   Ni7   S    
C14   C49   A    
C6    H64   S    
C39   C132  S    
C78   C93   A    
C24   C124  A    
C122  F9    S    
C7    C115  A    
C17   H74   S    
C88   C92   A    
C49   N12   A    
C33   H110  S    
C85   H25   S    
C123  F10   S    
C103  C108  A    
C73   C84   A    
C26   H97   S    
C109  C113  A    
C97   H28   S    
C29   H99   S    
C71   N27   A    
C18   H71   S    
N8    Ni7   S    
C112  C113  A    
C97   C99   S    
C10   N25   A    
C11   N26   A    
C74   H2    S    
C75   C81   A    
C68   C73   A    
C20   H77   S    
C125  N5    A    
C19   H80   S    
C52   C59   S    
C80   F7    S    
N30   Ni7   S    
C1    N1    A    
N3    Ni4   S    
C43   C135  A    
C34   C130  S    
C7    H65   S    
N1    N22   A    
C17   C59   S    
C65   C94   A    
C128  N7    A    
C79   C104  A    
C38   H6    S    
C47   C55   S    
C106  C110  A    
C26   C95   S    
C44   C128  A    
C12   C87   S    
C106  C120  S    
C5    N19   A    
N25   Ni4   S    
C6    N20   A    
N26   Ni3   S    
C5    C93   A    
C34   H3    S    
C119  H46   S    
C121  C126  A    
C117  H48   S    
C41   H19   S    
N5    N14   A    
C23   C25   S    
C48   H84   S    
C3    N17   A    
C4    C82   A    
C25   H87   S    
C121  N32   A    
C30   H107  S    
N22   Ni2   S    
N29   Ni6   S    
C118  H49   S    
C52   C56   S    
C67   C102  S    
N31   Ni8   S    
