data_mof_unit_12781.cif
_audit_creation_date              2012-12-10T17:55:03-0500
_audit_creation_method            fapswitch 2.2
_symmetry_space_group_name_H-M    P1
_symmetry_Int_Tables_number       1
_space_group_crystal_system       triclinic
_cell_length_a                    8.733714
_cell_length_b                    10.797851
_cell_length_c                    9.529751
_cell_angle_alpha                 89.916528
_cell_angle_beta                  97.953737
_cell_angle_gamma                 90.198457
_cell_volume                      890.055210745

loop_
_atom_site_label
_atom_site_type_symbol
_atom_type_description
_atom_site_fract_x
_atom_site_fract_y
_atom_site_fract_z
_atom_type_partial_charge
C1    C     C_R   0.504467 0.262368 0.500659 0.798790
C2    C     C_R   0.495533 0.737632 0.499341 0.798790
C3    C     C_R   0.203758 0.499951 0.463724 0.873266
C4    C     C_R   0.796242 0.500049 0.536276 0.873265
C5    C     C_2   0.037899 0.500000 0.443770 -0.360739
C6    C     C_2   0.962101 0.500000 0.556230 -0.360739
C7    C     C_R   0.598147 0.061271 0.416049 0.422477
C8    C     C_R   0.401853 0.938729 0.583951 0.422476
C9    C     C_R   0.586351 0.933263 0.413288 -0.201932
C10   C     C_R   0.413649 0.066737 0.586712 -0.201932
C11   C     C_R   0.491809 0.871509 0.498028 -0.215921
C12   C     C_R   0.508191 0.128491 0.501972 -0.215921
C13   C     C_R   0.399097 0.426983 0.061659 0.005252
C14   C     C_R   0.600903 0.573017 0.938341 0.005252
C15   C     C_R   0.399127 0.427017 0.912916 -0.010683
C16   C     C_R   0.600873 0.572983 0.087084 -0.010683
Cu1   Cu    Cu3+1 0.500000 0.500020 0.640660 0.958382
Cu2   Cu    Cu3+1 0.500000 0.499980 0.359340 0.958381
H1    H     H_    0.977918 0.500057 0.335893 0.176567
H2    H     H_    0.022082 0.499943 0.664107 0.176567
H3    H     H_    0.656702 0.881387 0.348837 0.178578
H4    H     H_    0.343298 0.118613 0.651163 0.178578
H5    H     H_    0.318383 0.368315 0.107465 0.129395
H6    H     H_    0.681617 0.631685 0.892535 0.129395
H7    H     H_    0.318424 0.368369 0.846772 0.122765
H8    H     H_    0.681575 0.631631 0.153228 0.122765
N1    N     N_R   0.500040 0.500030 0.852080 -0.164924
N2    N     N_R   0.499960 0.499970 0.147920 -0.164924
O1    O     O_R   0.499990 0.319660 0.618740 -0.581344
O2    O     O_R   0.500010 0.680340 0.381260 -0.581344
O3    O     O_R   0.499990 0.319630 0.381170 -0.569640
O4    O     O_R   0.500010 0.680370 0.618830 -0.569640
O5    O     O_R   0.274840 0.500010 0.591370 -0.585753
O6    O     O_R   0.725160 0.499990 0.408630 -0.585753
O7    O     O_R   0.274830 0.499980 0.353800 -0.587555
O8    O     O_R   0.725170 0.500020 0.646200 -0.587555
O9    O     O_3   0.701410 0.115652 0.337088 -0.714181
H9    H     H_    0.733206 0.197404 0.378203 0.327200
O10   O     O_3   0.298590 0.884348 0.662912 -0.714181
H10   H     H_    0.266794 0.802596 0.621797 0.327200

loop_
_geom_bond_atom_site_label_1
_geom_bond_atom_site_label_2
_ccdc_geom_bond_type
C16   N2    A    
C4    O8    A    
C13   N2    A    
O9    H9    S    
C5    H1    S    
C8    O10   S    
C14   N1    A    
C6    H2    S    
Cu2   O7    S    
C15   N1    A    
C13   C15   A    
C3    O7    A    
C2    O2    A    
C1    O1    A    
Cu1   Cu2   S    
C7    O9    S    
Cu2   N2    S    
C10   H4    S    
C9    C11   A    
C9    H3    S    
C5    C6    D    
C1    C12   S    
Cu1   O5    S    
C8    C11   A    
Cu2   O2    S    
C2    C11   S    
C10   C12   A    
C4    C6    S    
Cu1   O8    S    
C14   C16   A    
Cu2   O6    S    
C16   H8    S    
C7    C12   A    
C4    O6    A    
C15   H7    S    
C3    O5    A    
Cu1   N1    S    
C1    O3    A    
Cu1   O1    S    
C13   H5    S    
C2    O4    A    
C14   H6    S    
O10   H10   S    
C7    C9    A    
Cu1   O4    S    
Cu2   O3    S    
C8    C10   A    
C3    C5    S    
