data_mof_unit_7818.cif
_audit_creation_date              2012-12-11T15:16:36-0500
_audit_creation_method            fapswitch 2.2
_symmetry_space_group_name_H-M    P1
_symmetry_Int_Tables_number       1
_space_group_crystal_system       triclinic
_cell_length_a                    25.127108
_cell_length_b                    7.236192
_cell_length_c                    21.940796
_cell_angle_alpha                 90.001369
_cell_angle_beta                  110.309579
_cell_angle_gamma                 90.004539
_cell_volume                      3741.36011622

loop_
_atom_site_label
_atom_site_type_symbol
_atom_type_description
_atom_site_fract_x
_atom_site_fract_y
_atom_site_fract_z
_atom_type_partial_charge
O1    O     O_R   0.554350 0.505270 0.581390 -0.531380
O2    O     O_R   0.445650 0.005270 0.418610 -0.531411
O3    O     O_R   0.553380 0.177580 0.454800 -0.540693
O4    O     O_R   0.446620 0.677580 0.545200 -0.540689
C1    C     C_R   0.565613 0.344721 0.438070 0.689204
C2    C     C_R   0.434387 0.844716 0.561930 0.689230
O5    O     O_R   0.560970 0.175640 0.583140 -0.533318
O6    O     O_R   0.439030 0.675640 0.416860 -0.533308
O7    O     O_R   0.453290 0.004120 0.547860 -0.538836
O8    O     O_R   0.546710 0.504120 0.452140 -0.538815
C3    C     C_R   0.576087 0.343908 0.607551 0.677438
C4    C     C_R   0.423910 0.843888 0.392448 0.677411
O9    O     O_3   0.464660 0.338800 0.488280 -0.372848
O10   O     O_3   0.535340 0.838800 0.511720 -0.372825
V1    V     V_3+5 0.506560 0.064420 0.502170 1.415725
V2    V     V_3+5 0.493440 0.564420 0.497830 1.415786
C5    C     C_R   0.147429 0.983123 0.289594 0.092402
C6    C     C_R   0.852654 0.481445 0.710349 0.092443
H1    H     H_    0.235222 0.979369 0.402602 0.173888
H2    H     H_    0.764898 0.476877 0.597309 0.173897
C7    C     C_R   0.120408 0.942727 0.172806 -0.179622
C8    C     C_R   0.879596 0.442579 0.827196 -0.179593
C9    C     C_R   0.396160 0.813182 0.273843 -0.161873
C10   C     C_R   0.603784 0.314259 0.726186 -0.161910
C11   C     C_R   0.356533 0.810371 0.211198 -0.120379
C12   C     C_R   0.643388 0.311899 0.788849 -0.120373
C13   C     C_R   0.299266 0.842436 0.200273 -0.151895
C14   C     C_R   0.700677 0.343552 0.799761 -0.151870
C15   C     C_R   0.279807 0.878962 0.252373 0.112546
C16   C     C_R   0.720182 0.379159 0.747631 0.112528
C17   C     C_R   0.321057 0.883492 0.316766 0.067308
C18   C     C_R   0.678960 0.383161 0.683216 0.067272
C19   C     C_R   0.220924 0.910793 0.242654 0.037537
C20   C     C_R   0.779084 0.410598 0.757341 0.037560
C21   C     C_R   0.204889 0.948423 0.297639 0.057017
C22   C     C_R   0.795170 0.447222 0.702319 0.056961
C23   C     C_R   0.246412 0.951633 0.360060 -0.123983
C24   C     C_R   0.753673 0.449910 0.639875 -0.123959
C25   C     C_R   0.303202 0.919459 0.369458 -0.216697
C26   C     C_R   0.696860 0.418184 0.630492 -0.216592
C27   C     C_R   0.177326 0.907280 0.180320 -0.323750
C28   C     C_R   0.822654 0.407618 0.819700 -0.323729
C29   C     C_R   0.105857 0.981152 0.227379 0.571673
C30   C     C_R   0.894199 0.480009 0.772588 0.571616
C31   C     C_R   0.379421 0.849986 0.327063 -0.078540
C32   C     C_R   0.620571 0.350126 0.672936 -0.078470
H3    H     H_    0.186088 0.879785 0.136480 0.128981
H4    H     H_    0.813858 0.380848 0.863563 0.128916
H5    H     H_    0.440333 0.786111 0.280922 0.105107
H6    H     H_    0.559589 0.287604 0.719118 0.105068
H7    H     H_    0.271391 0.837442 0.150362 0.111752
H8    H     H_    0.728531 0.338983 0.849688 0.111745
H9    H     H_    0.370315 0.782149 0.170531 0.127002
H10   H     H_    0.629573 0.284412 0.829538 0.126997
H11   H     H_    0.333200 0.923418 0.418750 0.114639
H12   H     H_    0.666882 0.421718 0.581183 0.114476
C33   C     C_R   0.120062 0.764044 0.881439 -0.198381
C34   C     C_R   0.879962 0.264037 0.118594 -0.198234
H13   H     H_    0.104628 0.636729 0.895263 0.161251
H14   H     H_    0.895414 0.136726 0.104795 0.161252
C35   C     C_R   0.155662 0.752334 0.844595 0.650857
C36   C     C_R   0.844362 0.252328 0.155439 0.650822
C37   C     C_R   0.176801 0.913750 0.824948 -0.124448
C38   C     C_R   0.823201 0.413743 0.175054 -0.124419
C39   C     C_R   0.161197 0.085989 0.843569 -0.178179
C40   C     C_R   0.838783 0.585977 0.156402 -0.178196
H15   H     H_    0.176570 0.213106 0.829646 0.233775
H16   H     H_    0.823392 0.713092 0.170299 0.233750
C41   C     C_R   0.125604 0.097267 0.880474 -0.128942
C42   C     C_R   0.874377 0.597254 0.119497 -0.129125
H17   H     H_    0.114588 0.232626 0.893503 0.166706
H18   H     H_    0.885374 0.732610 0.106443 0.166641
C43   C     C_R   0.104415 0.936357 0.899909 -0.144947
C44   C     C_R   0.895587 0.436346 0.100093 -0.144893
N1    N     N_R   0.231450 0.062100 0.763316 -0.264674
N2    N     N_R   0.768545 0.562104 0.236671 -0.264665
N3    N     N_R   0.265639 0.055278 0.728542 -0.222546
N4    N     N_R   0.734356 0.555287 0.271446 -0.222542
C45   C     C_R   0.285041 0.891238 0.714404 0.498997
C46   C     C_R   0.714960 0.391244 0.285597 0.498995
N5    N     N_R   0.267998 0.733889 0.736125 -0.274342
N6    N     N_R   0.732009 0.233889 0.263890 -0.274340
N7    N     N_R   0.233743 0.740673 0.770873 -0.176593
N8    N     N_R   0.766264 0.240668 0.229142 -0.176597
C47   C     C_R   0.214767 0.904959 0.785484 0.547043
C48   C     C_R   0.785234 0.404956 0.214517 0.547035
C49   C     C_R   0.329783 0.715577 0.645938 -0.177543
C50   C     C_R   0.670219 0.215597 0.354069 -0.177553
H19   H     H_    0.306356 0.593982 0.650546 0.176974
H20   H     H_    0.693646 0.094011 0.349465 0.176972
C51   C     C_R   0.365447 0.702215 0.609195 -0.174146
C52   C     C_R   0.634555 0.202236 0.390812 -0.174190
H21   H     H_    0.368688 0.570899 0.587063 0.136189
H22   H     H_    0.631315 0.070928 0.412948 0.136204
C53   C     C_R   0.396013 0.856502 0.600670 -0.077436
C54   C     C_R   0.603988 0.356512 0.399332 -0.077437
C55   C     C_R   0.390318 0.024061 0.630369 -0.191152
C56   C     C_R   0.609683 0.524062 0.369628 -0.191140
H23   H     H_    0.414188 0.144124 0.625295 0.120813
H24   H     H_    0.585812 0.644116 0.374699 0.120810
C57   C     C_R   0.355209 0.038829 0.668170 0.221374
C58   C     C_R   0.644792 0.538829 0.331827 0.221372
C59   C     C_R   0.323804 0.882997 0.675777 0.011932
C60   C     C_R   0.676197 0.383006 0.324224 0.011940
O11   O     O_R   0.953220 0.285790 0.047790 -0.533943
O12   O     O_R   0.046780 0.785790 0.952210 -0.533994
O13   O     O_R   0.939020 0.617570 0.916840 -0.530597
O14   O     O_R   0.060980 0.117570 0.083160 -0.530486
C61   C     C_R   0.923986 0.448734 0.892434 0.777295
C62   C     C_R   0.076013 0.948755 0.107568 0.777267
O15   O     O_R   0.946600 0.615450 0.045180 -0.543579
O16   O     O_R   0.053400 0.115450 0.954820 -0.543537
O17   O     O_R   0.054370 0.786770 0.081410 -0.534777
O18   O     O_R   0.945630 0.286770 0.918590 -0.534725
C63   C     C_R   0.934358 0.446871 0.061737 0.716393
C64   C     C_R   0.065643 0.946875 0.938264 0.716331
O19   O     O_3   0.035300 0.454160 0.011680 -0.381534
O20   O     O_3   0.964700 0.954160 0.988320 -0.381553
V3    V     V_3+5 0.993450 0.728620 0.997830 1.475177
V4    V     V_3+5 0.006550 0.228620 0.002170 1.475462
F1    F     F_    0.050902 0.016967 0.220195 -0.686304
F2    F     F_    0.949180 0.515296 0.779755 -0.686309
F3    F     F_    0.168807 0.582225 0.828022 -0.679617
F4    F     F_    0.831240 0.082225 0.172046 -0.679600
N9    N     N_3   0.352771 0.210508 0.700062 -0.629173
H25   H     H_    0.373849 0.190616 0.749855 0.235857
H26   H     H_    0.375062 0.313868 0.685783 0.214905
N10   N     N_3   0.647230 0.710496 0.299930 -0.629159
H27   H     H_    0.626148 0.690578 0.250138 0.235852
H28   H     H_    0.624942 0.813856 0.314211 0.214915
N11   N     N_3   0.131172 0.021914 0.344820 -0.650815
H29   H     H_    0.101157 0.923559 0.346299 0.276330
H30   H     H_    0.111762 0.151814 0.338138 0.273273
N12   N     N_3   0.868966 0.519107 0.655085 -0.650779
H31   H     H_    0.888394 0.648972 0.661538 0.273249
H32   H     H_    0.898979 0.420480 0.653824 0.276365

loop_
_geom_bond_atom_site_label_1
_geom_bond_atom_site_label_2
_ccdc_geom_bond_type
C34   C36   A    
C40   H16   S    
C37   C39   A    
C9    C31   A    
C49   C51   A    
O12   V3    S    
C5    N11   S    
O14   V4    S    
O1    C3    A    
O2    C4    A    
N10   H27   S    
C2    O7    A    
C36   F4    S    
C7    C62   S    
C8    C28   A    
O5    C3    A    
C43   C64   S    
C46   C60   S    
N2    N4    A    
C21   C23   A    
C10   C12   A    
C58   N10   S    
N4    C46   A    
C33   H13   S    
C13   C15   A    
C34   H14   S    
C15   C19   A    
C52   C54   A    
O15   V3    S    
C33   C43   A    
C41   H17   S    
O20   V3    S    
C36   C38   A    
H1    C23   S    
C55   H23   S    
O17   V3    S    
N1    C47   A    
C25   H11   S    
C50   C52   A    
C17   C25   A    
C20   C28   A    
C26   H12   S    
C54   C56   A    
C42   C44   A    
C57   N9    S    
O11   V4    S    
C41   C43   A    
C29   F1    S    
O3    C1    A    
O5    V1    S    
O6    V2    S    
C24   C26   A    
C7    C29   A    
C37   C47   S    
O13   C61   A    
C45   C59   S    
C12   H10   S    
C38   C48   S    
C50   C60   A    
C13   H7    S    
N3    C45   A    
C10   H6    S    
C8    C30   A    
C16   C20   A    
C46   N6    A    
O19   V4    S    
C45   N5    A    
N12   H32   S    
C39   H15   S    
C56   C58   A    
O12   C64   A    
C38   C40   A    
O4    V2    S    
C5    C29   A    
C6    C30   A    
C51   H21   S    
H2    C24   S    
O6    C4    A    
C8    C61   S    
C52   H22   S    
C27   H3    S    
O1    V2    S    
C28   H4    S    
C58   C60   A    
O2    V1    S    
N1    N3    A    
C62   O17   A    
C61   O18   A    
C49   C59   A    
O4    C2    A    
N7    C47   A    
C50   H20   S    
N6    N8    A    
C49   H19   S    
N9    H25   S    
C7    C27   A    
N11   H29   S    
N2    C48   A    
O16   C64   A    
C1    C54   S    
O3    V1    S    
C34   C44   A    
O16   V4    S    
C57   C59   A    
C18   C32   A    
O11   C63   A    
C35   C37   A    
C11   H9    S    
C4    C31   S    
N11   H30   S    
N10   H28   S    
N5    N7    A    
C42   H18   S    
C53   C55   A    
C14   C16   A    
C33   C35   A    
N12   H31   S    
C11   C13   A    
C12   C14   A    
O13   V3    S    
C35   F3    S    
C19   C27   A    
C22   C24   A    
O7    V1    S    
C10   C32   A    
C1    O8    A    
C15   C17   A    
O8    V2    S    
C16   C18   A    
C14   H8    S    
C40   C42   A    
C39   C41   A    
C44   C63   S    
C30   F2    S    
C19   C21   A    
O14   C62   A    
C6    N12   S    
C20   C22   A    
C18   C26   A    
C56   H24   S    
O18   V4    S    
C9    H5    S    
C51   C53   A    
C9    C11   A    
C23   C25   A    
C2    C53   S    
C17   C31   A    
O9    V2    S    
N9    H26   S    
O10   V1    S    
N8    C48   A    
C3    C32   S    
O15   C63   A    
C5    C21   A    
C6    C22   A    
C55   C57   A    
