data_mof_unit_27594.cif
_audit_creation_date              2013-03-05T15:50:43-0500
_audit_creation_method            fapswitch 2.2
_symmetry_space_group_name_H-M    P1
_symmetry_Int_Tables_number       1
_space_group_crystal_system       triclinic
_cell_length_a                    10.740453
_cell_length_b                    11.959718
_cell_length_c                    12.901981
_cell_angle_alpha                 93.017914
_cell_angle_beta                  89.886575
_cell_angle_gamma                 86.629861
_cell_volume                      1652.11342283

loop_
_atom_site_label
_atom_site_type_symbol
_atom_site_description
_atom_site_fract_x
_atom_site_fract_y
_atom_site_fract_z
_atom_type_partial_charge
O1    O     O_R   0.506240 0.421700 0.658830 -0.626823
O2    O     O_R   0.491240 0.609310 0.646410 -0.630314
C1    C     C_R   0.497417 0.521771 0.700460 0.965257
O3    O     O_R   0.692710 0.406190 0.506230 -0.544611
O4    O     O_R   0.677700 0.593810 0.493810 -0.549237
C2    C     C_R   0.742812 0.500306 0.500888 1.054993
Zn1   Zn    Zn3+2 0.510020 0.374730 0.508290 1.091401
Zn2   Zn    Zn3+2 0.489980 0.625270 0.491710 1.052450
O5    O     O_R   0.508760 0.390690 0.353590 -0.606838
O6    O     O_R   0.493760 0.578300 0.341170 -0.637602
O7    O     O_R   0.322300 0.406190 0.506190 -0.591778
O8    O     O_R   0.307290 0.593810 0.493770 -0.651662
C3    C     C_R   0.497939 0.478195 0.299669 1.004974
C4    C     C_R   0.258411 0.499354 0.503011 0.965020
C5    C     C_3   0.938002 0.370178 0.526089 0.407924
C6    C     C_3   0.082826 0.378190 0.532696 0.021842
H1    H     H_    0.126627 0.317188 0.474400 0.223746
C7    C     C_3   0.928198 0.544493 0.389988 0.494087
C8    C     C_3   0.929085 0.575240 0.595612 0.089684
C9    C     C_3   0.880052 0.498062 0.500045 -0.445492
H2    H     H_    0.924974 0.530475 0.667732 0.221078
C10   C     C_3   0.123304 0.496462 0.502728 -0.288413
C11   C     C_3   0.075640 0.528964 0.392438 -0.019610
C12   C     C_3   0.069969 0.587758 0.583095 -0.474366
H3    H     H_    0.117599 0.582811 0.659245 0.229756
H4    H     H_    0.091601 0.671538 0.558411 0.268884
H5    H     H_    0.112993 0.613004 0.385600 0.145594
C13   C     C_R   0.491968 0.465320 0.188637 -0.076448
C14   C     C_R   0.492420 0.534601 0.811636 -0.128113
C15   C     C_R   0.491098 0.651692 0.969112 0.321481
C16   C     C_R   0.490680 0.640918 0.861697 -0.169203
C17   C     C_R   0.490202 0.438209 0.867546 -0.125682
C18   C     C_R   0.484581 0.446082 0.974487 0.007302
C19   C     C_R   0.488001 0.553933 0.025827 0.002877
C20   C     C_R   0.487548 0.561735 0.132677 -0.118152
C21   C     C_R   0.487736 0.359258 0.138938 -0.165253
C22   C     C_R   0.480144 0.348447 0.031568 0.305932
H6    H     H_    0.485117 0.643326 0.173080 0.200782
H7    H     H_    0.486433 0.285147 0.183681 0.198357
H8    H     H_    0.493616 0.715363 0.817576 0.222002
H9    H     H_    0.495521 0.356576 0.827124 0.217406
N1    N     N_R   0.523380 0.207800 0.519350 -0.121514
N2    N     N_R   0.476620 0.792180 0.480650 -0.127740
C23   C     C_R   0.425251 0.951013 0.379780 -0.181484
C24   C     C_R   0.426871 0.835721 0.393511 0.091458
C25   C     C_R   0.523852 0.860020 0.557498 0.098567
C26   C     C_R   0.524514 0.977496 0.547889 -0.046475
C27   C     C_R   0.475065 0.022564 0.456494 0.022930
C28   C     C_R   0.475065 0.138861 0.444340 0.048087
C29   C     C_R   0.571662 0.166512 0.607778 0.032863
C30   C     C_R   0.572296 0.051637 0.625425 0.277657
H10   H     H_    0.434979 0.174901 0.375822 0.150887
H11   H     H_    0.607168 0.224283 0.666030 0.184743
H12   H     H_    0.386081 0.983828 0.309448 0.182312
H13   H     H_    0.389557 0.780691 0.333649 0.140471
H14   H     H_    0.562188 0.821442 0.625003 0.200243
S1    S     S_3+6 0.914577 0.249139 0.433604 0.115333
O9    O     O_2   0.982620 0.147560 0.475199 -0.215564
O10   O     O_2   0.780217 0.222407 0.422642 -0.231323
O11   O     O_3   0.976432 0.263077 0.316036 -0.461166
H15   H     H_    0.962139 0.191858 0.276337 0.409138
S2    S     S_3+6 0.895443 0.697381 0.372572 0.116716
O12   O     O_2   0.759754 0.734530 0.381172 -0.183803
O13   O     O_2   0.966710 0.772813 0.443960 -0.289744
O14   O     O_3   0.940835 0.722887 0.251304 -0.414025
H16   H     H_    0.031784 0.732395 0.255404 0.366718
N3    N     N_R   0.498243 0.761467 0.018744 0.204438
O15   O     O_R   0.425702 0.844338 0.988522 -0.274194
O16   O     O_R   0.591403 0.782937 0.079506 -0.286456
N4    N     N_R   0.465309 0.239058 0.982822 0.226728
O17   O     O_R   0.521791 0.151177 0.020857 -0.253269
O18   O     O_R   0.376984 0.224558 0.915375 -0.285296
N5    N     N_R   0.889301 0.332715 0.627339 0.225278
O19   O     O_R   0.928789 0.236271 0.661249 -0.251635
O20   O     O_R   0.799000 0.386893 0.679875 -0.427379
S3    S     S_3+6 0.626089 0.006937 0.746886 0.120785
O21   O     O_2   0.522877 0.952547 0.800316 -0.194984
O22   O     O_2   0.734784 0.923003 0.731181 -0.192500
O23   O     O_3   0.670373 0.115989 0.822967 -0.470475
H17   H     H_    0.753677 0.132401 0.796555 0.394803
N6    N     N_R   0.136391 0.344637 0.632950 0.249009
O24   O     O_R   0.210171 0.254432 0.635277 -0.290892
O25   O     O_R   0.107536 0.399632 0.720226 -0.344111
S4    S     S_3+6 0.850657 0.480920 0.273084 0.120765
O26   O     O_2   0.766332 0.391661 0.300224 -0.299080
O27   O     O_2   0.768632 0.567840 0.221759 -0.223831
O28   O     O_3   0.949485 0.425562 0.180358 -0.408383
H18   H     H_    0.895587 0.394941 0.124816 0.395499
N7    N     N_R   0.135629 0.464199 0.303472 0.268050
O29   O     O_R   0.191116 0.365759 0.312980 -0.363502
O30   O     O_R   0.163569 0.518177 0.222269 -0.343917
N8    N     N_R   0.857517 0.681784 0.622930 0.277001
O31   O     O_R   0.915188 0.773913 0.638162 -0.238636
O32   O     O_R   0.751347 0.676845 0.670727 -0.362331

loop_
_geom_bond_atom_site_label_1
_geom_bond_atom_site_label_2
_geom_bond_distance
_ccdc_geom_bond_type
O28   H18   0.990811 S    
N5    O20   1.302769 A    
N5    O19   1.303097 A    
C8    C9    1.609197 S    
S4    O28   1.680844 S    
N6    O24   1.302193 A    
Zn1   O7    2.029643 S    
S3    O22   1.500492 D    
C21   C22   1.387523 A    
C8    H2    1.099750 S    
S4    O27   1.504119 D    
C14   C17   1.393067 A    
C15   C16   1.385112 A    
O7    C4    1.276343 A    
S1    O10   1.501666 D    
C5    C6    1.566254 S    
C16   H8    1.083675 S    
C19   C20   1.376804 A    
Zn1   N1    2.005768 S    
C1    C14   1.435073 S    
O5    C3    1.286620 A    
N8    O31   1.301634 A    
S2    O13   1.498194 D    
C8    N8    1.474872 S    
C13   C20   1.390872 A    
C6    H1    1.104424 S    
C7    S4    1.872237 S    
C17   H9    1.080799 S    
C11   N7    1.475602 S    
C3    C13   1.434678 S    
N4    O17   1.301545 A    
C11   H5    1.111562 S    
N7    O30   1.302760 A    
C15   N3    1.436350 S    
C22   N4    1.439002 S    
C5    S1    1.856004 S    
O3    Zn1   2.019912 S    
N6    O25   1.301251 A    
C18   C19   1.421115 A    
S3    O21   1.502059 D    
C5    C9    1.668097 S    
C29   H11   1.079396 S    
C15   C19   1.413527 A    
C7    C11   1.584144 S    
C20   H6    1.080741 S    
C12   H3    1.111326 S    
O3    C2    1.280840 A    
C7    S2    1.866977 S    
S1    O11   1.675020 S    
C26   C30   1.418621 A    
C18   C22   1.416008 A    
N3    O15   1.300968 A    
O11   H15   0.990534 S    
O1    C1    1.283991 A    
S2    O12   1.500552 D    
C26   C27   1.413793 A    
Zn2   O8    2.019912 S    
C28   H10   1.082795 S    
N8    O32   1.301166 A    
C29   C30   1.404022 A    
S4    O26   1.494730 D    
N2    C24   1.360864 A    
C13   C21   1.394088 A    
N1    C29   1.358651 A    
C27   C28   1.407878 A    
C5    N5    1.505759 S    
O8    C4    1.284380 A    
C10   C12   1.549318 S    
C23   C24   1.398526 A    
Zn1   O5    2.015018 S    
C25   C26   1.417353 A    
C6    C10   1.571150 S    
S2    O14   1.686244 S    
O1    Zn1   1.992916 S    
C21   H7    1.083680 S    
O2    Zn2   2.015020 S    
C12   H4    1.104564 S    
O6    C3    1.283805 A    
O4    Zn2   2.029643 S    
C2    C9    1.472690 S    
C17   C18   1.378969 A    
C4    C10   1.453565 S    
C8    C12   1.538296 S    
C14   C16   1.394624 A    
S1    O9    1.504595 D    
O4    C2    1.291128 A    
Zn2   N2    2.005530 S    
C6    N6    1.481743 S    
O2    C1    1.286732 A    
C7    C9    1.644970 S    
N2    C25   1.365412 A    
N1    C28   1.361593 A    
O23   H17   0.990786 S    
C23   H12   1.083523 S    
S3    O23   1.682488 S    
C24   H13   1.081199 S    
Zn2   O6    1.992917 S    
O14   H16   0.991242 S    
C25   H14   1.078129 S    
C30   S3    1.769431 S    
C10   C11   1.573444 S    
N4    O18   1.301532 A    
N3    O16   1.301448 A    
N7    O29   1.299715 A    
C23   C27   1.401744 A    
