data_mof_unit_37205.cif
_audit_creation_date              2012-12-11T14:58:37-0500
_audit_creation_method            fapswitch 2.2
_symmetry_space_group_name_H-M    P1
_symmetry_Int_Tables_number       1
_space_group_crystal_system       triclinic
_cell_length_a                    10.973662
_cell_length_b                    10.870796
_cell_length_c                    18.701633
_cell_angle_alpha                 90.167446
_cell_angle_beta                  90.652743
_cell_angle_gamma                 59.695346
_cell_volume                      1925.97716963

loop_
_atom_site_label
_atom_site_type_symbol
_atom_type_description
_atom_site_fract_x
_atom_site_fract_y
_atom_site_fract_z
_atom_type_partial_charge
C1    C     C_R   0.353431 0.781380 0.400081 0.545053
C2    C     C_R   0.244317 0.433486 0.200495 -0.145528
C3    C     C_R   0.255677 0.441636 0.273821 0.004583
C4    C     C_R   0.415686 0.378307 0.382405 0.554334
C5    C     C_R   0.906029 0.718158 0.403925 -0.119505
C6    C     C_R   0.972246 0.571494 0.415430 -0.070580
C7    C     C_R   0.079311 0.474798 0.368890 0.339430
C8    C     C_R   0.123686 0.531796 0.313779 0.065922
C9    C     C_R   0.391105 0.366136 0.306439 0.037043
C10   C     C_R   0.895924 0.285828 0.306746 -0.095943
C11   C     C_R   0.942862 0.266177 0.237234 -0.122849
C12   C     C_R   0.627106 0.170153 0.150223 -0.000883
C13   C     C_R   0.849940 0.343400 0.181670 0.021080
C14   C     C_R   0.711427 0.450121 0.195949 -0.147370
C15   C     C_R   0.665426 0.474968 0.266481 -0.152864
C16   C     C_R   0.711688 0.417042 0.394593 0.529681
C17   C     C_R   0.757510 0.390712 0.321476 0.024537
C18   C     C_R   0.412084 0.910902 0.305562 0.043251
C19   C     C_R   0.402051 0.938601 0.230931 -0.150050
C20   C     C_R   0.293796 0.936707 0.190290 -0.014158
C21   C     C_R   0.188193 0.925395 0.226442 -0.153497
C22   C     C_R   0.198698 0.898718 0.298177 -0.172840
C23   C     C_R   0.361426 0.341512 0.159432 0.000449
C24   C     C_R   0.319864 0.870865 0.335821 0.003273
C25   C     C_R   0.491868 0.265706 0.725514 0.003419
C26   C     C_R   0.471044 0.275349 0.799120 0.033080
C27   C     C_R   0.331533 0.349510 0.824823 -0.005934
C28   C     C_R   0.345333 0.767772 0.605093 0.545282
C29   C     C_R   0.221562 0.447206 0.780993 -0.169855
C30   C     C_R   0.248096 0.460347 0.709980 -0.159993
C31   C     C_R   0.380463 0.364836 0.680669 -0.027662
C32   C     C_R   0.719416 0.415155 0.734210 -0.108430
C33   C     C_R   0.759976 0.392139 0.805271 -0.084180
C34   C     C_R   0.510464 0.283786 0.264545 -0.138967
C35   C     C_R   0.899043 0.291098 0.823552 0.048892
C36   C     C_R   0.997112 0.211285 0.770733 -0.128603
C37   C     C_R   0.956124 0.234107 0.698973 -0.099096
C38   C     C_R   0.817629 0.337592 0.681219 0.079139
C39   C     C_R   0.203521 0.828962 0.713672 -0.133644
C40   C     C_R   0.405927 0.377234 0.605308 0.559581
C41   C     C_R   0.195776 0.837347 0.787118 -0.134380
C42   C     C_R   0.305393 0.835687 0.826808 0.016221
C43   C     C_R   0.426800 0.816708 0.792545 -0.134752
C44   C     C_R   0.435331 0.806564 0.718903 -0.128898
C45   C     C_R   0.498303 0.269609 0.191077 -0.014961
C46   C     C_R   0.323709 0.812509 0.679047 0.015945
C47   C     C_R   0.906084 0.318352 0.110489 0.539074
C48   C     C_R   0.329900 0.296820 0.091240 0.541073
C49   C     C_R   0.272087 0.962530 0.112455 0.563713
C50   C     C_R   0.946126 0.281262 0.896605 0.567287
C51   C     C_R   0.300472 0.295615 0.889255 0.559164
C52   C     C_R   0.770255 0.372709 0.608369 0.529004
C53   C     C_R   0.276871 0.891350 0.898746 0.547776
C54   C     C_R   0.842263 0.965005 0.063776 -0.058654
C55   C     C_R   0.758136 0.104742 0.039818 -0.099733
C56   C     C_R   0.052907 0.678898 0.301681 -0.120063
C57   C     C_R   0.652215 0.207691 0.082632 -0.065597
C58   C     C_3   0.145014 0.279697 0.445359 -0.097455
C59   C     C_2   0.502268 0.942792 0.352656 0.602414
C60   C     C_3   0.818161 0.726998 0.167947 -0.115370
C61   C     C_2   0.620721 0.140398 0.696923 0.644824
C62   C     C_2   0.592650 0.207231 0.849749 0.604932
C63   C     C_R   0.944829 0.771567 0.346438 -0.110019
C64   C     C_R   0.717663 0.031091 0.175445 -0.106176
C65   C     C_R   0.820536 0.926132 0.131262 0.269104
Cr1   Cr    Cr6+3 0.601770 0.606860 0.505860 1.024040
Cr2   Cr    Cr6+3 0.291380 0.601660 0.495070 0.993561
Cr3   Cr    Cr6+3 0.606880 0.291510 0.499120 1.032206
Cr4   Cr    Cr6+3 0.062440 0.063090 0.008210 0.989854
Cr5   Cr    Cr6+3 0.062880 0.375170 0.998920 1.018280
Cr6   Cr    Cr6+3 0.374700 0.061720 0.992470 1.034660
H1    H     H_    0.614279 0.229389 0.289552 0.124469
H2    H     H_    0.114901 0.890827 0.323249 0.140166
H3    H     H_    0.114603 0.507982 0.800539 0.143797
H4    H     H_    0.162052 0.538443 0.677033 0.148757
H5    H     H_    0.611666 0.494464 0.720255 0.105124
H6    H     H_    0.684262 0.455512 0.845844 0.157276
H7    H     H_    0.105846 0.136221 0.784943 0.111213
H8    H     H_    0.032055 0.174735 0.657773 0.107458
H9    H     H_    0.116584 0.831546 0.684300 0.154531
H10   H     H_    0.894673 0.885232 0.337707 0.114901
H11   H     H_    0.100077 0.854010 0.812178 0.156506
H12   H     H_    0.824982 0.790500 0.440084 0.130703
H13   H     H_    0.512503 0.815807 0.822351 0.153457
H14   H     H_    0.530639 0.790202 0.693531 0.165643
H15   H     H_    0.923060 0.886506 0.029457 0.124877
H16   H     H_    0.774422 0.132563 0.987581 0.187646
H17   H     H_    0.586059 0.314649 0.061937 0.137571
H18   H     H_    0.085969 0.721826 0.258908 0.154380
H19   H     H_    0.706195 0.002668 0.228323 0.167270
H20   H     H_    0.139696 0.489913 0.176660 0.166651
H21   H     H_    0.038636 0.297905 0.458260 0.111557
H22   H     H_    0.181551 0.329826 0.485700 0.158608
H23   H     H_    0.941106 0.535961 0.461874 0.125489
H24   H     H_    0.218259 0.163127 0.448162 0.185879
H25   H     H_    0.655257 0.991071 0.360494 0.335274
H26   H     H_    0.747374 0.740311 0.121804 0.132859
H27   H     H_    0.755983 0.771948 0.217283 0.158036
H28   H     H_    0.887167 0.611316 0.177725 0.163886
H29   H     H_    0.703420 0.950453 0.647124 0.327660
H30   H     H_    0.776645 0.032131 0.878561 0.320881
H31   H     H_    0.968291 0.222436 0.349148 0.151262
H32   H     H_    0.052984 0.195095 0.226737 0.131034
H33   H     H_    0.640490 0.513783 0.153072 0.119450
H34   H     H_    0.558535 0.557992 0.278140 0.103232
H35   H     H_    0.473886 0.965295 0.205448 0.149979
H36   H     H_    0.094222 0.938631 0.199599 0.166350
O1    O     O_R   0.748800 0.497470 0.428000 -0.519878
O2    O     O_R   0.417600 0.174890 0.067840 -0.511337
O3    O     O_R   0.375320 0.946260 0.070860 -0.498726
O4    O     O_R   0.476420 0.724060 0.429470 -0.477437
O5    O     O_R   0.160600 0.919630 0.926660 -0.532913
O6    O     O_R   0.933060 0.190520 0.936020 -0.507367
O7    O     O_R   0.908880 0.403460 0.925020 -0.516001
O8    O     O_R   0.179600 0.361450 0.918490 -0.522122
O9    O     O_R   0.391510 0.170860 0.907530 -0.487639
O10   O     O_R   0.351130 0.942530 0.922260 -0.498187
O11   O     O_3   0.166667 0.166667 0.999870 -0.291074
O12   O     O_R   0.300070 0.471040 0.567100 -0.515419
O13   O     O_R   0.264580 0.744340 0.416750 -0.533103
O14   O     O_R   0.309380 0.472470 0.418200 -0.491226
O15   O     O_R   0.501710 0.260430 0.414300 -0.489640
O16   O     O_R   0.728090 0.305600 0.428960 -0.532986
O17   O     O_R   0.738760 0.495930 0.588610 -0.532414
O18   O     O_R   0.467110 0.722640 0.578360 -0.489345
O19   O     O_R   0.254530 0.742800 0.577360 -0.532598
O20   O     O_3   0.147610 0.326574 0.375381 -0.572254
O21   O     O_2   0.475002 0.968171 0.416104 -0.499333
O22   O     O_R   0.613022 0.952925 0.324462 -0.762311
O23   O     O_R   0.491670 0.258900 0.574910 -0.459043
O24   O     O_3   0.904037 0.786339 0.153649 -0.599514
O25   O     O_2   0.736531 0.128622 0.705452 -0.509273
O26   O     O_R   0.608969 0.031657 0.663361 -0.667889
O27   O     O_2   0.597054 0.276830 0.900036 -0.567372
O28   O     O_R   0.698138 0.064662 0.841631 -0.664484
O29   O     O_R   0.718780 0.304180 0.577850 -0.489122
O30   O     O_3   0.500010 0.500010 0.500020 -0.311678
O31   O     O_R   0.186690 0.923650 0.086970 -0.511876
O32   O     O_R   0.957250 0.194250 0.084630 -0.517322
O33   O     O_R   0.934970 0.407490 0.085330 -0.522180
O34   O     O_R   0.203780 0.365190 0.067090 -0.503442

loop_
_geom_bond_atom_site_label_1
_geom_bond_atom_site_label_2
_ccdc_geom_bond_type
C25   C31   A    
Cr4   O32   S    
C23   C45   A    
C27   C29   A    
C52   O17   A    
C41   C42   A    
C35   C36   A    
C64   H19   S    
C43   C44   A    
C60   H28   S    
C33   H6    S    
C8    C56   A    
C61   O26   S    
C7    C8    A    
C39   C41   A    
C54   C65   A    
Cr5   O7    S    
Cr5   O33   S    
C37   H8    S    
C28   C46   S    
C26   C27   A    
C29   C30   A    
C63   H10   S    
C18   C24   A    
C21   C22   A    
C36   C37   A    
C37   C38   A    
C60   H27   S    
C42   C53   S    
C30   C31   A    
C5    H12   S    
Cr4   O5    S    
C53   O10   A    
C38   C52   S    
C10   C17   A    
Cr6   O3    S    
Cr4   O11   S    
C31   C40   S    
C5    C63   A    
C18   C19   A    
C61   O25   D    
C19   C20   A    
C27   C51   S    
C16   C17   S    
C6    H23   S    
C47   O33   A    
Cr6   O9    S    
C32   C38   A    
Cr1   O4    S    
Cr2   O13   S    
C48   O2    A    
C58   O20   S    
C1    O4    A    
C13   C14   A    
C55   H16   S    
C43   H13   S    
Cr3   O30   S    
C4    O14   A    
Cr2   O14   S    
Cr3   O16   S    
C65   O24   S    
C44   C46   A    
H30   O28   S    
Cr6   O10   S    
Cr3   O29   S    
C39   H9    S    
C3    C8    S    
Cr2   O19   S    
Cr3   O15   S    
C54   H15   S    
C29   H3    S    
C25   C26   A    
C51   O8    A    
C50   O7    A    
C1    O13   A    
C62   O28   S    
C58   H24   S    
C20   C49   S    
C3    C9    A    
H29   O26   S    
C14   H33   S    
C10   H31   S    
Cr4   O6    S    
C35   C50   S    
C56   C63   A    
C4    O15   A    
C34   C45   A    
C25   C61   S    
Cr3   O23   S    
C21   H36   S    
C39   C46   A    
C12   C57   A    
C53   O5    A    
C56   H18   S    
C60   H26   S    
C55   C57   A    
C9    C34   A    
C52   O29   A    
Cr1   O17   S    
C42   C43   A    
C44   H14   S    
C34   H1    S    
C28   O18   A    
C13   C47   S    
Cr4   O31   S    
C15   C17   A    
C40   O23   A    
C54   C55   A    
C59   O22   S    
Cr5   O34   S    
C23   C48   S    
Cr6   O11   S    
C16   O16   A    
Cr1   O1    S    
C12   C45   S    
C32   H5    S    
C57   H17   S    
C6    C7    A    
Cr5   O8    S    
C28   O19   A    
C51   O9    A    
Cr1   O18   S    
C50   O6    A    
C32   C33   A    
C62   O27   D    
C2    C3    A    
C59   O21   D    
C36   H7    S    
C64   C65   A    
C30   H4    S    
C11   C13   A    
C15   H34   S    
C5    C6    A    
Cr1   O30   S    
Cr2   O12   S    
Cr5   O11   S    
C12   C64   A    
C41   H11   S    
Cr6   O2    S    
C33   C35   A    
C48   O34   A    
C22   C24   A    
C26   C62   S    
C2    H20   S    
Cr2   O30   S    
C58   H22   S    
C10   C11   A    
C16   O1    A    
C19   H35   S    
C18   C59   S    
C40   O12   A    
C20   C21   A    
C1    C24   S    
C47   O32   A    
C2    C23   A    
C14   C15   A    
H25   O22   S    
C11   H32   S    
C22   H2    S    
C7    O20   S    
C4    C9    S    
C49   O31   A    
C58   H21   S    
C60   O24   S    
C49   O3    A    
