data_mof_unit_25824.cif
_audit_creation_date              2013-03-05T16:00:16-0500
_audit_creation_method            fapswitch 2.2
_symmetry_space_group_name_H-M    P1
_symmetry_Int_Tables_number       1
_space_group_crystal_system       triclinic
_cell_length_a                    11.69986
_cell_length_b                    14.708562
_cell_length_c                    14.701761
_cell_angle_alpha                 65.233549
_cell_angle_beta                  102.879182
_cell_angle_gamma                 102.674291
_cell_volume                      2216.6854541

loop_
_atom_site_label
_atom_site_type_symbol
_atom_site_description
_atom_site_fract_x
_atom_site_fract_y
_atom_site_fract_z
_atom_type_partial_charge
O1    O     O_R   0.459870 0.022090 0.338120 -0.586139
O2    O     O_R   0.540130 0.977910 0.661880 -0.588983
O3    O     O_R   0.511290 0.160150 0.379180 -0.588631
O4    O     O_R   0.488710 0.839850 0.620820 -0.588887
C1    C     C_R   0.481409 0.119640 0.312328 0.800836
C2    C     C_R   0.520193 0.880338 0.687697 0.800477
O5    O     O_R   0.311490 0.930960 0.479480 -0.568164
O6    O     O_R   0.688510 0.069040 0.520520 -0.564991
O7    O     O_R   0.362910 0.069020 0.520540 -0.571834
O8    O     O_R   0.637090 0.930980 0.479460 -0.574368
C3    C     C_R   0.284186 0.000311 0.500059 0.827515
C4    C     C_R   0.715813 0.999691 0.499935 0.826747
Cu1   Cu    Cu3+1 0.469550 0.918260 0.475690 0.957909
Cu2   Cu    Cu3+1 0.530450 0.081740 0.524310 0.959888
C5    C     C_1   0.162643 0.000756 0.500181 -0.160366
C6    C     C_1   0.837352 0.999251 0.499802 -0.159098
C7    C     C_1   0.060023 0.000385 0.500085 0.025039
C8    C     C_1   0.939970 0.999623 0.499892 0.025277
C9    C     C_R   0.479162 0.187306 0.205100 -0.057329
C10   C     C_R   0.534944 0.812730 0.795304 -0.058216
C11   C     C_R   0.481225 0.217348 0.030690 -0.141518
C12   C     C_R   0.570644 0.784009 0.973018 -0.157897
C13   C     C_R   0.472986 0.150240 0.130368 -0.168854
C14   C     C_R   0.560080 0.850423 0.871730 -0.165589
C15   C     C_R   0.491396 0.291596 0.178889 -0.230163
C16   C     C_R   0.523396 0.708464 0.821218 -0.238712
C17   C     C_R   0.505623 0.361039 0.080071 0.089239
C18   C     C_R   0.537351 0.640069 0.922747 0.093379
C19   C     C_R   0.497928 0.322160 0.005089 0.152023
C20   C     C_R   0.557966 0.679353 0.999016 0.155168
C21   C     C_R   0.526267 0.467596 0.053746 0.070359
C22   C     C_R   0.527718 0.533832 0.950295 0.069356
C23   C     C_R   0.521766 0.491817 0.878194 -0.208657
C24   C     C_R   0.548282 0.510124 0.127560 -0.203399
C25   C     C_R   0.507823 0.388062 0.905489 -0.171868
C26   C     C_R   0.564953 0.613959 0.100430 -0.196161
H1    H     H_    0.504207 0.359229 0.847873 0.168694
H2    H     H_    0.581843 0.643199 0.159460 0.154946
H3    H     H_    0.499886 0.682098 0.760518 0.151472
H4    H     H_    0.488496 0.316619 0.237273 0.143969
H5    H     H_    0.569694 0.930879 0.853313 0.167427
H6    H     H_    0.463502 0.069731 0.149122 0.169225
H7    H     H_    0.476222 0.187344 0.973762 0.157990
H8    H     H_    0.587783 0.814416 0.031141 0.149200
H9    H     H_    0.531325 0.537107 0.800064 0.140116
H10   H     H_    0.556782 0.465518 0.207776 0.146058
N1    N     N_R   0.576230 0.204580 0.560790 -0.205098
N2    N     N_R   0.423770 0.795420 0.439210 -0.205775
C27   C     C_R   0.683929 0.276333 0.679370 0.227021
C28   C     C_R   0.307400 0.719009 0.327002 0.226345
C29   C     C_R   0.657493 0.198538 0.643914 0.011772
C30   C     C_R   0.338473 0.799309 0.359031 0.010112
C31   C     C_R   0.519417 0.286963 0.507611 0.000189
C32   C     C_R   0.481459 0.713522 0.491964 0.000349
C33   C     C_R   0.544306 0.371047 0.536372 -0.055801
C34   C     C_R   0.455945 0.628950 0.463943 -0.058107
C35   C     C_R   0.628188 0.364196 0.624539 0.027632
C36   C     C_R   0.368865 0.634085 0.378010 0.026001
C37   C     C_R   0.487768 0.460260 0.481813 0.110037
C38   C     C_R   0.514798 0.540898 0.517027 0.113923
C39   C     C_R   0.600115 0.530978 0.603908 -0.250571
C40   C     C_R   0.406207 0.472073 0.392475 -0.246173
C41   C     C_R   0.656171 0.445594 0.655268 -0.141466
C42   C     C_R   0.348305 0.556525 0.342293 -0.127230
H11   H     H_    0.722852 0.444819 0.719580 0.202197
H12   H     H_    0.288545 0.561007 0.273339 0.198705
H13   H     H_    0.548618 0.717751 0.553760 0.134935
H14   H     H_    0.453472 0.283643 0.444769 0.135091
H15   H     H_    0.293763 0.865443 0.320134 0.169915
H16   H     H_    0.698438 0.130546 0.685402 0.167096
H17   H     H_    0.626379 0.588224 0.634952 0.131579
H18   H     H_    0.385294 0.417475 0.358116 0.133486
N3    N     N_R   0.763597 0.262850 0.772429 0.111494
O9    O     O_R   0.857601 0.220559 0.791158 -0.339687
O10   O     O_R   0.730663 0.273372 0.846009 -0.375594
N4    N     N_R   0.212961 0.724740 0.244153 0.111436
O11   O     O_R   0.201911 0.810622 0.167615 -0.351980
O12   O     O_R   0.126102 0.650472 0.253696 -0.344316

loop_
_geom_bond_atom_site_label_1
_geom_bond_atom_site_label_2
_geom_bond_distance
_ccdc_geom_bond_type
C41   H11   1.081102 S    
C33   C37   1.437119 A    
C17   C19   1.418332 A    
C23   H9    1.076634 S    
N3    O9    1.301568 A    
N2    C32   1.359704 A    
C13   H6    1.083069 S    
O1    C1    1.301573 A    
C25   H1    1.084561 S    
N4    O12   1.301431 A    
C15   H4    1.075416 S    
C16   H3    1.075241 S    
C27   C35   1.417015 A    
O4    Cu1   1.942007 S    
C39   C41   1.386963 A    
C31   H14   1.074589 S    
C40   C42   1.387380 A    
C30   H15   1.082009 S    
C11   H7    1.083945 S    
C3    C5    1.423896 S    
C12   H8    1.083914 S    
C10   C14   1.399784 A    
C27   C29   1.396149 A    
C28   C30   1.396459 A    
C24   H10   1.076666 S    
C29   H16   1.081922 S    
C24   C26   1.386804 A    
N1    C31   1.359925 A    
C39   H17   1.075933 S    
C37   C38   1.432367 A    
Cu1   Cu2   2.694755 S    
C14   H5    1.083089 S    
N3    O10   1.301869 A    
O2    C2    1.301645 A    
C9    C15   1.398204 A    
C35   C41   1.399959 A    
C31   C33   1.420705 A    
C36   C42   1.400064 A    
C32   C34   1.420483 A    
C17   C21   1.425453 A    
C28   C36   1.417301 A    
C4    C6    1.423868 S    
C18   C22   1.425229 A    
N4    O11   1.301712 A    
O4    C2    1.299960 A    
N1    C29   1.354044 A    
C32   H13   1.074397 S    
C11   C19   1.403899 A    
C34   C38   1.437179 A    
C38   C39   1.410168 A    
C42   H12   1.081270 S    
C9    C13   1.399556 A    
O7    Cu2   1.918270 S    
C28   N4    1.437517 S    
O5    C3    1.295666 A    
C21   C22   1.423173 A    
O5    Cu1   1.914178 S    
O6    C4    1.295678 A    
C7    C8    1.401564 S    
C21   C24   1.417282 A    
C40   H18   1.076342 S    
C33   C35   1.421386 A    
O7    C3    1.297380 A    
O3    Cu2   1.942005 S    
O8    C4    1.297372 A    
C11   C13   1.392987 A    
C12   C14   1.392534 A    
O1    Cu1   1.954894 S    
C5    C7    1.199140 T    
C37   C40   1.410202 A    
O6    Cu2   1.914177 S    
C12   C20   1.403489 A    
O3    C1    1.299730 A    
O8    Cu1   1.918272 S    
Cu1   N2    2.024403 S    
Cu2   N1    2.024404 S    
C1    C9    1.467945 S    
C15   C17   1.404121 A    
C2    C10   1.468653 S    
C19   C25   1.390771 A    
C16   C18   1.404291 A    
C20   C26   1.390486 A    
C22   C23   1.416830 A    
C18   C20   1.417906 A    
C10   C16   1.399219 A    
C26   H2    1.084491 S    
C23   C25   1.386885 A    
C34   C36   1.421208 A    
C27   N3    1.437078 S    
O2    Cu2   1.954895 S    
N2    C30   1.353827 A    
C6    C8    1.199132 T    
