data_mof_unit_66293.cif
_audit_creation_date              2012-12-10T18:19:12-0500
_audit_creation_method            fapswitch 2.2
_symmetry_space_group_name_H-M    P1
_symmetry_Int_Tables_number       1
_space_group_crystal_system       triclinic
_cell_length_a                    18.584065
_cell_length_b                    18.832728
_cell_length_c                    18.471919
_cell_angle_alpha                 109.715482
_cell_angle_beta                  109.165138
_cell_angle_gamma                 109.590763
_cell_volume                      4973.08709843

loop_
_atom_site_label
_atom_site_type_symbol
_atom_type_description
_atom_site_fract_x
_atom_site_fract_y
_atom_site_fract_z
_atom_type_partial_charge
C1    C     C_R   0.619696 0.499148 0.621878 0.859415
C2    C     C_R   0.375707 0.496561 0.378092 0.821736
C3    C     C_3   0.319091 0.226521 0.476163 0.128898
C4    C     C_3   0.682747 0.774255 0.526620 0.124269
C5    C     C_3   0.311862 0.311444 0.502301 0.120672
C6    C     C_3   0.688254 0.688358 0.497708 0.102762
C7    C     C_3   0.191230 0.191998 0.504432 0.104846
C8    C     C_3   0.809006 0.808087 0.495914 0.109948
C9    C     C_3   0.148994 0.217594 0.436199 -0.412084
C10   C     C_3   0.851177 0.780924 0.562610 -0.423435
C11   C     C_3   0.247647 0.156268 0.477126 -0.436923
C12   C     C_3   0.753957 0.844461 0.525430 -0.441868
C13   C     C_3   0.738000 0.588761 0.783152 0.124503
C14   C     C_3   0.247175 0.403251 0.220350 0.121720
C15   C     C_3   0.813313 0.589414 0.852134 -0.477972
C16   C     C_3   0.173122 0.406028 0.153634 -0.392527
C17   C     C_3   0.647075 0.421297 0.702160 -0.493042
C18   C     C_3   0.352608 0.563913 0.287052 -0.445742
C19   C     C_3   0.755256 0.491051 0.662230 -0.091616
C20   C     C_3   0.248817 0.523236 0.344570 -0.084759
C21   C     C_3   0.688054 0.501107 0.691732 0.153800
C22   C     C_3   0.306806 0.494955 0.308549 0.091105
C23   C     C_R   0.379871 0.378963 0.501422 0.822931
C24   C     C_R   0.620209 0.620981 0.498626 0.860392
C25   C     C_3   0.810233 0.500810 0.811705 0.138841
C26   C     C_3   0.188504 0.500150 0.190055 0.103235
C27   C     C_3   0.717988 0.426716 0.779512 -0.368478
C28   C     C_3   0.282700 0.565170 0.215129 -0.381165
C29   C     C_3   0.824655 0.486069 0.730748 -0.454473
C30   C     C_3   0.179625 0.526360 0.273999 -0.416587
C31   C     C_3   0.001196 0.311876 0.810847 0.122983
C32   C     C_3   0.998621 0.688775 0.188758 0.123604
C33   C     C_R   0.000569 0.121286 0.622341 0.868904
C34   C     C_R   0.999965 0.879444 0.377883 0.872621
C35   C     C_R   0.121572 0.123299 0.502355 0.862155
C36   C     C_R   0.878465 0.876783 0.497787 0.864275
C37   C     C_R   0.999945 0.620866 0.121683 0.850547
C38   C     C_R   0.999721 0.379213 0.878057 0.853299
C39   C     C_R   0.878556 0.500056 0.878876 0.855073
C40   C     C_R   0.121280 0.501211 0.122311 0.852065
C41   C     C_3   0.909169 0.180158 0.658389 -0.425513
C42   C     C_3   0.091847 0.821542 0.340896 -0.427138
C43   C     C_3   0.032803 0.186748 0.782110 0.384898
C44   C     C_3   0.967272 0.814216 0.217660 0.385960
C45   C     C_3   0.069358 0.352229 0.784217 -0.370731
C46   C     C_3   0.931632 0.648639 0.216518 -0.373960
C47   C     C_3   0.025373 0.256286 0.848803 -0.427753
C48   C     C_3   0.973443 0.743599 0.150451 -0.431097
C49   C     C_3   0.908631 0.252354 0.728068 -0.440016
C50   C     C_3   0.091873 0.748959 0.270906 -0.434103
C51   C     C_3   0.003099 0.190198 0.692662 0.106339
C52   C     C_3   0.997831 0.810831 0.307602 0.109920
C53   C     C_3   0.065429 0.280100 0.709323 -0.492474
C54   C     C_3   0.936385 0.720985 0.291729 -0.489296
C55   C     C_3   0.324351 0.345005 0.597640 -0.449073
C56   C     C_3   0.674111 0.656056 0.401841 -0.446856
C57   C     C_3   0.250613 0.276703 0.598630 -0.045879
C58   C     C_3   0.748346 0.724096 0.401159 -0.045814
C59   C     C_3   0.219945 0.293906 0.442156 -0.424906
C60   C     C_3   0.779894 0.703613 0.555209 -0.412099
H1    H     H_    0.137114 0.392110 0.842563 0.172434
H2    H     H_    0.863565 0.608825 0.158721 0.173437
H3    H     H_    0.383382 0.245713 0.530675 0.064706
H4    H     H_    0.618285 0.756371 0.473505 0.068873
H5    H     H_    0.279905 0.138174 0.524498 0.147811
H6    H     H_    0.721581 0.863527 0.479143 0.147607
H7    H     H_    0.205149 0.094724 0.412183 0.170234
H8    H     H_    0.797343 0.905399 0.590920 0.168986
H9    H     H_    0.208327 0.281602 0.375426 0.161937
H10   H     H_    0.792107 0.713244 0.621250 0.174524
H11   H     H_    0.110721 0.161030 0.367716 0.189453
H12   H     H_    0.889426 0.836488 0.631622 0.189596
H13   H     H_    0.770830 0.642246 0.771665 0.107591
H14   H     H_    0.214856 0.354252 0.236470 0.058172
H15   H     H_    0.877681 0.642646 0.871330 0.158104
H16   H     H_    0.109209 0.362027 0.144445 0.152431
H17   H     H_    0.809688 0.603675 0.914137 0.160833
H18   H     H_    0.164948 0.380848 0.086292 0.162591
H19   H     H_    0.132513 0.290252 0.725552 0.152549
H20   H     H_    0.869596 0.710632 0.277097 0.150579
H21   H     H_    0.590370 0.413725 0.712021 0.170454
H22   H     H_    0.397689 0.550346 0.264887 0.192826
H23   H     H_    0.703584 0.439704 0.835339 0.185209
H24   H     H_    0.290650 0.548347 0.155528 0.176398
H25   H     H_    0.719840 0.427947 0.598421 0.163310
H26   H     H_    0.292187 0.590940 0.402414 0.174980
H27   H     H_    0.892906 0.532794 0.751220 0.182763
H28   H     H_    0.112051 0.482414 0.257802 0.196504
H29   H     H_    0.816635 0.419804 0.699676 0.141784
H30   H     H_    0.189365 0.593547 0.300468 0.135427
H31   H     H_    0.621475 0.360131 0.640514 0.164140
H32   H     H_    0.393914 0.629852 0.347630 0.153979
H33   H     H_    0.715795 0.362789 0.757010 0.169213
H34   H     H_    0.293044 0.632473 0.240384 0.172334
H35   H     H_    0.858852 0.222193 0.745046 0.181178
H36   H     H_    0.140797 0.778879 0.252819 0.181277
H37   H     H_    0.859015 0.114946 0.640166 0.155306
H38   H     H_    0.141365 0.886585 0.358159 0.156855
H39   H     H_    0.040446 0.284335 0.648236 0.181441
H40   H     H_    0.962772 0.717226 0.353111 0.181709
H41   H     H_    0.888815 0.184924 0.597360 0.197018
H42   H     H_    0.113534 0.817533 0.402434 0.196681
H43   H     H_    0.888966 0.291181 0.700494 0.160129
H44   H     H_    0.112518 0.710535 0.298772 0.160058
H45   H     H_    0.055357 0.396209 0.761296 0.179124
H46   H     H_    0.946121 0.604854 0.239398 0.180153
H47   H     H_    0.975185 0.225006 0.864932 0.170323
H48   H     H_    0.021721 0.773614 0.132040 0.167840
H49   H     H_    0.088190 0.300284 0.913485 0.141409
H50   H     H_    0.909449 0.698978 0.086818 0.145176
H51   H     H_    0.322826 0.406989 0.621848 0.181473
H52   H     H_    0.673798 0.593239 0.375445 0.181237
H53   H     H_    0.390463 0.360072 0.644367 0.161876
H54   H     H_    0.608374 0.643018 0.356771 0.168327
H55   H     H_    0.208354 0.303374 0.611783 0.128413
H56   H     H_    0.789772 0.696670 0.386933 0.127597
H57   H     H_    0.215026 0.353179 0.471324 0.165574
H58   H     H_    0.783598 0.644177 0.523152 0.170963
H59   H     H_    0.102173 0.237009 0.449351 0.170573
H60   H     H_    0.898032 0.762032 0.548891 0.169917
O1    O     O_R   0.592570 0.552270 0.644860 -0.607907
O2    O     O_R   0.407430 0.447730 0.355140 -0.616673
O3    O     O_R   0.947720 0.540390 0.092600 -0.632634
O4    O     O_R   0.052280 0.459610 0.907400 -0.632870
O5    O     O_R   0.959660 0.552230 0.907350 -0.629384
O6    O     O_R   0.040340 0.447770 0.092650 -0.631234
O7    O     O_R   0.855120 0.447750 0.907440 -0.635091
O8    O     O_R   0.144880 0.552250 0.092560 -0.631682
O9    O     O_R   0.592650 0.447750 0.540350 -0.636748
O10   O     O_R   0.407350 0.552250 0.459650 -0.641334
O11   O     O_R   0.407370 0.459660 0.552260 -0.646458
O12   O     O_R   0.592630 0.540340 0.447740 -0.630586
O13   O     O_R   0.407450 0.355140 0.447760 -0.600518
O14   O     O_R   0.592550 0.644860 0.552240 -0.593275
O15   O     O_R   0.052270 0.092540 0.644860 -0.647368
O16   O     O_R   0.947730 0.907460 0.355140 -0.644426
O17   O     O_R   0.947710 0.092600 0.540380 -0.631094
O18   O     O_R   0.052290 0.907400 0.459620 -0.632542
O19   O     O_R   0.144880 0.092570 0.552230 -0.626212
O20   O     O_R   0.855120 0.907430 0.447770 -0.625548
O21   O     O_R   0.040310 0.092630 0.447750 -0.639002
O22   O     O_R   0.959690 0.907370 0.552250 -0.639100
O23   O     O_R   0.052260 0.644880 0.092510 -0.631210
O24   O     O_R   0.947740 0.355120 0.907490 -0.630879
Zn1   Zn    Zn3+2 0.499940 0.569790 0.569780 0.929327
Zn2   Zn    Zn3+2 0.500060 0.430210 0.430220 0.923758
Zn3   Zn    Zn3+2 0.069820 0.999960 0.569760 0.891846
Zn4   Zn    Zn3+2 0.930180 0.000040 0.430240 0.893126
Zn5   Zn    Zn3+2 0.069800 0.569760 0.999940 0.908552
Zn6   Zn    Zn3+2 0.930200 0.430240 0.000060 0.909311
N1    N     N_2   0.324429 0.192794 0.394803 -0.267507
H61   H     H_    0.366774 0.167982 0.397453 0.205232
C61   C     C_3   0.251279 0.155608 0.307117 -0.745446
H62   H     H_    0.263520 0.118175 0.255988 0.210098
H63   H     H_    0.245593 0.207049 0.294154 0.234688
H64   H     H_    0.189226 0.110554 0.297720 0.222226
N2    N     N_2   0.679192 0.807276 0.609017 -0.265416
H65   H     H_    0.641066 0.837694 0.609535 0.202912
C62   C     C_3   0.752587 0.841258 0.695401 -0.730732
H66   H     H_    0.741046 0.877010 0.748304 0.210483
H67   H     H_    0.814974 0.887317 0.705535 0.217245
H68   H     H_    0.757646 0.787798 0.704904 0.238050
N3    N     N_2   0.683892 0.613653 0.818398 -0.278052
H69   H     H_    0.719240 0.673978 0.875715 0.211617
C63   C     C_3   0.600040 0.553937 0.806209 -0.731267
H70   H     H_    0.575693 0.593255 0.839633 0.213514
H71   H     H_    0.608158 0.512488 0.835500 0.218606
H72   H     H_    0.547394 0.512356 0.735235 0.246921
N4    N     N_2   0.298153 0.373480 0.184680 -0.271933
H73   H     H_    0.306799 0.325746 0.195282 0.230911
C64   C     C_3   0.303311 0.375361 0.108756 -0.793231
H74   H     H_    0.354992 0.360470 0.103310 0.228469
H75   H     H_    0.321939 0.440726 0.116111 0.241512
H76   H     H_    0.240433 0.324489 0.046387 0.234478
N5    N     N_3   0.794651 0.561893 0.644606 -0.495186
H77   H     H_    0.799861 0.535453 0.587798 0.181005
H78   H     H_    0.856921 0.611491 0.697446 0.184402
N6    N     N_3   0.206020 0.468120 0.375321 -0.480284
H79   H     H_    0.253045 0.479591 0.434424 0.196705
H80   H     H_    0.173914 0.401947 0.328936 0.170499
N7    N     N_3   0.126397 0.208531 0.826754 -0.468042
H81   H     H_    0.169069 0.269253 0.839247 0.162233
H82   H     H_    0.140295 0.163307 0.792743 0.215265
N8    N     N_3   0.874193 0.793183 0.174386 -0.467260
H83   H     H_    0.831532 0.735762 0.168096 0.162273
H84   H     H_    0.861688 0.841589 0.204658 0.215181
N9    N     N_2   0.973813 0.100109 0.763705 -0.310945
H85   H     H_    0.909593 0.082557 0.748539 0.203542
C65   C     C_3   0.003422 0.040586 0.774248 -0.784013
H86   H     H_    0.947358 0.979076 0.754387 0.204067
H87   H     H_    0.052219 0.068841 0.844794 0.246331
H88   H     H_    0.031282 0.022824 0.730806 0.271065
N10   N     N_2   0.027441 0.900726 0.236703 -0.312337
H89   H     H_    0.089322 0.914551 0.244802 0.205274
C66   C     C_3   0.997149 0.959051 0.221643 -0.799875
H90   H     H_    0.053119 0.018363 0.236832 0.209911
H91   H     H_    0.971792 0.980639 0.267039 0.269318
H92   H     H_    0.945934 0.926473 0.150860 0.247447
N11   N     N_3   0.291980 0.264643 0.672936 -0.474329
H93   H     H_    0.255492 0.251880 0.704284 0.188977
H94   H     H_    0.323830 0.228642 0.663810 0.199822
N12   N     N_3   0.707402 0.737607 0.327935 -0.473974
H95   H     H_    0.741654 0.746779 0.293863 0.188486
H96   H     H_    0.677936 0.775807 0.338484 0.201184

loop_
_geom_bond_atom_site_label_1
_geom_bond_atom_site_label_2
_ccdc_geom_bond_type
C15   H15   S    
C64   H74   S    
C1    C21   S    
C63   H70   S    
C39   O5    A    
C28   H24   S    
N4    C64   S    
N4    H73   S    
O17   Zn4   S    
C48   H50   S    
N3    H69   S    
C17   H31   S    
C30   H30   S    
C50   H36   S    
O20   Zn4   S    
C29   H29   S    
N6    H79   S    
C57   H55   S    
C20   C30   S    
N7    H81   S    
C53   H39   S    
C50   H44   S    
C12   H8    S    
O19   Zn3   S    
C44   N10   S    
N2    H65   S    
N12   H96   S    
C46   H2    S    
C14   H14   S    
C53   H19   S    
C1    O9    A    
C42   H38   S    
O7    Zn6   S    
C18   H22   S    
N9    C65   S    
C15   C25   S    
C32   C46   S    
C40   O8    A    
C26   C40   S    
N8    H83   S    
C28   H34   S    
C8    C36   S    
C45   H1    S    
C65   H87   S    
C36   O22   A    
O24   Zn6   S    
O21   Zn4   S    
C35   O19   A    
C37   O3    A    
C4    N2    S    
C41   H41   S    
N10   C66   S    
C20   H26   S    
C2    C22   S    
O23   Zn5   S    
N1    H61   S    
C62   H67   S    
C60   H58   S    
C14   C16   S    
C34   O16   A    
C33   O15   A    
C4    C12   S    
C17   H21   S    
C44   N8    S    
C34   O18   A    
C66   H92   S    
C8    C58   S    
C44   C52   S    
N7    H82   S    
C15   H17   S    
O3    Zn6   S    
C45   C53   S    
N11   H93   S    
C59   H57   S    
C16   H16   S    
C57   N11   S    
O10   Zn1   S    
C58   H56   S    
C32   C48   S    
C62   H66   S    
C54   H40   S    
C56   H52   S    
C7    C35   S    
C31   C49   S    
C14   N4    S    
C42   H42   S    
C41   C49   S    
C26   C28   S    
C45   H45   S    
C11   H7    S    
C13   N3    S    
C54   H20   S    
C2    O2    A    
C25   C29   S    
C64   H76   S    
C39   O7    A    
N12   H95   S    
C5    C59   S    
C23   O11   A    
C17   C27   S    
C6    C60   S    
C47   H47   S    
C18   C28   S    
N5    H78   S    
C33   O17   A    
C23   O13   A    
O2    Zn2   S    
C20   N6    S    
C55   H53   S    
C3    C5    S    
C47   H49   S    
C12   H6    S    
C43   N7    S    
C17   C21   S    
C33   C51   S    
C9    C59   S    
N2    C62   S    
C65   H88   S    
C10   C60   S    
C19   C21   S    
O4    Zn5   S    
C64   H75   S    
C24   O12   A    
C7    C11   S    
N5    H77   S    
C5    C23   S    
C60   H10   S    
O18   Zn3   S    
C8    C12   S    
C6    C24   S    
C46   C54   S    
C62   H68   S    
C13   C21   S    
C32   C37   S    
C49   H35   S    
C61   H64   S    
C36   O20   A    
C32   C50   S    
O9    Zn2   S    
O16   Zn4   S    
O5    Zn5   S    
C42   C50   S    
C4    C6    S    
C3    H3    S    
C13   H13   S    
C26   C30   S    
C63   H72   S    
O15   Zn3   S    
C55   C57   S    
C31   C45   S    
C9    H59   S    
O1    Zn1   S    
C41   H37   S    
C27   H33   S    
C61   H63   S    
C30   H28   S    
C19   C29   S    
C38   O4    A    
C59   H9    S    
C24   O14   A    
C7    C9    S    
O14   Zn1   S    
C37   O23   A    
C55   H51   S    
C18   C22   S    
C38   O24   A    
O22   Zn3   S    
C5    C55   S    
C8    C10   S    
C9    H11   S    
C20   C22   S    
C3    N1    S    
C19   H25   S    
C16   C26   S    
C43   N9    S    
C49   H43   S    
N6    H80   S    
C41   C51   S    
C25   C27   S    
C4    H4    S    
C34   C52   S    
N8    H84   S    
C31   C38   S    
C18   H32   S    
C14   C22   S    
C13   C15   S    
O12   Zn2   S    
N9    H85   S    
C6    C56   S    
O6    Zn6   S    
C43   C51   S    
C48   H48   S    
C46   H46   S    
C27   H23   S    
C2    O10   A    
C56   C58   S    
C52   C54   S    
O11   Zn1   S    
C16   H18   S    
N1    C61   S    
C65   H86   S    
C1    O1    A    
C29   H27   S    
C3    C11   S    
C66   H90   S    
C44   C48   S    
O8    Zn5   S    
C35   O21   A    
C58   N12   S    
C63   H71   S    
N10   H89   S    
C19   N5    S    
N11   H94   S    
C56   H54   S    
C40   O6    A    
N3    C63   S    
C31   C47   S    
O13   Zn2   S    
C51   C53   S    
C61   H62   S    
C43   C47   S    
C7    C57   S    
C10   H60   S    
C25   C39   S    
C11   H5    S    
C42   C52   S    
C66   H91   S    
C10   H12   S    
