data_mof_unit_57389.cif
_audit_creation_date              2012-12-10T17:08:12-0500
_audit_creation_method            fapswitch 2.2
_symmetry_space_group_name_H-M    P1
_symmetry_Int_Tables_number       1
_space_group_crystal_system       triclinic
_cell_length_a                    23.569683
_cell_length_b                    10.803584
_cell_length_c                    9.779914
_cell_angle_alpha                 109.675309
_cell_angle_beta                  98.808277
_cell_angle_gamma                 90.055622
_cell_volume                      2313.58182949

loop_
_atom_site_label
_atom_site_type_symbol
_atom_type_description
_atom_site_fract_x
_atom_site_fract_y
_atom_site_fract_z
_atom_type_partial_charge
C1    C     C_R   0.494805 0.252896 0.442997 0.859850
C2    C     C_R   0.502335 0.747199 0.557254 0.853973
C3    C     C_R   0.227647 0.492765 0.392913 -0.160121
C4    C     C_R   0.755961 0.454335 0.374439 -0.162313
C5    C     C_R   0.285884 0.495120 0.381064 -0.052246
C6    C     C_R   0.696125 0.449132 0.364923 -0.040224
C7    C     C_R   0.327733 0.488169 0.499341 -0.131599
C8    C     C_R   0.671868 0.489527 0.496597 -0.181604
C9    C     C_R   0.308769 0.470912 0.621765 -0.221432
C10   C     C_R   0.708907 0.526741 0.632988 -0.241833
C11   C     C_R   0.250136 0.460975 0.628633 0.373260
C12   C     C_R   0.768542 0.525284 0.641292 0.460548
C13   C     C_R   0.209567 0.475812 0.514914 0.207457
C14   C     C_R   0.792139 0.491081 0.510670 0.193453
C15   C     C_2   0.488262 0.111024 0.418577 -0.243995
C16   C     C_2   0.499437 0.889526 0.583288 -0.249009
C17   C     C_2   0.457105 0.070071 0.504156 -0.059537
C18   C     C_2   0.456472 0.933388 0.503202 -0.079442
C19   C     C_2   0.504951 0.510522 0.080859 -0.021350
C20   C     C_2   0.495378 0.488689 0.918993 -0.038311
C21   C     C_R   0.390689 0.497731 0.499849 0.921687
C22   C     C_R   0.609085 0.496010 0.498145 0.855820
C23   C     C_R   0.884522 0.606888 0.553307 0.657738
C24   C     C_R   0.117093 0.359638 0.468914 0.663515
C25   C     C_R   0.878113 0.372192 0.474769 0.653549
C26   C     C_R   0.125016 0.594106 0.571475 0.626736
C27   C     C_R   0.937435 0.367752 0.475660 -0.082310
C28   C     C_R   0.065608 0.598749 0.569251 -0.072458
C29   C     C_R   0.971371 0.486134 0.520282 -0.047067
C30   C     C_R   0.031447 0.480490 0.521518 -0.046401
C31   C     C_R   0.945226 0.609479 0.562433 -0.144767
C32   C     C_R   0.057292 0.357176 0.474096 -0.144048
C33   C     C_R   0.962982 0.246672 0.434161 -0.170238
C34   C     C_R   0.040276 0.719868 0.613420 -0.180550
C35   C     C_R   0.022047 0.238655 0.433145 0.398851
C36   C     C_R   0.981011 0.728105 0.610791 0.391834
Cu1   Cu    Cu3+1 0.509980 0.521810 0.644910 1.024407
Cu2   Cu    Cu3+1 0.490020 0.478190 0.355090 1.068081
H1    H     H_    0.936373 0.156676 0.402028 0.255037
H2    H     H_    0.067231 0.809730 0.649810 0.254155
H3    H     H_    0.555638 0.624059 0.933777 0.213891
H4    H     H_    0.444186 0.376355 0.066285 0.239369
H5    H     H_    0.195542 0.501700 0.305084 0.191675
H6    H     H_    0.775008 0.425331 0.274910 0.199921
H7    H     H_    0.339880 0.463142 0.711783 0.201847
H8    H     H_    0.691360 0.557099 0.734568 0.216026
H9    H     H_    0.462579 0.415561 0.846738 0.179169
H10   H     H_    0.537980 0.583109 0.153053 0.163110
N1    N     N_R   0.853206 0.490141 0.513937 -0.456336
N2    N     N_R   0.149252 0.476169 0.521901 -0.460123
N3    N     N_2   0.475010 0.445410 0.137370 -0.256888
N4    N     N_2   0.524990 0.554590 0.862630 -0.285291
O1    O     O_R   0.505330 0.332340 0.577400 -0.571346
O2    O     O_R   0.494670 0.667660 0.422600 -0.566617
O3    O     O_R   0.488470 0.295500 0.332650 -0.525178
O4    O     O_R   0.511530 0.704500 0.667350 -0.542232
O5    O     O_R   0.426310 0.518390 0.622390 -0.579418
O6    O     O_R   0.573690 0.481610 0.377610 -0.565921
O7    O     O_R   0.409450 0.481550 0.377650 -0.543609
O8    O     O_R   0.590550 0.518450 0.622350 -0.570670
O9    O     O_2   0.856172 0.718397 0.581335 -0.402118
O10   O     O_2   0.143430 0.248331 0.409624 -0.402893
O11   O     O_2   0.845299 0.259379 0.435690 -0.470272
O12   O     O_2   0.158506 0.706791 0.620972 -0.484973
S1    S     S_3+6 0.048185 0.077481 0.386371 0.100741
O13   O     O_2   0.070570 0.043536 0.242982 -0.187671
O14   O     O_2   0.095696 0.072406 0.505675 -0.184054
O15   O     O_3   0.995560 0.964813 0.367517 -0.490604
H11   H     H_    0.015244 0.882234 0.359278 0.385068
S2    S     S_3+6 0.956101 0.890126 0.673951 0.102898
O16   O     O_2   0.915892 0.913684 0.551234 -0.194536
O17   O     O_2   0.925072 0.905145 0.801479 -0.168946
O18   O     O_3   0.011312 0.004066 0.729740 -0.490760
H12   H     H_    0.993244 0.089107 0.742258 0.394149
C37   C     C_2   0.299725 0.506159 0.243492 0.977210
O19   O     O_2   0.324993 0.419635 0.163330 -0.523465
O20   O     O_R   0.279912 0.611330 0.200482 -0.719355
H13   H     H_    0.292938 0.610640 0.106276 0.353278
C38   C     C_2   0.661693 0.395640 0.215629 0.894264
O21   O     O_2   0.625499 0.305404 0.186345 -0.525429
O22   O     O_R   0.672960 0.443918 0.106038 -0.726356
H14   H     H_    0.647164 0.399047 0.008258 0.336155
S3    S     S_3+6 0.228555 0.431337 0.780640 0.056144
O23   O     O_2   0.185754 0.315413 0.727788 -0.169389
O24   O     O_2   0.279555 0.401950 0.874855 -0.282501
O25   O     O_3   0.197514 0.564153 0.880620 -0.476252
H15   H     H_    0.223336 0.640204 0.890734 0.354057
S4    S     S_3+6 0.812341 0.566361 0.816234 0.066901
O26   O     O_2   0.832921 0.708718 0.866707 -0.199666
O27   O     O_2   0.778389 0.545694 0.925746 -0.243025
O28   O     O_3   0.869436 0.472346 0.806545 -0.521697
H16   H     H_    0.895139 0.512785 0.901998 0.385964
C39   C     C_2   0.404018 0.851451 0.414430 0.945866
O29   O     O_2   0.384364 0.764369 0.450173 -0.613371
O30   O     O_R   0.375032 0.881406 0.294552 -0.709733
H17   H     H_    0.338165 0.825547 0.246930 0.363179
C40   C     C_2   0.417037 0.155238 0.593840 0.910926
O31   O     O_2   0.389892 0.234398 0.549809 -0.616083
O32   O     O_R   0.407986 0.138820 0.724860 -0.717085
H18   H     H_    0.379348 0.200952 0.775142 0.354895
C41   C     C_2   0.546462 0.979044 0.691677 0.892722
O33   O     O_2   0.590997 0.933082 0.730282 -0.549521
O34   O     O_R   0.539911 0.114351 0.752249 -0.732760
H19   H     H_    0.574893 0.163063 0.824717 0.354229
C42   C     C_2   0.519627 0.019650 0.307038 0.885581
O35   O     O_2   0.557917 0.064054 0.262344 -0.528430
O36   O     O_R   0.505120 0.884362 0.250415 -0.744667
H20   H     H_    0.529542 0.834466 0.175077 0.330912

loop_
_geom_bond_atom_site_label_1
_geom_bond_atom_site_label_2
_ccdc_geom_bond_type
C9    H7    S    
C41   O33   D    
C27   C29   A    
O18   H12   S    
O30   H17   S    
O22   H14   S    
O20   H13   S    
C27   C33   A    
C42   O36   S    
C3    H5    S    
C39   O29   D    
S3    O23   D    
C34   H2    S    
C21   O7    A    
C26   N2    A    
C22   O8    A    
C23   N1    A    
C14   N1    S    
C35   S1    S    
C7    C9    A    
C25   O11   S    
C26   O12   S    
C1    O1    A    
Cu2   O6    S    
Cu1   O4    S    
Cu2   O3    S    
C19   C20   S    
O15   H11   S    
S1    O14   D    
C10   H8    S    
C8    C22   S    
O36   H20   S    
S2    O16   D    
C1    C15   S    
C29   C30   A    
C2    C16   S    
H3    N4    S    
C3    C13   A    
H4    N3    S    
Cu1   O1    S    
C28   C34   A    
C39   O30   S    
C40   O32   S    
C36   S2    S    
C40   O31   D    
C24   N2    A    
C12   S4    S    
Cu1   O8    S    
C32   C35   A    
C38   O21   D    
C4    C6    A    
C2    O2    A    
O28   H16   S    
C38   O22   S    
Cu1   N4    S    
O25   H15   S    
C6    C8    A    
Cu2   N3    S    
C4    H6    S    
C11   S3    S    
C7    C21   S    
Cu2   O7    S    
C23   C31   A    
C5    C37   S    
C37   O19   D    
C24   C32   A    
C21   O5    A    
Cu1   Cu2   S    
C37   O20   S    
O32   H18   S    
Cu2   O2    S    
S4    O28   S    
C29   C31   A    
S1    O15   S    
S2    O18   S    
C17   C18   S    
C33   H1    S    
C9    C11   A    
C10   C12   A    
C16   C18   D    
S3    O24   D    
C12   C14   A    
C5    C7    A    
C41   O34   S    
C15   C17   D    
C24   O10   S    
C19   H10   S    
S4    O27   D    
C3    C5    A    
C22   O6    A    
C25   C27   A    
C42   O35   D    
C26   C28   A    
C15   C42   S    
C28   C30   A    
C1    O3    A    
C20   N4    D    
C2    O4    A    
C30   C32   A    
C11   C13   A    
C6    C38   S    
C33   C35   A    
C34   C36   A    
C4    C14   A    
C25   N1    A    
C20   H9    S    
C13   N2    S    
C19   N3    D    
C16   C41   S    
C23   O9    S    
S3    O25   S    
S4    O26   D    
C8    C10   A    
S1    O13   D    
O34   H19   S    
C18   C39   S    
C31   C36   A    
S2    O17   D    
C17   C40   S    
Cu1   O5    S    
