data_mof_unit_31985.cif
_audit_creation_date              2012-10-26T19:03:32-0400
_audit_creation_method            fapswitch 2.2
_symmetry_space_group_name_H-M    P1
_symmetry_Int_Tables_number       1
_space_group_crystal_system       triclinic
_cell_length_a                    10.864646
_cell_length_b                    12.996401
_cell_length_c                    11.819066
_cell_angle_alpha                 100.771846
_cell_angle_beta                  95.225316
_cell_angle_gamma                 95.141304
_cell_volume                      1622.91989512

loop_
_atom_site_label
_atom_site_type_symbol
_atom_type_description
_atom_site_fract_x
_atom_site_fract_y
_atom_site_fract_z
_atom_type_partial_charge
C1    C     C_R   0.497555 0.298232 0.476562 0.551266
C2    C     C_R   0.463515 0.114290 0.348911 -0.009149
C3    C     C_R   0.519931 0.139013 0.556494 -0.081348
C4    C     C_R   0.261032 0.499400 0.498836 0.578342
C5    C     C_R   0.503001 0.030730 0.551883 0.020533
C6    C     C_R   0.461543 0.962283 0.444053 -0.006072
C7    C     C_R   0.426494 0.854806 0.443687 0.015828
C8    C     C_R   0.498407 0.881695 0.649265 -0.002671
C9    C     C_R   0.519250 0.990716 0.654803 0.060542
C10   C     C_R   0.393896 0.382678 0.019963 0.075543
C11   C     C_R   0.403484 0.398969 0.141530 0.061990
C12   C     C_R   0.068012 0.520101 0.600732 -0.034717
C13   C     C_R   0.556153 0.544059 0.158830 0.284371
C14   C     C_R   0.555472 0.528265 0.034333 -0.017297
C15   C     C_R   0.464183 0.453039 0.963221 -0.039420
C16   C     C_R   0.489748 0.699883 0.522853 0.604090
C17   C     C_R   0.451214 0.449780 0.839576 0.130047
C18   C     C_R   0.617792 0.585803 0.858494 0.225487
C19   C     C_R   0.643158 0.583276 0.977371 0.082460
C20   C     C_R   0.735059 0.486776 0.499413 0.571285
C21   C     C_R   0.132462 0.575686 0.706329 -0.044563
C22   C     C_R   0.095070 0.556209 0.811099 0.157674
C23   C     C_R   0.123903 0.492439 0.496344 0.011454
C24   C     C_R   0.994037 0.479824 0.808656 0.113432
C25   C     C_R   0.911959 0.446734 0.705857 0.030893
C26   C     C_R   0.944765 0.479301 0.603029 0.002537
C27   C     C_2   0.443585 0.156699 0.241583 0.228091
C28   C     C_2   0.361226 0.370565 0.762760 0.340063
C29   C     C_2   0.807522 0.363943 0.702720 0.295511
C30   C     C_2   0.834897 0.385693 0.285511 0.311684
C31   C     C_2   0.320556 0.795334 0.359876 0.308836
C32   C     C_2   0.492009 0.843384 0.759348 0.309195
C33   C     C_2   0.453897 0.935228 0.224114 0.232042
C34   C     C_R   0.046776 0.437090 0.395722 0.112112
C35   C     C_R   0.916836 0.433131 0.393601 0.004710
C36   C     C_R   0.865513 0.463041 0.498711 -0.019328
C37   C     C_R   0.469654 0.812987 0.539730 0.012065
C38   C     C_R   0.494064 0.182176 0.458826 -0.013689
C39   C     C_R   0.454443 0.004012 0.340719 0.006365
Cu1   Cu    Cu3+1 0.509250 0.507730 0.615930 1.041129
Cu2   Cu    Cu3+1 0.490750 0.492270 0.384070 1.064153
H1    H     H_    0.549518 0.192118 0.637784 0.176533
H2    H     H_    0.409805 0.955817 0.146714 0.185451
H3    H     H_    0.354531 0.343239 0.182519 0.190051
H4    H     H_    0.216323 0.627656 0.708386 0.201904
H5    H     H_    0.517194 0.206834 0.216162 0.130246
H6    H     H_    0.389483 0.294815 0.725673 0.117976
H7    H     H_    0.759232 0.361558 0.778790 0.129614
H8    H     H_    0.752738 0.332627 0.288662 0.109991
H9    H     H_    0.278506 0.829851 0.291340 0.142349
H10   H     H_    0.562470 0.872290 0.832101 0.164106
I1    I     I_    0.116179 0.331683 0.260790 -0.136514
I2    I     I_    0.575160 0.093334 0.821083 -0.325094
I3    I     I_    0.735476 0.694785 0.788363 -0.237024
I4    I     I_    0.282132 0.238360 0.942396 -0.159034
I5    I     I_    0.836429 0.626277 0.044884 -0.157992
I6    I     I_    0.670681 0.676249 0.266865 -0.087306
I7    I     I_    0.208552 0.629672 0.965968 -0.157382
I8    I     I_    0.988033 0.393035 0.944997 -0.104071
N1    N     N_R   0.523180 0.519350 0.790130 -0.264494
N2    N     N_R   0.476820 0.480650 0.209890 -0.265608
O1    O     O_R   0.506570 0.354460 0.582000 -0.531285
O2    O     O_2   0.252594 0.385761 0.746607 -0.483372
O3    O     O_2   0.776588 0.295961 0.615943 -0.509603
O4    O     O_2   0.855758 0.408587 0.193092 -0.429827
O5    O     O_2   0.271292 0.710404 0.371694 -0.467177
O6    O     O_2   0.403886 0.782879 0.771760 -0.472648
O7    O     O_2   0.506798 0.855743 0.212649 -0.469281
O8    O     O_R   0.490940 0.341410 0.386200 -0.542380
O9    O     O_R   0.327470 0.506530 0.597920 -0.487291
O10   O     O_R   0.311840 0.493480 0.402120 -0.453494
O11   O     O_R   0.509060 0.658590 0.613800 -0.466068
O12   O     O_R   0.493430 0.645540 0.418000 -0.441992
O13   O     O_R   0.688160 0.506520 0.597880 -0.487293
O14   O     O_R   0.672530 0.493470 0.402080 -0.510207
O15   O     O_2   0.343844 0.135857 0.181315 -0.477259

loop_
_geom_bond_atom_site_label_1
_geom_bond_atom_site_label_2
_ccdc_geom_bond_type
C19   I5    S    
C31   O5    D    
C28   H6    S    
Cu1   N1    S    
C35   C36   A    
C16   O11   A    
Cu2   N2    S    
C1    O1    A    
C4    O9    A    
C3    H1    S    
C12   C23   A    
C33   C39   S    
Cu1   O9    S    
C30   C35   S    
C34   C35   A    
C10   C15   A    
C5    C6    A    
C13   I6    S    
Cu1   O1    S    
C18   C19   A    
C2    C39   A    
C3    C38   A    
C8    C9    A    
C2    C27   S    
C16   C37   S    
Cu2   O10   S    
C29   O3    D    
C13   C14   A    
C21   H4    S    
C25   C29   S    
C7    C31   S    
C29   H7    S    
C16   O12   A    
C8    C32   S    
C24   C25   A    
C4    C23   S    
C3    C5    A    
C25   C26   A    
C12   C21   A    
C1    O8    A    
C20   O14   A    
C12   C26   A    
C33   H2    S    
C32   H10   S    
C5    C9    A    
Cu2   O14   S    
C2    C38   A    
C23   C34   A    
C7    C37   A    
C20   O13   A    
C11   H3    S    
C10   I4    S    
C1    C38   S    
C32   O6    D    
C27   H5    S    
C18   N1    A    
Cu1   Cu2   S    
C30   H8    S    
C22   C24   A    
C9    I2    S    
C8    C37   A    
C31   H9    S    
C27   O15   D    
Cu2   O8    S    
C26   C36   A    
C15   C17   A    
Cu1   O11   S    
C14   C15   A    
C17   C28   S    
C14   C19   A    
C11   N2    A    
C22   I7    S    
C6    C7    A    
C34   I1    S    
C24   I8    S    
Cu1   O13   S    
C30   O4    D    
C10   C11   A    
C18   I3    S    
C17   N1    A    
Cu2   O12   S    
C20   C36   S    
C28   O2    D    
C13   N2    A    
C6    C39   A    
C21   C22   A    
C4    O10   A    
C33   O7    D    
