data_mof_unit_6119.cif
_audit_creation_date              2012-12-11T18:13:23-0500
_audit_creation_method            fapswitch 2.2
_symmetry_space_group_name_H-M    P1
_symmetry_Int_Tables_number       1
_space_group_crystal_system       triclinic
_cell_length_a                    8.37995
_cell_length_b                    12.817884
_cell_length_c                    18.696371
_cell_angle_alpha                 99.287683
_cell_angle_beta                  91.409865
_cell_angle_gamma                 98.782483
_cell_volume                      1956.17434212

loop_
_atom_site_label
_atom_site_type_symbol
_atom_type_description
_atom_site_fract_x
_atom_site_fract_y
_atom_site_fract_z
_atom_type_partial_charge
Ba1   Ba    Ba6+2 0.852780 0.548340 0.465070 1.746109
Ba2   Ba    Ba6+2 0.337060 0.451750 0.534940 1.701048
C1    C     C_3   0.814720 0.829149 0.178859 0.389977
C2    C     C_3   0.744169 0.768097 0.238337 0.602923
C3    C     C_3   0.447859 0.275613 0.318165 0.382923
C4    C     C_3   0.405828 0.238865 0.237465 -0.334720
C5    C     C_3   0.099598 0.160912 0.727198 0.884804
C6    C     C_3   0.164125 0.096960 0.781475 -0.328893
C7    C     C_3   0.598793 0.198378 0.711085 0.370579
C8    C     C_3   0.628297 0.111774 0.754210 -0.382699
C9    C     C_R   0.970410 0.474551 0.051447 -0.005170
C10   C     C_R   0.871897 0.418207 0.097061 -0.007301
C11   C     C_R   0.707916 0.381276 0.075065 -0.087689
C12   C     C_3   0.263852 0.860476 0.285074 0.704340
C13   C     C_R   0.646768 0.393088 0.007171 -0.100278
C14   C     C_R   0.747832 0.441199 0.959132 0.038911
C15   C     C_R   0.909126 0.484340 0.981653 0.039273
C16   C     C_R   0.691398 0.442569 0.888118 -0.117456
C17   C     C_R   0.796066 0.482230 0.837197 -0.040382
C18   C     C_R   0.954736 0.533250 0.860934 -0.004400
C19   C     C_R   0.010312 0.534008 0.933556 -0.029537
C20   C     C_R   0.750672 0.465885 0.762401 -0.035572
C21   C     C_R   0.862412 0.499247 0.712716 -0.254860
C22   C     C_R   0.017248 0.554806 0.735188 0.074652
C23   C     C_3   0.250163 0.834155 0.202496 0.245943
C24   C     C_R   0.062904 0.574841 0.810832 -0.028307
C25   C     C_R   0.131771 0.516897 0.074069 -0.007482
C26   C     C_R   0.192105 0.511131 0.145072 0.003864
C27   C     C_R   0.092144 0.456485 0.192448 -0.038302
C28   C     C_R   0.938904 0.399174 0.163487 0.401581
C29   C     C_R   0.216453 0.629487 0.837799 -0.067088
C30   C     C_R   0.271964 0.628997 0.909264 0.030302
C31   C     C_R   0.170855 0.577496 0.956484 -0.001241
C32   C     C_R   0.231440 0.568772 0.026424 0.011176
C33   C     C_R   0.430066 0.675565 0.933536 -0.102895
C34   C     C_3   0.281779 0.781504 0.624568 0.287413
C35   C     C_R   0.491008 0.664020 0.001349 -0.099060
C36   C     C_R   0.392859 0.611154 0.048260 0.028221
C37   C     C_R   0.354277 0.557959 0.167618 0.003933
C38   C     C_R   0.453583 0.602634 0.117082 -0.113522
C39   C     C_R   0.411009 0.558239 0.239858 -0.010201
C40   C     C_R   0.308431 0.511417 0.287146 -0.293610
C41   C     C_R   0.152972 0.459482 0.265668 0.083469
C42   C     C_R   0.751332 0.183703 0.534857 -0.214589
C43   C     C_R   0.435799 0.808286 0.467755 0.132690
C44   C     C_R   0.388182 0.987377 0.459992 -0.136725
C45   C     C_3   0.354349 0.897480 0.653253 -0.437430
C46   C     C_R   0.334296 0.877596 0.448445 -0.072331
C47   C     C_R   0.579358 0.849176 0.509431 0.061339
C48   C     C_R   0.635498 0.962368 0.521983 -0.074048
C49   C     C_R   0.540803 0.031167 0.493579 -0.071332
C50   C     C_R   0.605248 0.140920 0.496349 0.053063
C51   C     C_R   0.842885 0.118862 0.565374 -0.009516
C52   C     C_R   0.785837 0.008725 0.558624 -0.045528
C53   C     C_3   0.902175 0.199776 0.345486 0.676726
C54   C     C_3   0.952523 0.092338 0.355445 0.242622
C55   C     C_3   0.813674 0.771110 0.687245 0.719301
C56   C     C_3   0.938140 0.872162 0.699930 -0.230492
H1    H     H_    0.805268 0.805818 0.291339 0.008252
H2    H     H_    0.375739 0.908987 0.713001 0.142166
H3    H     H_    0.472288 0.920296 0.631424 0.074967
H4    H     H_    0.273102 0.951807 0.638408 0.131666
H5    H     H_    0.874275 0.242582 0.399194 -0.051673
H6    H     H_    0.980149 0.046435 0.302611 -0.029126
H7    H     H_    0.068084 0.109784 0.388399 0.079248
H8    H     H_    0.864864 0.703366 0.656638 -0.031001
H9    H     H_    0.929077 0.881217 0.200998 -0.007311
H10   H     H_    0.002486 0.882143 0.650085 0.050368
H11   H     H_    0.026462 0.867563 0.744013 0.114686
H12   H     H_    0.879062 0.942991 0.717395 0.063991
H13   H     H_    0.613351 0.775477 0.240131 -0.373175
H14   H     H_    0.728201 0.882149 0.165685 -0.073496
H15   H     H_    0.341915 0.305175 0.343870 -0.012364
H16   H     H_    0.551622 0.341673 0.325188 0.097989
H17   H     H_    0.298045 0.175200 0.229351 0.098019
H18   H     H_    0.378746 0.307117 0.212105 0.035848
H19   H     H_    0.508896 0.207104 0.210302 0.146409
H20   H     H_    0.372321 0.829023 0.181458 0.016568
H21   H     H_    0.964922 0.142813 0.723574 -0.230882
H22   H     H_    0.273418 0.143599 0.812784 0.126754
H23   H     H_    0.070533 0.076650 0.820214 0.036613
H24   H     H_    0.198371 0.022016 0.753641 0.072754
H25   H     H_    0.719363 0.238773 0.697966 -0.096133
H26   H     H_    0.528589 0.160406 0.659831 0.053608
H27   H     H_    0.713865 0.146631 0.801323 0.105053
H28   H     H_    0.680016 0.048672 0.718914 0.076619
H29   H     H_    0.345953 0.808243 0.303314 -0.084234
H30   H     H_    0.513617 0.075091 0.774469 0.117339
H31   H     H_    0.625092 0.343713 0.110352 0.087781
H32   H     H_    0.520975 0.361934 0.991526 0.067106
H33   H     H_    0.826199 0.484195 0.655558 0.051208
H34   H     H_    0.567456 0.407327 0.872419 0.110396
H35   H     H_    0.296617 0.668539 0.802765 0.069154
H36   H     H_    0.507529 0.720451 0.900118 0.062204
H37   H     H_    0.614967 0.697098 0.017151 0.117074
H38   H     H_    0.578352 0.632701 0.130251 0.143390
H39   H     H_    0.355619 0.508136 0.341015 0.069167
H40   H     H_    0.311855 0.036823 0.439167 0.157059
H41   H     H_    0.864861 0.959970 0.577810 0.071541
H42   H     H_    0.801266 0.266991 0.535788 0.034477
H43   H     H_    0.202188 0.898980 0.179999 -0.003225
H44   H     H_    0.379720 0.734307 0.612615 0.081492
H45   H     H_    0.205075 0.776648 0.574444 0.039334
O1    O     O_2   0.873090 0.425890 0.325140 -0.392293
O2    O     O_3   0.676103 0.792290 0.650816 -0.701256
O3    O     O_3   0.109631 0.842454 0.314269 -0.606256
O4    O     O_2   0.316610 0.574140 0.674900 -0.488210
O5    O     O_3   0.067290 0.565720 0.585630 -0.483578
O6    O     O_3   0.530210 0.372990 0.631200 -0.473479
O7    O     O_3   0.188140 0.744355 0.678446 -0.666560
O8    O     O_3   0.611340 0.366290 0.463630 -0.491366
O9    O     O_3   0.108550 0.314140 0.595200 -0.444042
O10   O     O_2   0.140004 0.126070 0.523913 -0.473405
O11   O     O_3   0.160024 0.128151 0.659173 -0.616939
O12   O     O_3   0.122420 0.434370 0.414380 -0.490184
O13   O     O_3   0.578370 0.633800 0.536380 -0.425363
O14   O     O_2   0.341510 0.231850 0.465510 -0.464633
O15   O     O_3   0.488945 0.189682 0.348692 -0.595927
O16   O     O_2   0.410452 0.451597 0.755259 -0.462717
O17   O     O_3   0.508634 0.268313 0.752159 -0.570976
O18   O     O_3   0.659500 0.627100 0.368810 -0.459313
O19   O     O_2   0.670027 0.476247 0.255433 -0.463659
O20   O     O_3   0.031516 0.256057 0.315418 -0.678948
O21   O     O_3   0.769250 0.661105 0.226206 -0.557790
O22   O     O_2   0.848200 0.768190 0.534530 -0.502302
O23   O     O_3   0.081160 0.685950 0.404810 -0.447734
O24   O     O_2   0.997800 0.876754 0.444462 -0.438525
P1    P     P_3+3 0.041040 0.394770 0.336330 1.059937
P2    P     P_3+3 0.672880 0.754030 0.556100 0.978657
P3    P     P_3+3 0.131717 0.823286 0.404746 1.020177
P4    P     P_3+3 0.148670 0.605320 0.663680 0.981273
P5    P     P_3+3 0.057029 0.174317 0.590764 0.998382
P6    P     P_3+3 0.625405 0.588818 0.273374 0.973395
P7    P     P_3+3 0.519225 0.230086 0.442403 0.959848
P8    P     P_3+3 0.550001 0.393734 0.725460 0.992882
O25   O     O_3   0.767317 0.183348 0.297056 -0.717706
H46   H     H_    0.795984 0.143334 0.250360 0.286630
O26   O     O_3   0.839035 0.030987 0.392574 -0.659539
C57   C     C_3   0.702105 0.983182 0.346987 0.253751
H47   H     H_    0.652115 0.905833 0.363167 0.032311
H48   H     H_    0.723975 0.970490 0.288358 -0.038699
H49   H     H_    0.608958 0.034385 0.354727 0.148511
O27   O     O_3   0.776885 0.747268 0.756946 -0.702388
C58   C     C_3   0.624928 0.683172 0.755185 0.224939
H50   H     H_    0.605821 0.619730 0.706386 0.046691
H51   H     H_    0.529147 0.734326 0.756829 0.069552
H52   H     H_    0.618371 0.643729 0.803533 0.030625
O28   O     O_3   0.842090 0.758156 0.115968 -0.621491
C59   C     C_3   0.899737 0.817452 0.061842 0.128357
H53   H     H_    0.013776 0.872877 0.080247 0.018811
H54   H     H_    0.807197 0.863080 0.044388 0.023723
H55   H     H_    0.925981 0.760722 0.013797 0.075917
O29   O     O_3   0.156152 0.271119 0.749645 -0.602350
C60   C     C_3   0.077224 0.310825 0.811389 0.155146
H56   H     H_    0.075975 0.261835 0.855272 -0.013148
H57   H     H_    0.951697 0.318096 0.795722 0.009177
H58   H     H_    0.146675 0.389489 0.834956 0.099277
O30   O     O_3   0.863347 0.318176 0.196743 -0.694594
H59   H     H_    0.801881 0.261554 0.159550 0.269668
O31   O     O_3   0.334283 0.967921 0.305096 -0.812777
H60   H     H_    0.252181 0.012382 0.294812 0.288808
O32   O     O_3   0.394335 0.699557 0.447642 -0.701837
H61   H     H_    0.365719 0.687021 0.394996 0.269315
O33   O     O_3   0.148386 0.736896 0.180524 -0.704778
H62   H     H_    0.140523 0.727215 0.126877 0.316801

loop_
_geom_bond_atom_site_label_1
_geom_bond_atom_site_label_2
_ccdc_geom_bond_type
C55   O2    S    
C53   C54   S    
C8    H27   S    
O10   P5    D    
O6    P8    S    
C50   P7    S    
C39   C40   A    
C17   C18   A    
Ba1   P1    S    
C55   H8    S    
C45   H4    S    
C39   P6    S    
C55   C56   S    
C4    H17   S    
C37   C39   A    
C51   C52   A    
C10   C11   A    
Ba2   O9    S    
C48   C52   A    
O21   P6    S    
C34   H45   S    
C6    H24   S    
C5    O11   S    
O33   H62   S    
C33   C35   A    
C35   C36   A    
Ba1   O22   S    
C12   H29   S    
Ba1   Ba2   S    
Ba1   P2    S    
C59   H54   S    
C3    C4    S    
C57   H49   S    
C43   C46   A    
C19   C31   A    
O23   P3    S    
C23   O33   S    
O27   C58   S    
Ba2   O4    S    
C35   H37   S    
C34   C45   S    
C34   H44   S    
C16   C17   A    
C3    H16   S    
O5    P4    S    
C45   H2    S    
Ba2   O13   S    
C42   C51   A    
C8    H28   S    
O13   P2    S    
C14   C15   A    
C53   H5    S    
C21   C22   A    
C54   H6    S    
Ba1   O13   S    
C9    C25   A    
C7    C8    S    
C60   H57   S    
O15   P7    S    
C10   C28   A    
C42   C50   A    
C44   H40   S    
C1    O28   S    
C27   C41   A    
C46   P3    S    
C38   H38   S    
C58   H52   S    
O14   P7    D    
Ba2   O14   S    
Ba2   P4    S    
C44   C46   A    
C25   C32   A    
C53   O20   S    
Ba2   O8    S    
C55   O27   S    
C23   H20   S    
C30   C33   A    
C5    C6    S    
C17   C20   A    
O28   C59   S    
C60   H58   S    
O4    P4    D    
C40   H39   S    
C37   C38   A    
O3    P3    S    
C56   H12   S    
C4    H19   S    
O2    P2    S    
C7    H26   S    
C26   C37   A    
C48   C49   A    
C29   H35   S    
C47   P2    S    
C44   C49   A    
C15   C19   A    
O12   P1    S    
C49   C50   A    
C12   O31   S    
C43   O32   S    
C57   H48   S    
O19   P6    D    
C27   C28   A    
C54   O26   S    
Ba2   O12   S    
C29   C30   A    
O1    P1    D    
C43   C47   A    
C57   H47   S    
C8    H30   S    
C31   C32   A    
O7    P4    S    
C56   H11   S    
C51   P5    S    
O9    P5    S    
Ba1   O1    S    
C60   H56   S    
Ba2   O6    S    
C7    H25   S    
C58   H51   S    
C2    O21   S    
C53   O25   S    
C11   C13   A    
C34   O7    S    
O30   H59   S    
C21   H33   S    
C52   H41   S    
C59   H55   S    
C40   C41   A    
C1    C2    S    
C26   C27   A    
C5    H21   S    
O32   H61   S    
C33   H36   S    
C56   H10   S    
C28   O30   S    
C9    C15   A    
Ba1   O18   S    
C11   H31   S    
C32   C36   A    
O11   P5    S    
C1    H9    S    
Ba1   O23   S    
C22   C24   A    
O25   H46   S    
C41   P1    S    
C45   H3    S    
C9    C10   A    
O8    P7    S    
C4    H18   S    
C6    H23   S    
C54   H7    S    
C20   P8    S    
C3    O15   S    
C58   H50   S    
O17   P8    S    
C16   H34   S    
O31   H60   S    
C1    H14   S    
O24   P3    D    
C59   H53   S    
C30   C31   A    
C13   H32   S    
C36   C38   A    
C42   H42   S    
C22   P4    S    
C23   H43   S    
O20   P1    S    
C18   C24   A    
C5    O29   S    
C2    H1    S    
Ba2   O5    S    
C12   C23   S    
C3    H15   S    
O16   P8    D    
O26   C57   S    
Ba1   O5    S    
O22   P2    D    
C24   C29   A    
C18   C19   A    
C14   C16   A    
C47   C48   A    
C12   O3    S    
C25   C26   A    
C6    H22   S    
C7    O17   S    
C20   C21   A    
Ba1   O12   S    
O18   P6    S    
O29   C60   S    
C2    H13   S    
Ba1   O8    S    
C13   C14   A    
