data_mof_unit_52884.cif
_audit_creation_date              2012-12-10T19:42:34-0500
_audit_creation_method            fapswitch 2.2
_symmetry_space_group_name_H-M    P1
_symmetry_Int_Tables_number       1
_space_group_crystal_system       triclinic
_cell_length_a                    11.01277
_cell_length_b                    11.085748
_cell_length_c                    10.141011
_cell_angle_alpha                 99.227022
_cell_angle_beta                  99.045367
_cell_angle_gamma                 97.800661
_cell_volume                      1190.28493789

loop_
_atom_site_label
_atom_site_type_symbol
_atom_type_description
_atom_site_fract_x
_atom_site_fract_y
_atom_site_fract_z
_atom_type_partial_charge
C1    C     C_R   0.499924 0.262554 0.498748 0.808872
C2    C     C_R   0.501380 0.737577 0.501141 0.812667
C3    C     C_R   0.871513 0.493254 0.504846 -0.191182
C4    C     C_R   0.128240 0.505096 0.495305 -0.192004
C5    C     C_R   0.963002 0.559312 0.616498 0.001975
C6    C     C_R   0.036542 0.437339 0.384268 -0.006551
C7    C     C_R   0.263493 0.050828 0.039420 -0.142154
C8    C     C_R   0.743133 0.944443 0.956813 -0.140913
C9    C     C_R   0.288326 0.044242 0.178129 0.184660
C10   C     C_R   0.717553 0.950388 0.818104 0.189973
C11   C     C_R   0.413403 0.070562 0.246568 0.136728
C12   C     C_R   0.591901 0.929620 0.751939 0.135864
C13   C     C_R   0.507782 0.115654 0.181537 -0.121712
C14   C     C_R   0.496975 0.889582 0.819082 -0.125280
C15   C     C_R   0.479109 0.138929 0.051660 -0.151352
C16   C     C_R   0.525434 0.868599 0.950069 -0.153209
C17   C     C_R   0.358036 0.100493 0.977224 -0.160312
C18   C     C_R   0.647950 0.901814 0.021904 -0.170595
C19   C     C_R   0.453636 0.911033 0.382108 0.094439
C20   C     C_R   0.554581 0.089746 0.615770 0.087813
C21   C     C_R   0.501886 0.872278 0.502155 -0.117097
C22   C     C_R   0.502427 0.128155 0.496962 -0.119516
C23   C     C_R   0.262843 0.502124 0.498529 0.795152
C24   C     C_R   0.737079 0.497581 0.501427 0.785460
C25   C     C_R   0.553762 0.963182 0.619015 -0.070780
C26   C     C_R   0.451988 0.037224 0.379555 -0.065763
C27   C     C_2   0.513316 0.511344 0.078123 0.222462
C28   C     C_2   0.488810 0.486917 0.922029 0.219037
C29   C     C_R   0.132188 0.422675 0.036958 0.153335
C30   C     C_R   0.866218 0.551385 0.959397 0.179950
C31   C     C_R   0.110495 0.471628 0.166716 0.149919
C32   C     C_R   0.888664 0.511454 0.827924 0.143543
C33   C     C_R   0.067144 0.389869 0.250036 0.116934
C34   C     C_R   0.931886 0.599872 0.752047 0.103945
C35   C     C_R   0.039269 0.262437 0.198543 -0.188770
C36   C     C_R   0.959816 0.725298 0.812495 -0.186840
C37   C     C_R   0.050350 0.216432 0.066148 -0.218462
C38   C     C_R   0.948795 0.762607 0.946952 -0.228860
C39   C     C_R   0.100730 0.294012 0.985738 0.225214
C40   C     C_R   0.898976 0.677927 0.020747 0.232451
C41   C     C_R   0.909860 0.425310 0.393461 0.111108
C42   C     C_R   0.089668 0.572580 0.607103 0.110213
Cu1   Cu    Cu3+1 0.521120 0.521140 0.639640 0.946703
Cu2   Cu    Cu3+1 0.478880 0.478860 0.360360 0.941048
H1    H     H_    0.603966 0.133853 0.232698 0.124352
H2    H     H_    0.400376 0.874387 0.769143 0.123665
H3    H     H_    0.554220 0.181823 0.010354 0.131327
H4    H     H_    0.449255 0.832484 0.994643 0.135521
H5    H     H_    0.622216 0.623780 0.901519 0.221915
H6    H     H_    0.377443 0.376780 0.097947 0.226153
H7    H     H_    0.003198 0.198840 0.259242 0.172975
H8    H     H_    0.996637 0.793645 0.757494 0.174595
H9    H     H_    0.019264 0.119183 0.025774 0.124051
H10   H     H_    0.981068 0.858151 0.994440 0.125241
H11   H     H_    0.337000 0.107584 0.871251 0.151400
H12   H     H_    0.670281 0.895676 0.127993 0.145036
H13   H     H_    0.171485 0.018373 0.979290 0.127381
H14   H     H_    0.836211 0.972317 0.014987 0.118662
N1    N     N_2   0.447120 0.447110 0.150550 -0.314028
N2    N     N_2   0.552880 0.552890 0.849450 -0.307540
O1    O     O_R   0.517830 0.337490 0.617920 -0.563824
O2    O     O_R   0.482170 0.662510 0.382080 -0.570117
O3    O     O_R   0.482150 0.301790 0.382070 -0.575709
O4    O     O_R   0.517850 0.698210 0.617930 -0.575036
O5    O     O_R   0.337480 0.517860 0.617920 -0.599979
O6    O     O_R   0.662520 0.482140 0.382080 -0.597238
O7    O     O_R   0.301810 0.482160 0.382070 -0.577471
O8    O     O_R   0.698190 0.517840 0.617930 -0.573192
N3    N     N_3   0.120877 0.238958 0.854272 -0.606652
H15   H     H_    0.149558 0.306290 0.799620 0.256194
H16   H     H_    0.035647 0.189876 0.798660 0.200745
N4    N     N_3   0.881975 0.723064 0.156592 -0.591158
H17   H     H_    0.865678 0.649899 0.208222 0.261179
H18   H     H_    0.965686 0.777229 0.210075 0.205404
N5    N     N_3   0.420443 0.822428 0.257906 -0.585491
H19   H     H_    0.333333 0.826248 0.203152 0.211193
H20   H     H_    0.489768 0.842070 0.203098 0.206562
N6    N     N_3   0.598307 0.179838 0.737844 -0.574543
H21   H     H_    0.689392 0.175769 0.781236 0.222333
H22   H     H_    0.538525 0.159909 0.803146 0.204751
N7    N     N_3   0.392470 0.385293 0.856723 -0.584917
H23   H     H_    0.372240 0.378675 0.752833 0.289930
H24   H     H_    0.427076 0.305422 0.873093 0.197936
N8    N     N_3   0.613526 0.609405 0.143509 -0.569969
H25   H     H_    0.626493 0.622251 0.247964 0.292157
H26   H     H_    0.587610 0.690696 0.118623 0.192552
N9    N     N_3   0.184336 0.504166 0.956840 -0.602487
H27   H     H_    0.128046 0.571573 0.946349 0.243793
H28   H     H_    0.270508 0.551194 0.011552 0.231054
N10   N     N_3   0.810640 0.463245 0.030204 -0.596617
H29   H     H_    0.866025 0.394465 0.036688 0.244336
H30   H     H_    0.724711 0.419917 0.971254 0.239668
N11   N     N_3   0.132259 0.604169 0.209814 -0.630283
H31   H     H_    0.091309 0.631738 0.293159 0.212422
H32   H     H_    0.228188 0.633509 0.239128 0.258888
N12   N     N_3   0.873127 0.380741 0.776303 -0.625145
H33   H     H_    0.952135 0.362065 0.737372 0.215669
H34   H     H_    0.797056 0.354656 0.696674 0.248621
N13   N     N_3   0.822694 0.333258 0.294973 -0.608942
H35   H     H_    0.763547 0.374653 0.232427 0.278772
H36   H     H_    0.771110 0.276642 0.346475 0.205990
N14   N     N_3   0.176570 0.663741 0.707095 -0.611155
H37   H     H_    0.234582 0.621431 0.769887 0.272973
H38   H     H_    0.229554 0.721081 0.657473 0.210386
N15   N     N_3   0.188812 0.013311 0.249717 -0.606196
H39   H     H_    0.196902 0.930132 0.283258 0.210847
H40   H     H_    0.102717 0.998561 0.184544 0.195008
N16   N     N_3   0.817116 0.972724 0.744041 -0.607172
H41   H     H_    0.812555 0.054288 0.706054 0.208907
H42   H     H_    0.903328 0.986050 0.809009 0.196200

loop_
_geom_bond_atom_site_label_1
_geom_bond_atom_site_label_2
_ccdc_geom_bond_type
C30   C32   A    
N9    H27   S    
N11   H31   S    
C10   N16   S    
C15   H3    S    
N5    H19   S    
C16   H4    S    
N7    H23   S    
C14   H2    S    
N15   H40   S    
H5    N2    S    
H6    N1    S    
C27   N8    S    
C35   C37   A    
N8    H26   S    
N6    H22   S    
C20   C25   A    
Cu2   N1    S    
C9    N15   S    
C42   N14   S    
N16   H41   S    
C7    C9    A    
C23   O7    A    
N3    H16   S    
C19   C26   A    
C8    H14   S    
Cu2   O6    S    
Cu1   O8    S    
C7    C17   A    
C6    C41   A    
N12   H34   S    
C31   C33   A    
C17   H11   S    
C36   H8    S    
C18   H12   S    
C37   H9    S    
C1    C22   S    
N11   H32   S    
C38   C40   A    
N12   H33   S    
C3    C24   S    
N3    H15   S    
C1    O3    A    
N7    H24   S    
C2    O4    A    
Cu1   O4    S    
C28   N2    D    
Cu2   O3    S    
C37   C39   A    
N8    H25   S    
N4    H18   S    
C4    C23   S    
N6    H21   S    
C11   C26   S    
Cu2   O2    S    
C31   N11   S    
C8    C18   A    
C32   C34   A    
Cu1   Cu2   S    
C9    C11   A    
N10   H30   S    
N13   H35   S    
C38   H10   S    
Cu1   O5    S    
C5    C34   S    
C29   C39   A    
C2    C21   S    
C41   N13   S    
C39   N3    S    
C30   C40   A    
C16   C18   A    
N14   H38   S    
N5    H20   S    
C10   C12   A    
Cu1   N2    S    
C4    C6    A    
N13   H36   S    
C12   C14   A    
C13   C15   A    
C35   H7    S    
C14   C16   A    
Cu1   O1    S    
C5    C42   A    
C15   C17   A    
C21   C25   A    
C3    C41   A    
C40   N4    S    
C19   C21   A    
C28   N7    S    
C20   C22   A    
N4    H17   S    
C3    C5    A    
C1    O1    A    
C24   O6    A    
C32   N12   S    
N15   H39   S    
C6    C33   S    
C20   N6    S    
C12   C25   S    
C23   O5    A    
C36   C38   A    
C29   C31   A    
C27   N1    D    
C13   H1    S    
C11   C13   A    
N10   H29   S    
C4    C42   A    
C19   N5    S    
C33   C35   A    
N16   H42   S    
C34   C36   A    
N14   H37   S    
C29   N9    S    
C24   O8    A    
C8    C10   A    
C22   C26   A    
C27   C28   S    
N9    H28   S    
Cu2   O7    S    
C7    H13   S    
C30   N10   S    
C2    O2    A    
