data_mof_unit_42829.cif
_audit_creation_date              2013-03-05T15:57:39-0500
_audit_creation_method            fapswitch 2.2
_symmetry_space_group_name_H-M    P1
_symmetry_Int_Tables_number       1
_space_group_crystal_system       triclinic
_cell_length_a                    19.277072
_cell_length_b                    17.931163
_cell_length_c                    12.744018
_cell_angle_alpha                 88.717897
_cell_angle_beta                  99.845023
_cell_angle_gamma                 89.972179
_cell_volume                      4339.10297985

loop_
_atom_site_label
_atom_site_type_symbol
_atom_site_description
_atom_site_fract_x
_atom_site_fract_y
_atom_site_fract_z
_atom_type_partial_charge
O1    O     O_R   0.448200 0.076800 0.373930 -0.654219
O2    O     O_R   0.448200 0.923200 0.373930 -0.627867
O3    O     O_R   0.948200 0.576800 0.373930 -0.654220
O4    O     O_R   0.948200 0.423200 0.373930 -0.627814
O5    O     O_R   0.414750 0.076790 0.542400 -0.558924
O6    O     O_R   0.414750 0.923210 0.542400 -0.514668
O7    O     O_R   0.914750 0.576790 0.542400 -0.558902
O8    O     O_R   0.914750 0.423210 0.542400 -0.514685
C1    C     C_R   0.410797 0.101796 0.442730 0.947425
C2    C     C_R   0.414217 0.894718 0.447468 0.948238
C3    C     C_R   0.910796 0.601796 0.442729 0.947420
C4    C     C_R   0.914219 0.394716 0.447470 0.948235
Zn1   Zn    Zn3+2 0.522330 0.000000 0.387520 0.999876
Zn2   Zn    Zn3+2 0.022330 0.500000 0.387520 0.999886
Zn3   Zn    Zn3+2 0.477660 0.000000 0.612480 1.077523
Zn4   Zn    Zn3+2 0.977660 0.500000 0.612480 1.077533
O9    O     O_R   0.585240 0.923200 0.457600 -0.588740
O10   O     O_R   0.585240 0.076800 0.457600 -0.562345
O11   O     O_R   0.085240 0.423200 0.457600 -0.588667
O12   O     O_R   0.085240 0.576800 0.457600 -0.562448
O13   O     O_R   0.551780 0.923190 0.626070 -0.470856
O14   O     O_R   0.551780 0.076810 0.626070 -0.592800
O15   O     O_R   0.051780 0.423190 0.626070 -0.470865
O16   O     O_R   0.051780 0.576810 0.626070 -0.592736
C5    C     C_R   0.591658 0.900311 0.558557 0.918474
C6    C     C_R   0.591394 0.099810 0.556966 0.869348
C7    C     C_R   0.091657 0.400311 0.558557 0.918459
C8    C     C_R   0.091393 0.599811 0.556966 0.869390
C9    C     C_R   0.719534 0.228156 0.724466 -0.068965
C10   C     C_R   0.660238 0.714978 0.654982 -0.241926
C11   C     C_R   0.219531 0.728160 0.724467 -0.068912
C12   C     C_R   0.160230 0.214974 0.654969 -0.241898
H1    H     H_    0.347639 0.788891 0.771286 0.166936
H2    H     H_    0.194597 0.085868 0.585477 0.189696
H3    H     H_    0.847635 0.288894 0.771291 0.166938
H4    H     H_    0.694606 0.585870 0.585499 0.189696
H5    H     H_    0.727354 0.254695 0.801175 0.219025
H6    H     H_    0.643679 0.667605 0.698802 0.201658
H7    H     H_    0.227355 0.754693 0.801180 0.219017
H8    H     H_    0.143669 0.167600 0.698784 0.201660
C13   C     C_R   0.650515 0.149180 0.593933 -0.250885
C14   C     C_R   0.644735 0.842738 0.594481 -0.211118
C15   C     C_R   0.150511 0.649185 0.593932 -0.250868
C16   C     C_R   0.144734 0.342738 0.594480 -0.211183
C17   C     C_R   0.348082 0.812330 0.314411 -0.234117
C18   C     C_R   0.402447 0.227605 0.366650 -0.288476
C19   C     C_R   0.848109 0.312301 0.314422 -0.234241
C20   C     C_R   0.902439 0.727601 0.366636 -0.288465
C21   C     C_R   0.294389 0.760983 0.284581 0.351381
C22   C     C_R   0.384411 0.301148 0.382853 0.318447
C23   C     C_R   0.794433 0.260934 0.284594 0.351380
C24   C     C_R   0.884401 0.801145 0.382832 0.318402
C25   C     C_R   0.264199 0.725171 0.364195 -0.238780
C26   C     C_R   0.332491 0.314361 0.444705 -0.147328
C27   C     C_R   0.764236 0.225130 0.364207 -0.238292
C28   C     C_R   0.832485 0.814360 0.444691 -0.147546
C29   C     C_R   0.290575 0.735881 0.473524 -0.022358
C30   C     C_R   0.290824 0.255629 0.477144 0.002632
C31   C     C_R   0.790596 0.235858 0.473536 -0.022574
C32   C     C_R   0.790823 0.755629 0.477141 0.002672
C33   C     C_R   0.348058 0.783833 0.503210 0.056085
C34   C     C_R   0.308735 0.181400 0.456636 0.006740
C35   C     C_R   0.848071 0.283822 0.503222 0.056106
C36   C     C_R   0.808735 0.681399 0.456638 0.006738
C37   C     C_R   0.755834 0.206816 0.554277 -0.024791
C38   C     C_R   0.734814 0.767327 0.534717 0.051879
C39   C     C_R   0.255820 0.706834 0.554268 -0.024771
C40   C     C_R   0.234812 0.267327 0.534715 0.051869
C41   C     C_R   0.768891 0.237212 0.656538 -0.047789
C42   C     C_R   0.706707 0.704883 0.583615 -0.026113
C43   C     C_R   0.268885 0.737222 0.656533 -0.047843
C44   C     C_R   0.206702 0.204881 0.583604 -0.026101
C45   C     C_R   0.331700 0.774485 0.688503 -0.273806
C46   C     C_R   0.221893 0.132783 0.556461 -0.199142
C47   C     C_R   0.831703 0.274482 0.688511 -0.273822
C48   C     C_R   0.721898 0.632784 0.556477 -0.199156
C49   C     C_R   0.375650 0.789922 0.613789 0.475908
C50   C     C_R   0.268945 0.120758 0.486991 0.479157
C51   C     C_R   0.875656 0.289921 0.613802 0.475915
C52   C     C_R   0.768947 0.620758 0.487000 0.479152
C53   C     C_R   0.705913 0.150627 0.535381 0.374151
C54   C     C_R   0.702238 0.837358 0.540035 0.325996
C55   C     C_R   0.205905 0.650641 0.535373 0.374161
C56   C     C_R   0.202238 0.337358 0.540036 0.326000
C57   C     C_R   0.656568 0.190847 0.688820 0.382678
C58   C     C_R   0.630954 0.785153 0.664335 0.446674
C59   C     C_R   0.156566 0.690848 0.688823 0.382791
C60   C     C_R   0.130950 0.285150 0.664328 0.446684
C61   C     C_R   0.372209 0.827275 0.422194 -0.162645
C62   C     C_R   0.369180 0.168754 0.411926 -0.118793
C63   C     C_R   0.872221 0.327263 0.422204 -0.162648
C64   C     C_R   0.869177 0.668752 0.411924 -0.118806
H9    H     H_    0.367724 0.844487 0.252869 0.234282
H10   H     H_    0.447988 0.216488 0.329915 0.207252
H11   H     H_    0.867755 0.344452 0.252879 0.234334
H12   H     H_    0.947979 0.716484 0.329897 0.207245
H13   H     H_    0.717914 0.191785 0.339600 0.216994
H14   H     H_    0.829629 0.870284 0.471993 0.233679
H15   H     H_    0.217871 0.691833 0.339592 0.216737
H16   H     H_    0.329635 0.370283 0.472013 0.233675
C65   C     C_R   0.644613 0.030006 0.143583 0.461431
C66   C     C_R   0.144587 0.530113 0.143589 0.461479
H17   H     H_    0.655541 0.018298 0.313565 0.223165
H18   H     H_    0.155519 0.518421 0.313566 0.223223
N1    N     N_R   0.552340 0.000000 0.237260 -0.173785
N2    N     N_R   0.052340 0.500000 0.237260 -0.173774
C67   C     C_R   0.377575 0.997350 0.762051 0.473811
C68   C     C_R   0.877575 0.497348 0.762050 0.473819
C69   C     C_R   0.351892 0.010547 0.856889 0.127899
C70   C     C_R   0.851893 0.510518 0.856895 0.127906
C71   C     C_R   0.400095 0.021065 0.949767 -0.152240
C72   C     C_R   0.900097 0.521009 0.949779 -0.152302
C73   C     C_R   0.473182 0.013698 0.952406 -0.076049
C74   C     C_R   0.973185 0.513647 0.952411 -0.076035
C75   C     C_R   0.497143 0.008393 0.854558 0.042702
C76   C     C_R   0.997146 0.508368 0.854560 0.042706
C77   C     C_R   0.522926 0.013043 0.048927 -0.107454
C78   C     C_R   0.022929 0.512994 0.048928 -0.107482
C79   C     C_R   0.595639 0.026552 0.046992 -0.132030
C80   C     C_R   0.095638 0.526525 0.046994 -0.132099
C81   C     C_R   0.618200 0.031438 0.948778 0.243608
C82   C     C_R   0.118209 0.531375 0.948790 0.243650
C83   C     C_R   0.571271 0.013939 0.855720 0.400493
C84   C     C_R   0.071277 0.513904 0.855725 0.400581
C85   C     C_R   0.503417 0.996794 0.148028 0.538143
C86   C     C_R   0.003423 0.496749 0.148030 0.538160
C87   C     C_R   0.620430 0.016114 0.238133 -0.152919
C88   C     C_R   0.120411 0.516209 0.238137 -0.152840
N3    N     N_R   0.448170 0.000000 0.762060 -0.123972
N4    N     N_R   0.948170 0.500000 0.762060 -0.123982
H19   H     H_    0.379045 0.039626 0.017881 0.236639
H20   H     H_    0.879048 0.539551 0.017903 0.236594
O17   O     O_3   0.604119 0.194999 0.749576 -0.702000
H21   H     H_    0.558334 0.196091 0.700607 0.341978
O18   O     O_3   0.585286 0.796864 0.734667 -0.695797
H22   H     H_    0.582137 0.750625 0.777767 0.346905
O19   O     O_3   0.104120 0.694993 0.749586 -0.701940
H23   H     H_    0.058333 0.696085 0.700621 0.341967
O20   O     O_3   0.085282 0.296860 0.734661 -0.695785
H24   H     H_    0.082124 0.250616 0.777748 0.346920
N5    N     N_R   0.690995 0.044331 0.943338 0.249631
O21   O     O_R   0.734075 0.988279 0.944583 -0.318383
O22   O     O_R   0.713242 0.111954 0.931549 -0.280596
N6    N     N_R   0.191017 0.544201 0.943371 0.249677
O23   O     O_R   0.234072 0.488111 0.944789 -0.318069
O24   O     O_R   0.213284 0.611784 0.931321 -0.281014
O25   O     O_3   0.714939 0.046096 0.145085 -0.630149
H25   H     H_    0.740532 0.045469 0.219661 0.351530
O26   O     O_3   0.214893 0.546306 0.145099 -0.630180
H26   H     H_    0.240258 0.546760 0.219710 0.351529
O27   O     O_3   0.437213 0.971567 0.155358 -0.756515
H27   H     H_    0.423425 0.995497 0.217633 0.373037
O28   O     O_3   0.937231 0.471490 0.155368 -0.756457
H28   H     H_    0.923417 0.495461 0.217596 0.372965
O29   O     O_3   0.333436 0.983970 0.667517 -0.712334
H29   H     H_    0.288409 0.963749 0.683008 0.339333
O30   O     O_3   0.833436 0.483989 0.667509 -0.712326
H30   H     H_    0.788409 0.463763 0.682991 0.339324
N7    N     N_R   0.277941 0.016823 0.859846 0.211964
O31   O     O_R   0.236992 0.055265 0.786546 -0.418783
O32   O     O_R   0.253387 0.993800 0.943837 -0.313332
N8    N     N_R   0.777943 0.516794 0.859856 0.211956
O33   O     O_R   0.736996 0.555255 0.786575 -0.418775
O34   O     O_R   0.753387 0.493749 0.943834 -0.313369
O35   O     O_3   0.599284 0.993952 0.769645 -0.687079
H31   H     H_    0.647230 0.013734 0.770443 0.347948
O36   O     O_3   0.099285 0.493951 0.769631 -0.687114
H32   H     H_    0.147249 0.513690 0.770463 0.347943
O37   O     O_3   0.714172 0.092894 0.468272 -0.787072
H33   H     H_    0.764132 0.090277 0.458772 0.348742
O38   O     O_3   0.719259 0.897455 0.480034 -0.753147
H34   H     H_    0.712770 0.943626 0.518802 0.356966
O39   O     O_3   0.214169 0.592912 0.468262 -0.787238
H35   H     H_    0.264126 0.590307 0.458747 0.348708
O40   O     O_3   0.219262 0.397457 0.480039 -0.752892
H36   H     H_    0.212769 0.443627 0.518806 0.356967
N9    N     N_R   0.267061 0.749564 0.173632 0.242558
O41   O     O_R   0.298815 0.777922 0.099797 -0.324125
O42   O     O_R   0.209645 0.711623 0.145240 -0.320915
N10   N     N_R   0.422870 0.362109 0.344913 0.228459
O43   O     O_R   0.474605 0.349430 0.294023 -0.342737
O44   O     O_R   0.405014 0.430909 0.357674 -0.353225
N11   N     N_R   0.767129 0.249482 0.173644 0.242659
O45   O     O_R   0.798848 0.277900 0.099809 -0.324158
O46   O     O_R   0.709781 0.211429 0.145255 -0.320218
N12   N     N_R   0.922854 0.862106 0.344877 0.228411
O47   O     O_R   0.974581 0.849424 0.293973 -0.342717
O48   O     O_R   0.905001 0.930906 0.357640 -0.353553
O49   O     O_3   0.445310 0.807855 0.647247 -0.717171
H37   H     H_    0.453739 0.813188 0.725706 0.359861
O50   O     O_3   0.276938 0.050495 0.447705 -0.743471
H38   H     H_    0.243981 0.015345 0.474610 0.353561
O51   O     O_3   0.945312 0.307865 0.647265 -0.717161
H39   H     H_    0.953736 0.313205 0.725723 0.359852
O52   O     O_3   0.776937 0.550494 0.447714 -0.743476
H40   H     H_    0.743978 0.515346 0.474617 0.353556

loop_
_geom_bond_atom_site_label_1
_geom_bond_atom_site_label_2
_geom_bond_distance
_ccdc_geom_bond_type
C30   C34   1.416014 A    
O38   H34   0.992220 S    
C39   C55   1.389854 A    
O30   H30   0.989721 S    
C27   C31   1.416489 A    
C44   C46   1.389618 A    
C15   C55   1.403404 A    
O37   H33   0.992194 S    
C4    C63   1.466719 S    
O25   H25   0.992945 S    
O10   C6    1.326625 A    
C28   H14   1.073202 S    
C67   N3    1.361703 A    
C17   H9    1.082816 S    
C72   C74   1.409634 A    
C70   N8    1.436904 S    
O18   H22   0.991921 S    
C12   C44   1.395791 A    
C35   C51   1.425252 A    
O39   H35   0.992192 S    
C25   H15   1.079981 S    
O7    C3    1.327274 A    
C15   C59   1.423494 A    
H3    C47   1.084222 S    
O35   H31   0.988648 S    
Zn1   O10   1.962407 S    
C29   C39   1.411061 A    
C66   C88   1.382000 A    
C77   C79   1.426858 A    
C26   C30   1.421269 A    
C37   C41   1.406609 A    
C9    H5    1.084129 S    
C18   H10   1.083585 S    
C12   C60   1.394725 A    
N2    C88   1.342385 A    
C10   H6    1.084116 S    
C9    C57   1.397526 A    
O2    Zn1   1.973945 S    
O13   C5    1.319532 A    
C85   O27   1.371678 S    
C82   N6    1.435372 S    
O6    Zn3   1.962281 S    
C36   C52   1.415569 A    
C3    C64   1.452406 S    
Zn3   O14   1.973931 S    
C76   C84   1.430079 A    
O40   H36   0.992222 S    
C2    C61   1.466693 S    
C33   C49   1.425260 A    
N9    O42   1.301386 A    
C14   C54   1.409049 A    
C20   C64   1.399184 A    
O27   H27   0.985843 S    
N7    O32   1.301471 A    
C14   C58   1.403314 A    
O15   C7    1.319531 A    
C10   C58   1.394725 A    
C56   O40   1.379450 S    
O11   C7    1.327022 A    
O4    C4    1.325570 A    
N8    O34   1.301471 A    
O8    C4    1.322188 A    
C11   C43   1.398775 A    
C32   C38   1.423277 A    
O8    Zn4   1.962281 S    
H4    C48   1.083651 S    
C67   C69   1.406833 A    
C26   H16   1.073205 S    
C24   N12   1.441538 S    
C59   O19   1.377509 S    
C7    C16   1.462823 S    
C10   C42   1.395792 A    
C33   C61   1.420652 A    
C21   N9    1.441191 S    
C79   C81   1.394533 A    
C70   C72   1.390690 A    
C11   C59   1.397535 A    
N1    C87   1.342388 A    
C84   O36   1.357666 S    
O50   H38   0.991794 S    
C65   C79   1.420005 A    
Zn2   O12   1.962407 S    
C75   C83   1.430045 A    
H17   C87   1.078406 S    
Zn1   N1    2.092942 S    
O36   H32   0.988644 S    
C43   C45   1.386713 A    
C25   C29   1.416494 A    
C19   C23   1.394842 A    
C68   O30   1.376782 S    
O12   C8    1.326630 A    
C23   C27   1.397714 A    
C28   C32   1.421271 A    
N5    O22   1.300446 A    
C40   C56   1.411877 A    
C1    C62   1.452404 S    
C22   N10   1.441543 S    
N11   O45   1.301737 A    
C60   O20   1.378615 S    
O5    C1    1.327271 A    
C19   C63   1.404639 A    
C81   N5    1.435379 S    
C38   C54   1.411874 A    
N6    O24   1.300432 A    
C37   C53   1.389881 A    
N7    O31   1.299760 A    
Zn3   N3    2.080275 S    
C17   C21   1.394836 A    
C40   C44   1.421420 A    
O5    Zn3   1.933193 S    
C13   C53   1.403414 A    
C27   H13   1.079972 S    
O1    C1    1.312628 A    
C71   C73   1.409625 A    
C22   C26   1.398964 A    
C72   H20   1.078045 S    
C74   C78   1.424286 A    
O3    Zn2   1.967560 S    
H2    C46   1.083651 S    
C73   C77   1.424325 A    
C71   H19   1.078049 S    
O7    Zn4   1.933193 S    
N9    O41   1.301735 A    
Zn4   O15   1.967546 S    
C53   O37   1.383639 S    
C55   O39   1.383630 S    
C42   C48   1.389617 A    
O17   H21   0.989908 S    
C31   C35   1.408015 A    
O1    Zn1   1.967560 S    
C36   C64   1.402250 A    
N12   O48   1.301759 A    
O2    C2    1.325562 A    
C66   C80   1.419954 A    
N10   O43   1.301716 A    
C80   C82   1.394483 A    
O16   C8    1.320154 A    
C77   C85   1.402643 A    
N8    O33   1.299761 A    
C75   N3    1.389596 A    
H1    C45   1.084221 S    
C52   O52   1.384254 S    
N2    C86   1.349834 A    
C54   O38   1.379442 S    
C65   O25   1.383202 S    
C19   H11   1.082813 S    
C17   C61   1.404638 A    
C20   H12   1.083584 S    
C68   N4    1.361698 A    
Zn2   O11   1.933319 S    
C34   C50   1.415571 A    
C50   O50   1.384255 S    
C48   C52   1.391399 A    
N6    O23   1.301536 A    
C16   C56   1.409048 A    
C5    C14   1.462823 S    
O6    C2    1.322187 A    
C74   C76   1.406968 A    
O20   H24   0.991923 S    
C29   C33   1.408002 A    
C18   C62   1.399185 A    
Zn1   O9    1.933319 S    
C13   C57   1.423489 A    
O19   H23   0.989908 S    
C18   C22   1.392419 A    
C8    C15   1.463075 S    
C23   N11   1.441197 S    
C51   O51   1.378095 S    
N1    C85   1.349862 A    
C32   C36   1.416014 A    
C49   O49   1.378097 S    
C69   C71   1.390698 A    
O28   H28   0.985862 S    
O9    C5    1.327022 A    
C16   C60   1.403314 A    
N5    O21   1.301550 A    
C31   C37   1.411082 A    
N10   O44   1.301744 A    
C30   C40   1.423276 A    
C38   C42   1.421419 A    
Zn3   O13   1.967546 S    
C47   C51   1.401892 A    
C21   C25   1.397716 A    
C34   C62   1.402251 A    
C65   C87   1.382045 A    
C68   C70   1.406818 A    
C41   C47   1.386710 A    
C39   C43   1.406599 A    
H18   C88   1.078379 S    
C12   H8    1.084117 S    
O4    Zn2   1.973945 S    
O49   H37   0.991991 S    
C78   C80   1.426842 A    
C81   C83   1.404750 A    
O3    C3    1.312627 A    
C66   O26   1.383182 S    
O14   C6    1.320159 A    
O52   H40   0.991789 S    
C83   O35   1.357676 S    
C86   O28   1.371669 S    
C58   O18   1.378616 S    
C20   C24   1.392419 A    
C76   N4    1.389586 A    
N11   O46   1.301391 A    
Zn4   O16   1.973931 S    
O51   H39   0.991992 S    
C46   C50   1.391397 A    
Zn2   N2    2.092942 S    
C35   C63   1.420665 A    
O29   H29   0.989724 S    
C11   H7    1.084129 S    
C45   C49   1.401898 A    
C9    C41   1.398774 A    
Zn4   N4    2.080275 S    
C78   C86   1.402612 A    
N12   O47   1.301705 A    
O26   H26   0.992281 S    
C82   C84   1.404739 A    
C67   O29   1.376783 S    
C24   C28   1.398963 A    
C6    C13   1.463076 S    
C57   O17   1.377509 S    
C73   C75   1.406979 A    
C69   N7    1.436904 S    
