data_mof_unit_19666.cif
_audit_creation_date              2013-03-05T15:58:18-0500
_audit_creation_method            fapswitch 2.2
_symmetry_space_group_name_H-M    P1
_symmetry_Int_Tables_number       1
_space_group_crystal_system       triclinic
_cell_length_a                    12.594883
_cell_length_b                    13.139217
_cell_length_c                    15.46537
_cell_angle_alpha                 83.367197
_cell_angle_beta                  98.626944
_cell_angle_gamma                 96.797431
_cell_volume                      2500.08736575

loop_
_atom_site_label
_atom_site_type_symbol
_atom_site_description
_atom_site_fract_x
_atom_site_fract_y
_atom_site_fract_z
_atom_type_partial_charge
O1    O     O_R   0.374950 0.371210 0.521360 -0.612740
O2    O     O_R   0.542050 0.338030 0.492790 -0.617196
C1    C     C_R   0.444893 0.308035 0.513492 0.877880
O3    O     O_R   0.368720 0.526070 0.390200 -0.614284
O4    O     O_R   0.535820 0.492890 0.361630 -0.617872
C2    C     C_R   0.434603 0.509896 0.336239 0.873650
Zn1   Zn    Zn3+2 0.388420 0.522150 0.519080 0.944016
Zn2   Zn    Zn3+2 0.611580 0.477850 0.480920 0.928112
O5    O     O_R   0.457950 0.661970 0.507210 -0.609992
O6    O     O_R   0.625050 0.628790 0.478640 -0.626728
O7    O     O_R   0.464180 0.507110 0.638370 -0.616973
O8    O     O_R   0.631280 0.473930 0.609800 -0.644878
C3    C     C_R   0.557186 0.691519 0.491709 0.868957
C4    C     C_R   0.563662 0.484496 0.664082 0.848195
C5    C     C_R   0.391499 0.498304 0.244342 -0.060568
C6    C     C_R   0.595625 0.459363 0.758212 -0.055101
C7    C     C_R   0.243526 0.484960 0.125395 -0.198533
C8    C     C_R   0.282040 0.503985 0.212007 -0.188599
C9    C     C_R   0.460861 0.471566 0.190385 -0.258994
C10   C     C_R   0.423228 0.447425 0.105069 0.092849
C11   C     C_R   0.313833 0.458496 0.071214 0.175741
C12   C     C_R   0.494143 0.420226 0.050801 0.070567
C13   C     C_R   0.460325 0.424617 0.959408 0.068729
C14   C     C_R   0.349567 0.430733 0.927497 -0.227183
C15   C     C_R   0.277066 0.445326 0.983309 -0.232506
C16   C     C_R   0.598225 0.390897 0.084465 -0.224152
C17   C     C_R   0.671707 0.379567 0.028499 -0.231370
C18   C     C_R   0.644968 0.401247 0.938094 0.176540
C19   C     C_R   0.539199 0.425086 0.903143 0.091276
C20   C     C_R   0.723233 0.402136 0.882207 -0.200409
C21   C     C_R   0.698473 0.430564 0.792386 -0.203458
C22   C     C_R   0.517643 0.456908 0.813738 -0.256709
H1    H     H_    0.193067 0.450903 0.956695 0.146301
H2    H     H_    0.440865 0.483816 0.786683 0.162022
H3    H     H_    0.759618 0.430585 0.750044 0.162778
H4    H     H_    0.751275 0.358490 0.056313 0.147047
H5    H     H_    0.159277 0.491859 0.100545 0.137525
H6    H     H_    0.226540 0.523038 0.253357 0.160996
H7    H     H_    0.545646 0.472963 0.215064 0.162423
H8    H     H_    0.316599 0.422407 0.859810 0.151503
H9    H     H_    0.624016 0.374419 0.153971 0.144501
H10   H     H_    0.803820 0.382426 0.908150 0.137007
C23   C     C_R   0.730279 0.927676 0.560930 -0.169657
H11   H     H_    0.764598 0.777273 0.539782 0.161956
H12   H     H_    0.757117 0.113764 0.619148 0.158540
H13   H     H_    0.813481 0.951040 0.586352 0.164409
C24   C     C_R   0.595568 0.798760 0.500421 -0.061955
C25   C     C_R   0.301380 0.163078 0.506519 -0.274704
C26   C     C_R   0.267913 0.058223 0.503238 0.370130
C27   C     C_R   0.346714 0.989569 0.512109 -0.288419
C28   C     C_R   0.458181 0.024380 0.528434 0.031151
C29   C     C_R   0.488754 0.126781 0.546848 0.088413
C30   C     C_R   0.540497 0.960610 0.527283 0.104353
C31   C     C_R   0.649342 0.992858 0.559722 0.159326
C32   C     C_R   0.675206 0.089004 0.591301 -0.240218
C33   C     C_R   0.595928 0.155506 0.584810 -0.176897
C34   C     C_R   0.517531 0.866607 0.492078 -0.250422
C35   C     C_R   0.703078 0.829754 0.532743 -0.186717
C36   C     C_R   0.411337 0.197838 0.525615 -0.170673
H14   H     H_    0.437894 0.842763 0.459713 0.159529
H15   H     H_    0.241807 0.217972 0.492414 0.195939
H16   H     H_    0.319333 0.908985 0.508836 0.180140
H17   H     H_    0.619231 0.229001 0.610987 0.170989
C37   C     C_R   0.138238 0.642985 0.621198 -0.264906
H18   H     H_    0.310975 0.658729 0.634160 0.137424
H19   H     H_    0.939841 0.668991 0.643811 0.156744
H20   H     H_    0.135867 0.698278 0.667566 0.152620
N1    N     N_R   0.239390 0.551900 0.544730 -0.105839
C38   C     C_R   0.757497 0.379310 0.396619 0.012615
C39   C     C_R   0.852897 0.353070 0.374957 -0.230150
C40   C     C_R   0.950684 0.398629 0.414409 -0.170558
C41   C     C_R   0.952853 0.471017 0.475960 0.011482
C42   C     C_R   0.853398 0.494760 0.495776 0.238114
C43   C     C_R   0.048998 0.520693 0.518330 -0.011728
C44   C     C_R   0.043912 0.592869 0.579199 0.198919
C45   C     C_R   0.944833 0.614299 0.597515 -0.273232
C46   C     C_R   0.850873 0.565585 0.556327 -0.222737
C47   C     C_R   0.150889 0.501988 0.502759 -0.045136
C48   C     C_R   0.236544 0.621013 0.602665 0.012158
N2    N     N_R   0.759950 0.448600 0.455730 -0.131354
H21   H     H_    0.163518 0.448942 0.458140 0.125219
H22   H     H_    0.680845 0.344408 0.366398 0.140759
H23   H     H_    0.022419 0.375660 0.395307 0.145737
H24   H     H_    0.851129 0.297791 0.327860 0.160815
H25   H     H_    0.777257 0.585068 0.573030 0.211018
N3    N     N_R   0.154734 0.022121 0.487524 0.210537
O9    O     O_R   0.081768 0.086407 0.478159 -0.410817
O10   O     O_R   0.123401 0.924435 0.484072 -0.403286

loop_
_geom_bond_atom_site_label_1
_geom_bond_atom_site_label_2
_geom_bond_distance
_ccdc_geom_bond_type
C5    C8    1.401842 A    
C32   C33   1.388084 A    
H18   C48   1.081875 S    
C9    C10   1.392726 A    
C30   C31   1.419808 A    
C6    C21   1.401748 A    
C5    C9    1.393564 A    
C16   C17   1.389451 A    
C13   C19   1.414471 A    
C18   C19   1.417229 A    
C19   C22   1.393214 A    
O4    C2    1.313877 A    
O7    C4    1.314421 A    
N3    O10   1.302167 A    
O5    C3    1.312974 A    
C38   H22   1.081731 S    
C23   C35   1.394001 A    
Zn1   N1    2.065485 S    
C42   N2    1.354912 A    
H11   C35   1.082379 S    
C13   C14   1.416629 A    
C39   C40   1.389921 A    
C39   H24   1.082623 S    
N1    C48   1.354252 A    
C2    C5    1.461757 S    
C46   H25   1.065474 S    
O3    Zn1   1.966702 S    
C7    C8    1.394893 A    
C40   H23   1.076983 S    
N1    C47   1.342425 A    
C43   C44   1.424197 A    
C28   C29   1.404505 A    
C37   H20   1.083913 S    
C14   C15   1.389868 A    
O3    C2    1.311719 A    
C3    C24   1.449274 S    
C30   C34   1.388939 A    
N3    O9    1.301748 A    
C34   H14   1.079794 S    
C7    C11   1.403547 A    
O1    C1    1.307068 A    
C22   H2    1.077291 S    
Zn1   O7    1.945602 S    
C44   C45   1.387225 A    
C29   C36   1.406727 A    
C24   C34   1.385702 A    
C23   C31   1.403663 A    
Zn2   O8    1.966702 S    
H19   C45   1.084452 S    
C27   C28   1.418536 A    
C33   H17   1.081718 S    
C7    H5    1.083621 S    
C45   C46   1.380087 A    
C9    H7    1.077510 S    
C41   C43   1.412593 A    
C25   C26   1.396648 A    
O8    C4    1.310990 A    
C12   C16   1.416506 A    
C27   H16   1.078552 S    
C37   C48   1.381558 A    
C21   H3    1.083092 S    
C25   C36   1.404456 A    
Zn1   O5    1.940386 S    
C11   C15   1.392517 A    
C31   C32   1.392079 A    
O1    Zn1   1.967037 S    
C26   N3    1.441771 S    
O2    Zn2   1.940387 S    
C10   C12   1.414064 A    
C41   C42   1.410699 A    
O6    C3    1.306834 A    
O4    Zn2   1.945601 S    
C17   H4    1.083916 S    
C6    C22   1.393647 A    
C18   C20   1.403341 A    
O2    C1    1.315091 A    
C8    H6    1.082940 S    
C40   C41   1.416578 A    
C24   C35   1.400941 A    
C47   H21   1.075888 S    
C25   H15   1.083250 S    
C20   C21   1.394335 A    
C14   H8    1.079574 S    
C37   C44   1.396076 A    
C4    C6    1.461140 S    
C38   C39   1.385776 A    
C23   H13   1.084002 S    
C10   C11   1.416722 A    
H12   C32   1.084101 S    
Zn2   O6    1.967035 S    
C26   C27   1.400019 A    
C43   C47   1.395098 A    
C17   C18   1.392417 A    
Zn2   N2    2.052929 S    
C42   C46   1.400416 A    
C12   C13   1.410276 A    
C20   H10   1.083648 S    
C38   N2    1.357438 A    
C28   C30   1.411330 A    
C29   C33   1.414931 A    
C16   H9    1.079825 S    
C15   H1    1.083889 S    
C1    C36   1.458212 S    
