data_mof_unit_17647.cif
_audit_creation_date              2013-03-05T16:48:05-0500
_audit_creation_method            fapswitch 2.2
_symmetry_space_group_name_H-M    P1
_symmetry_Int_Tables_number       1
_space_group_crystal_system       triclinic
_cell_length_a                    19.147009
_cell_length_b                    8.915939
_cell_length_c                    8.095708
_cell_angle_alpha                 89.956483
_cell_angle_beta                  90.165491
_cell_angle_gamma                 90.103577
_cell_volume                      1382.03875165

loop_
_atom_site_label
_atom_site_type_symbol
_atom_site_description
_atom_site_fract_x
_atom_site_fract_y
_atom_site_fract_z
_atom_type_partial_charge
O1    O     O_R   0.500000 0.285350 0.636850 -0.617900
O2    O     O_R   0.500000 0.714650 0.363150 -0.616313
O3    O     O_R   0.500000 0.714650 0.636850 -0.615437
O4    O     O_R   0.500000 0.285350 0.363150 -0.615674
C1    C     C_R   0.500094 0.217980 0.500042 0.927348
C2    C     C_R   0.499889 0.782025 0.499958 0.932042
O5    O     O_R   0.398140 0.500000 0.636920 -0.615805
O6    O     O_R   0.601860 0.500000 0.363080 -0.617968
O7    O     O_R   0.601860 0.500000 0.636920 -0.620893
O8    O     O_R   0.398140 0.500000 0.363080 -0.618506
C3    C     C_R   0.365490 0.499529 0.499624 0.953443
C4    C     C_R   0.635105 0.498459 0.500142 0.937827
Zn1   Zn    Zn3+2 0.500000 0.500000 0.682780 0.974899
Zn2   Zn    Zn3+2 0.500000 0.500000 0.317220 0.975212
C5    C     C_1   0.499942 0.065225 0.500058 -0.200245
C6    C     C_1   0.499861 0.934790 0.499939 -0.197270
N1    N     N_1   0.500000 0.500000 0.073640 -0.037192
N2    N     N_1   0.500000 0.500000 0.926360 -0.036807
C7    C     C_R   0.248854 0.611477 0.534675 0.028550
C8    C     C_R   0.749706 0.559802 0.373408 0.030804
C9    C     C_R   0.745399 0.386179 0.610549 0.024391
C10   C     C_R   0.260299 0.347329 0.450267 0.038241
C11   C     C_R   0.176099 0.598866 0.521560 0.483351
C12   C     C_R   0.820924 0.528174 0.354178 0.465987
C13   C     C_R   0.817560 0.363428 0.595743 0.468880
C14   C     C_R   0.187623 0.337728 0.430796 0.492133
C15   C     C_R   0.146100 0.461068 0.474405 -0.248469
C16   C     C_R   0.854867 0.437758 0.471125 -0.239021
C17   C     C_R   0.290289 0.485780 0.497023 -0.186101
C18   C     C_R   0.711291 0.484196 0.497861 -0.204318
N3    N     N_R   0.034477 0.479809 0.613679 -0.127191
N4    N     N_R   0.966867 0.398047 0.335969 -0.161378
N5    N     N_R   0.965276 0.473386 0.612892 -0.138311
N6    N     N_R   0.036103 0.403858 0.336984 -0.168616
C19   C     C_R   0.930561 0.433320 0.473753 0.400509
C20   C     C_R   0.070757 0.445619 0.475527 0.407272
C21   C     C_3   0.282490 0.757747 0.587577 -0.831653
H1    H     H_    0.243886 0.846654 0.615576 0.280303
H2    H     H_    0.314075 0.739538 0.701004 0.244894
H3    H     H_    0.317039 0.799884 0.487753 0.212234
C22   C     C_3   0.716220 0.679984 0.266889 -0.803970
H4    H     H_    0.755480 0.754383 0.208114 0.262491
H5    H     H_    0.684578 0.627506 0.167377 0.243190
H6    H     H_    0.682516 0.753463 0.343426 0.218856
C23   C     C_3   0.705571 0.304313 0.744999 -0.797384
H7    H     H_    0.662066 0.238614 0.689770 0.225788
H8    H     H_    0.738285 0.224400 0.815877 0.258434
H9    H     H_    0.684820 0.386199 0.835558 0.244404
C24   C     C_3   0.305719 0.209697 0.428635 -0.843641
H10   H     H_    0.339773 0.223771 0.318972 0.239441
H11   H     H_    0.338850 0.193693 0.540045 0.226217
H12   H     H_    0.274927 0.105169 0.413031 0.264941
O9    O     O_3   0.133841 0.719578 0.560661 -0.590931
C25   C     C_3   0.119348 0.800128 0.414440 -0.257195
H13   H     H_    0.087020 0.899019 0.446348 0.224487
H14   H     H_    0.089007 0.731036 0.325041 0.160102
H15   H     H_    0.168053 0.842348 0.355535 0.169116
O10   O     O_3   0.859341 0.597292 0.230811 -0.607899
C26   C     C_3   0.850525 0.515064 0.083068 -0.213645
H16   H     H_    0.796043 0.522736 0.036066 0.159966
H17   H     H_    0.865334 0.395174 0.098843 0.178617
H18   H     H_    0.885251 0.563597 0.987388 0.208543
O11   O     O_3   0.852556 0.273845 0.708657 -0.607106
C27   C     C_3   0.860903 0.129757 0.639454 -0.295138
H19   H     H_    0.895577 0.132776 0.529511 0.171583
H20   H     H_    0.809682 0.078475 0.606237 0.160816
H21   H     H_    0.885950 0.056158 0.732836 0.203702
O12   O     O_3   0.156156 0.204307 0.383896 -0.606348
C28   C     C_3   0.158778 0.192629 0.209996 -0.304868
H22   H     H_    0.213084 0.175674 0.165890 0.171787
H23   H     H_    0.135809 0.292499 0.147825 0.181435
H24   H     H_    0.127736 0.093363 0.171663 0.190958

loop_
_geom_bond_atom_site_label_1
_geom_bond_atom_site_label_2
_geom_bond_distance
_ccdc_geom_bond_type
C28   H24   1.109203 S    
C7    C11   1.401115 A    
N3    N5    1.326125 A    
N4    N6    1.326575 A    
C21   H1    1.108797 S    
C10   C17   1.411976 A    
C11   C15   1.407832 A    
C15   C20   1.448966 S    
C22   H4    1.109634 S    
C9    C18   1.421230 A    
N6    C20   1.353641 A    
O3    Zn1   1.949316 S    
O6    C4    1.277711 A    
O3    C2    1.260173 A    
C14   O12   1.385293 S    
C27   H19   1.112216 S    
C24   H12   1.109003 S    
C8    C22   1.516835 S    
C23   H7    1.110580 S    
C26   H16   1.111559 S    
C21   H2    1.110063 S    
O4    Zn2   1.949317 S    
C8    C18   1.418451 A    
O9    C25   1.411244 S    
C13   C16   1.403111 A    
O5    C3    1.273680 A    
C22   H5    1.109824 S    
Zn2   N1    1.971953 S    
C14   C15   1.404070 A    
O2    C2    1.260386 A    
O7    Zn1   1.986391 S    
Zn1   N2    1.971953 S    
C10   C24   1.515870 S    
O1    C1    1.260364 A    
C12   O10   1.385640 S    
N5    C19   1.354139 A    
C11   O9    1.385050 S    
C21   H3    1.110659 S    
C9    C23   1.516786 S    
O8    C3    1.271522 A    
C23   H8    1.108226 S    
C10   C14   1.402456 A    
C28   H22   1.111004 S    
O2    Zn2   1.949870 S    
O7    C4    1.278924 A    
C25   H14   1.112539 S    
C26   H17   1.113554 S    
C1    C5    1.361951 S    
C22   H6    1.110880 S    
C2    C6    1.362036 S    
O11   C27   1.411445 S    
C7    C17   1.408343 A    
N4    C19   1.353585 A    
C12   C16   1.402074 A    
O5    Zn1   1.984286 S    
O1    Zn1   1.949871 S    
C3    C17   1.444957 S    
N1    N2    1.192335 T    
C24   H10   1.109938 S    
C13   O11   1.385594 S    
C23   H9    1.109927 S    
C28   H23   1.113137 S    
C9    C13   1.402327 A    
N3    C20   1.353559 A    
O12   C28   1.412804 S    
C26   H18   1.109397 S    
O6    Zn2   1.984284 S    
C7    C21   1.514977 S    
C4    C18   1.464674 S    
O10   C26   1.412912 S    
C25   H13   1.109295 S    
C8    C12   1.402090 A    
C27   H21   1.109236 S    
C5    C6    1.162954 T    
C16   C19   1.450014 S    
O8    Zn2   1.986393 S    
O4    C1    1.260148 A    
C24   H11   1.110455 S    
C25   H15   1.113458 S    
C27   H20   1.113663 S    
