data_mof_unit_32863.cif
_audit_creation_date              2012-12-11T15:27:41-0500
_audit_creation_method            fapswitch 2.2
_symmetry_space_group_name_H-M    P1
_symmetry_Int_Tables_number       1
_space_group_crystal_system       triclinic
_cell_length_a                    23.166925
_cell_length_b                    7.294427
_cell_length_c                    15.163677
_cell_angle_alpha                 89.998461
_cell_angle_beta                  108.015579
_cell_angle_gamma                 90.00203
_cell_volume                      2436.86818968

loop_
_atom_site_label
_atom_site_type_symbol
_atom_type_description
_atom_site_fract_x
_atom_site_fract_y
_atom_site_fract_z
_atom_type_partial_charge
O1    O     O_R   0.711000 0.648610 0.341170 -0.532700
O2    O     O_R   0.289000 0.351390 0.658830 -0.532700
O3    O     O_R   0.789000 0.148610 0.158830 -0.532693
O4    O     O_R   0.211000 0.851390 0.841170 -0.532693
O5    O     O_R   0.829650 0.322030 0.336650 -0.538401
O6    O     O_R   0.170350 0.677970 0.663350 -0.538401
O7    O     O_R   0.670350 0.822030 0.163350 -0.538404
O8    O     O_R   0.329650 0.177970 0.836650 -0.538404
C1    C     C_R   0.854302 0.485831 0.356752 0.728447
C2    C     C_R   0.145698 0.514169 0.643248 0.728446
C3    C     C_R   0.645698 0.985828 0.143248 0.728461
C4    C     C_R   0.354302 0.014172 0.856752 0.728462
O9    O     O_R   0.713950 0.319280 0.352070 -0.533645
O10   O     O_R   0.286050 0.680720 0.647930 -0.533645
O11   O     O_R   0.786050 0.819280 0.147930 -0.533653
O12   O     O_R   0.213950 0.180720 0.852070 -0.533654
O13   O     O_R   0.672470 0.142870 0.174360 -0.533278
O14   O     O_R   0.327530 0.857130 0.825640 -0.533279
O15   O     O_R   0.827530 0.642870 0.325640 -0.533291
O16   O     O_R   0.172470 0.357130 0.674360 -0.533291
C5    C     C_R   0.701888 0.488026 0.376187 0.680967
C6    C     C_R   0.298111 0.511974 0.623813 0.680968
C7    C     C_R   0.798112 0.988033 0.123812 0.680951
C8    C     C_R   0.201888 0.011967 0.876188 0.680951
O17   O     O_3   0.736530 0.478650 0.191680 -0.379689
O18   O     O_3   0.263470 0.521350 0.808320 -0.379689
O19   O     O_3   0.763470 0.978650 0.308320 -0.379693
O20   O     O_3   0.236530 0.021350 0.691680 -0.379693
V1    V     V_3+5 0.752500 0.206170 0.260820 1.475883
V2    V     V_3+5 0.247500 0.793830 0.739180 1.475882
V3    V     V_3+5 0.747500 0.706170 0.239180 1.475855
V4    V     V_3+5 0.252500 0.293830 0.760820 1.475855
C9    C     C_R   0.826888 0.002307 0.050898 -0.053698
C10   C     C_R   0.173112 0.997693 0.949102 -0.053698
C11   C     C_R   0.673109 0.502261 0.449096 -0.053649
C12   C     C_R   0.326891 0.497739 0.550904 -0.053649
C13   C     C_R   0.828430 0.147098 0.908578 -0.123613
C14   C     C_R   0.171570 0.852902 0.091422 -0.123613
C15   C     C_R   0.671609 0.646700 0.591514 -0.123673
C16   C     C_R   0.328391 0.353300 0.408486 -0.123674
C17   C     C_R   0.796631 0.092599 0.968331 -0.155872
C18   C     C_R   0.203369 0.907401 0.031669 -0.155872
C19   C     C_R   0.703392 0.592315 0.531722 -0.155947
C20   C     C_R   0.296608 0.407685 0.468278 -0.155946
C21   C     C_R   0.888119 0.956027 0.070524 -0.103798
C22   C     C_R   0.111881 0.043973 0.929476 -0.103798
C23   C     C_R   0.611865 0.456119 0.429435 -0.103775
C24   C     C_R   0.388135 0.543881 0.570565 -0.103774
C25   C     C_R   0.920410 0.998499 0.007895 0.108968
C26   C     C_R   0.079590 0.001501 0.992105 0.108968
C27   C     C_R   0.579587 0.498456 0.492096 0.108981
C28   C     C_R   0.420413 0.501544 0.507904 0.108981
C29   C     C_R   0.890662 0.109260 0.930376 0.068503
C30   C     C_R   0.109338 0.890740 0.069624 0.068503
C31   C     C_R   0.609367 0.608977 0.569695 0.068478
C32   C     C_R   0.390633 0.391023 0.430305 0.068478
C33   C     C_R   0.982920 0.952667 0.025230 -0.060459
C34   C     C_R   0.017080 0.047333 0.974770 -0.060459
C35   C     C_R   0.517066 0.452724 0.474732 -0.060408
C36   C     C_R   0.482934 0.547276 0.525268 -0.060407
C37   C     C_R   0.987194 0.184013 0.909428 0.390208
C38   C     C_R   0.012806 0.815987 0.090572 0.390208
C39   C     C_R   0.512858 0.683749 0.590710 0.390167
C40   C     C_R   0.487142 0.316251 0.409290 0.390167
C41   C     C_R   0.924343 0.199455 0.882002 -0.189722
C42   C     C_R   0.075657 0.800545 0.117998 -0.189722
C43   C     C_R   0.575712 0.699063 0.618141 -0.189852
C44   C     C_R   0.424287 0.300937 0.381859 -0.189852
H1    H     H_    0.902334 0.298812 0.829044 0.159318
H2    H     H_    0.097666 0.701188 0.170956 0.159318
H3    H     H_    0.597749 0.798252 0.671173 0.159317
H4    H     H_    0.402251 0.201748 0.328827 0.159317
H5    H     H_    0.088759 0.093924 0.860647 0.156564
H6    H     H_    0.911241 0.906076 0.139353 0.156564
H7    H     H_    0.411271 0.593631 0.639429 0.156568
H8    H     H_    0.588729 0.406368 0.360571 0.156568
H9    H     H_    0.250513 0.867929 0.046582 0.111874
H10   H     H_    0.749487 0.132071 0.953418 0.111874
H11   H     H_    0.249452 0.368320 0.453336 0.111846
H12   H     H_    0.750548 0.631680 0.546664 0.111847
H13   H     H_    0.805248 0.228892 0.848353 0.119151
H14   H     H_    0.194752 0.771108 0.151647 0.119151
H15   H     H_    0.694815 0.728308 0.651797 0.119158
H16   H     H_    0.305185 0.271692 0.348203 0.119159
C45   C     C_1   0.416788 0.006896 0.918699 -0.160832
C46   C     C_1   0.583212 0.993104 0.081301 -0.160833
C47   C     C_1   0.083212 0.506890 0.581301 -0.160900
C48   C     C_1   0.916788 0.493110 0.418699 -0.160899
C49   C     C_1   0.469151 0.002360 0.969940 0.031046
C50   C     C_1   0.530848 0.997640 0.030060 0.031046
C51   C     C_1   0.030849 0.502357 0.530060 0.030959
C52   C     C_1   0.969151 0.497643 0.469940 0.030959
Cl1   Cl    Cl    0.024870 0.366538 0.873351 -0.664999
Cl2   Cl    Cl    0.975129 0.633462 0.126649 -0.664999
Cl3   Cl    Cl    0.475232 0.866206 0.626930 -0.665028
Cl4   Cl    Cl    0.524768 0.133794 0.373070 -0.665028

loop_
_geom_bond_atom_site_label_1
_geom_bond_atom_site_label_2
_ccdc_geom_bond_type
O17   V3    S    
C25   C29   A    
O1    C5    A    
C47   C51   T    
O19   V1    S    
C9    C21   A    
C16   H16   S    
O3    C7    A    
C10   C18   A    
O15   V3    S    
C25   C33   A    
C33   C38   A    
O18   V4    S    
C35   C40   A    
C26   C30   A    
C4    C45   S    
C36   C39   A    
C40   C44   A    
O9    V1    S    
C23   H8    S    
C14   C18   A    
C1    C48   S    
O4    C8    A    
C37   Cl1   S    
C3    C46   S    
C39   Cl3   S    
O1    V3    S    
O13   V1    S    
O2    V4    S    
O3    V1    S    
C28   C36   A    
C1    O15   A    
C15   C31   A    
C48   C52   T    
C2    O16   A    
C7    C9    S    
O2    C6    A    
C10   C22   A    
C11   C19   A    
C16   C20   A    
C43   H3    S    
C44   H4    S    
C13   C29   A    
C34   C37   A    
O11   C7    A    
C11   C23   A    
C35   C36   A    
O12   C8    A    
C14   H14   S    
C24   H7    S    
C13   H13   S    
O10   V2    S    
O5    V1    S    
C39   C43   A    
C2    C47   S    
O7    V3    S    
C38   C42   A    
O8    V4    S    
C40   Cl4   S    
C46   C50   T    
C17   H10   S    
C45   C49   T    
C23   C27   A    
C16   C32   A    
C19   H12   S    
C32   C44   A    
C8    C10   S    
C21   H6    S    
C26   C34   A    
O7    C3    A    
O5    C1    A    
C31   C43   A    
C14   C30   A    
C21   C25   A    
O8    C4    A    
O9    C5    A    
O14   V2    S    
O6    V2    S    
C38   Cl2   S    
C12   C20   A    
C27   C35   A    
C51   C52   S    
C29   C41   A    
O16   V4    S    
C3    O13   A    
C20   H11   S    
O6    C2    A    
C15   C19   A    
O11   V3    S    
C30   C42   A    
O12   V4    S    
C6    C12   S    
C22   C26   A    
C9    C17   A    
O10   C6    A    
O20   V2    S    
C5    C11   S    
C15   H15   S    
C33   C34   A    
C42   H2    S    
C41   H1    S    
C12   C24   A    
C27   C31   A    
C13   C17   A    
C37   C41   A    
C24   C28   A    
C18   H9    S    
C4    O14   A    
C49   C50   S    
C22   H5    S    
O4    V2    S    
C28   C32   A    
