data_mof_unit_30244.cif
_audit_creation_date              2012-12-11T15:39:15-0500
_audit_creation_method            fapswitch 2.2
_symmetry_space_group_name_H-M    P1
_symmetry_Int_Tables_number       1
_space_group_crystal_system       triclinic
_cell_length_a                    14.302727
_cell_length_b                    14.824327
_cell_length_c                    33.251347
_cell_angle_alpha                 98.08206
_cell_angle_beta                  90.520522
_cell_angle_gamma                 118.742729
_cell_volume                      6096.22468122

loop_
_atom_site_label
_atom_site_type_symbol
_atom_type_description
_atom_site_fract_x
_atom_site_fract_y
_atom_site_fract_z
_atom_type_partial_charge
C1    C     C_R   0.617352 0.909243 0.437270 0.542933
C2    C     C_R   0.711569 0.436621 0.949384 0.541668
C3    C     C_R   0.555925 0.801206 0.771236 -0.087776
C4    C     C_R   0.563562 0.817555 0.730892 -0.091351
C5    C     C_R   0.615625 0.777328 0.704640 0.028063
C6    C     C_R   0.655073 0.715907 0.718299 -0.070781
C7    C     C_R   0.647930 0.699941 0.758820 -0.066499
C8    C     C_R   0.601208 0.745255 0.785768 0.034618
C9    C     C_R   0.564883 0.732603 0.630444 -0.128554
C10   C     C_R   0.564856 0.763426 0.592736 -0.119731
C11   C     C_R   0.707684 0.937239 0.620027 -0.125171
C12   C     C_2   0.277632 0.775076 0.175796 0.236889
C13   C     C_R   0.710512 0.738981 0.950051 0.540866
C14   C     C_1   0.199889 0.021505 0.410571 0.228509
C15   C     C_1   0.083337 0.983807 0.197783 0.204070
C16   C     C_2   0.816673 0.334840 0.082560 0.240826
C17   C     C_1   0.877370 0.999587 0.119786 0.233895
C18   C     C_1   0.858799 0.953130 0.325294 0.221228
C19   C     C_1   0.835787 0.977507 0.410759 0.234379
C20   C     C_2   0.462305 0.724534 0.297291 0.258677
C21   C     C_2   0.825598 0.277404 0.832091 0.313554
C22   C     C_2   0.823560 0.270399 0.696736 0.256071
C23   C     C_2   0.478863 0.289920 0.819382 0.231976
C24   C     C_R   0.782712 0.370578 0.155107 -0.087763
C25   C     C_1   0.496275 0.313056 0.703707 0.174259
C26   C     C_1   0.160706 0.942953 0.928666 0.220458
C27   C     C_1   0.565914 0.173842 0.280141 0.203115
C28   C     C_2   0.961834 0.849981 0.784978 0.220150
C29   C     C_2   0.992830 0.581183 0.803082 0.220621
C30   C     C_2   0.122843 0.668204 0.558218 0.243431
C31   C     C_1   0.780236 0.982841 0.691464 0.243384
C32   C     C_1   0.721361 0.939558 0.843637 0.211997
C33   C     C_1   0.662721 0.528767 0.206940 0.209058
C34   C     C_1   0.896298 0.570352 0.253448 0.214523
C35   C     C_R   0.780187 0.387975 0.114745 0.001517
C36   C     C_R   0.665391 0.296056 0.234350 -0.121412
C37   C     C_R   0.649105 0.275372 0.274021 0.001436
C38   C     C_R   0.713114 0.353555 0.307049 -0.001796
C39   C     C_R   0.796361 0.449126 0.299809 -0.120247
C40   C     C_R   0.812280 0.469872 0.260015 0.014158
C41   C     C_R   0.744482 0.393634 0.227231 -0.002077
C42   C     C_R   0.745993 0.417503 0.185807 -0.013326
C43   C     C_R   0.594148 0.320442 0.363175 -0.099331
C44   C     C_R   0.593776 0.205074 0.456590 0.545122
C45   C     C_R   0.565137 0.285266 0.400130 -0.115100
C46   C     C_R   0.735960 0.290415 0.410611 -0.115501
C47   C     C_R   0.764969 0.325979 0.373677 -0.112093
C48   C     C_R   0.692174 0.336606 0.349126 0.026718
C49   C     C_R   0.633899 0.265460 0.423244 0.020050
C50   C     C_R   0.243841 0.876648 0.393022 -0.005528
C51   C     C_R   0.210998 0.946371 0.381219 -0.022257
C52   C     C_R   0.190427 0.945009 0.339769 -0.106085
C53   C     C_R   0.707331 0.906953 0.658039 -0.016192
C54   C     C_R   0.200568 0.874368 0.310080 0.027860
C55   C     C_R   0.223760 0.799867 0.321609 -0.076531
C56   C     C_R   0.294747 0.892302 0.434433 0.536266
C57   C     C_R   0.244849 0.800637 0.362687 -0.127784
C58   C     C_R   0.210982 0.818488 0.161551 0.019910
C59   C     C_R   0.177421 0.794806 0.119830 -0.150256
C60   C     C_R   0.088582 0.898856 0.129965 -0.128940
C61   C     C_R   0.118811 0.921539 0.171799 -0.027803
C62   C     C_R   0.176217 0.877873 0.188113 0.039279
C63   C     C_1   0.186312 0.882220 0.231672 0.087154
C64   C     C_R   0.632736 0.804965 0.663621 0.001138
C65   C     C_1   0.192164 0.880458 0.267643 0.066106
C66   C     C_R   0.112627 0.830938 0.104119 -0.000167
C67   C     C_R   0.637643 0.874656 0.395878 -0.033960
C68   C     C_R   0.614191 0.905722 0.551691 0.544512
C69   C     C_R   0.548685 0.807792 0.367912 -0.106563
C70   C     C_R   0.559219 0.793144 0.326063 0.014719
C71   C     C_R   0.661484 0.846828 0.312037 -0.016408
C72   C     C_R   0.753053 0.904879 0.339978 -0.018837
C73   C     C_R   0.741390 0.918307 0.382090 -0.037905
C74   C     C_R   0.770410 0.925619 0.175069 -0.101980
C75   C     C_R   0.633216 0.867059 0.587670 0.005554
C76   C     C_R   0.786007 0.914989 0.133517 -0.024634
C77   C     C_R   0.623886 0.745987 0.122522 -0.142057
C78   C     C_R   0.609273 0.757686 0.163793 -0.110165
C79   C     C_R   0.684818 0.845225 0.190231 0.032149
C80   C     C_R   0.589537 0.198697 0.571217 0.541978
C81   C     C_1   0.678261 0.848103 0.233169 0.013354
C82   C     C_1   0.671722 0.847491 0.269066 -0.005424
C83   C     C_R   0.715390 0.821104 0.107059 0.001624
C84   C     C_R   0.621929 0.245620 0.614789 -0.023058
C85   C     C_R   0.554378 0.270788 0.638357 -0.134914
C86   C     C_R   0.052581 0.781638 0.063713 0.549759
C87   C     C_R   0.570104 0.290285 0.680930 -0.013614
C88   C     C_R   0.654376 0.284341 0.700623 -0.019956
C89   C     C_R   0.728823 0.268678 0.677130 0.000412
C90   C     C_R   0.711433 0.249204 0.634365 -0.095833
C91   C     C_R   0.745380 0.305298 0.848886 0.035028
C92   C     C_R   0.288200 0.886855 0.548265 0.522697
C93   C     C_R   0.758752 0.344914 0.890674 -0.159554
C94   C     C_R   0.590948 0.346621 0.885445 -0.098377
C95   C     C_R   0.576988 0.309911 0.843431 -0.015404
C96   C     C_R   0.658232 0.295795 0.824546 0.018714
C97   C     C_R   0.743698 0.485968 0.065764 0.522098
C98   C     C_1   0.659677 0.288579 0.780701 0.033711
C99   C     C_1   0.659095 0.286940 0.744327 -0.019248
C100  C     C_R   0.684545 0.370436 0.908770 -0.019607
C101  C     C_R   0.062151 0.749787 0.907421 -0.015346
C102  C     C_R   0.118836 0.851049 0.897672 -0.025361
C103  C     C_R   0.134022 0.863623 0.857051 -0.135067
C104  C     C_R   0.739141 0.453350 0.105632 -0.019713
C105  C     C_R   0.091909 0.776616 0.825987 -0.048752
C106  C     C_R   0.039426 0.674810 0.835531 0.016705
C107  C     C_R   0.026538 0.662711 0.876450 -0.098337
C108  C     C_R   0.743318 0.789583 0.066577 0.536253
C109  C     C_R   0.176291 0.771455 0.762472 -0.126396
C110  C     C_R   0.187226 0.781761 0.721756 -0.114091
C111  C     C_R   0.127321 0.816678 0.701857 -0.007375
C112  C     C_R   0.056049 0.841417 0.722749 -0.072213
C113  C     C_R   0.042091 0.828952 0.763738 0.024185
C114  C     C_R   0.103769 0.793938 0.783565 -0.030357
C115  C     C_R   0.198923 0.932678 0.650729 -0.117246
C116  C     C_R   0.700635 0.498240 0.136511 -0.126984
C117  C     C_R   0.237884 0.948833 0.612819 -0.127926
C118  C     C_R   0.156066 0.760713 0.590469 0.009223
C119  C     C_R   0.021559 0.731858 0.947512 0.540590
C120  C     C_R   0.120137 0.746012 0.629351 -0.080005
C121  C     C_R   0.144667 0.831685 0.659624 -0.009812
C122  C     C_R   0.222336 0.863996 0.583159 -0.015845
C123  C     C_R   0.661762 0.741191 0.911341 0.003894
C124  C     C_R   0.595139 0.647869 0.884876 -0.120838
C125  C     C_R   0.571247 0.649927 0.844323 -0.125805
C126  C     C_R   0.612326 0.745201 0.829868 0.004214
C127  C     C_R   0.673614 0.839500 0.857153 -0.005679
C128  C     C_R   0.703863 0.481027 0.176346 0.001164
C129  C     C_R   0.697346 0.836729 0.897599 -0.124370
Cr1   Cr    Cr6+3 0.424820 0.846020 0.489780 1.031726
Cr2   Cr    Cr6+3 0.657880 0.078580 0.505700 1.058917
Cr3   Cr    Cr6+3 0.417280 0.075360 0.504550 1.056870
Cr4   Cr    Cr6+3 0.903360 0.812540 0.006510 1.072223
Cr5   Cr    Cr6+3 0.914630 0.587050 0.006280 1.033589
Cr6   Cr    Cr6+3 0.673560 0.582680 0.008540 1.032205
H1    H     H_    0.670398 0.549530 0.129733 0.136517
H2    H     H_    0.827329 0.994588 0.195881 0.146775
H3    H     H_    0.469295 0.771992 0.378455 0.176299
H4    H     H_    0.541888 0.695797 0.175390 0.133672
H5    H     H_    0.566822 0.674178 0.103248 0.138425
H6    H     H_    0.829501 0.359666 0.908832 0.118948
H7    H     H_    0.841180 0.338920 0.363092 0.127514
H8    H     H_    0.765158 0.231772 0.616301 0.180975
H9    H     H_    0.485827 0.269931 0.623720 0.142694
H10   H     H_    0.531537 0.363050 0.899488 0.183301
H11   H     H_    0.981504 0.584959 0.883973 0.170127
H12   H     H_    0.486251 0.267139 0.409180 0.147131
H13   H     H_    0.075046 0.667997 0.636598 0.166786
H14   H     H_    0.243630 0.763947 0.705820 0.127536
H15   H     H_    0.223514 0.744625 0.777569 0.130224
H16   H     H_    0.176146 0.941439 0.849331 0.142774
H17   H     H_    0.010658 0.868742 0.706771 0.164524
H18   H     H_    0.218125 0.999293 0.674110 0.138989
H19   H     H_    0.287015 0.028517 0.607905 0.145218
H20   H     H_    0.567910 0.573124 0.894652 0.151002
H21   H     H_    0.613776 0.237528 0.208956 0.129106
H22   H     H_    0.749113 0.909193 0.917811 0.139795
H23   H     H_    0.812489 0.319790 0.162839 0.171116
H24   H     H_    0.531998 0.864402 0.720416 0.117725
H25   H     H_    0.519098 0.836070 0.791616 0.117172
H26   H     H_    0.524601 0.576955 0.823714 0.155683
H27   H     H_    0.695150 0.684321 0.698158 0.119350
H28   H     H_    0.683830 0.657072 0.769709 0.117453
H29   H     H_    0.507362 0.654058 0.634416 0.131673
H30   H     H_    0.507038 0.707721 0.568193 0.139379
H31   H     H_    0.760955 0.017463 0.616599 0.159497
H32   H     H_    0.846460 0.508407 0.325270 0.123685
H33   H     H_    0.537853 0.329552 0.344434 0.131720
H34   H     H_    0.790891 0.276687 0.428036 0.143067
H35   H     H_    0.289608 0.719087 0.154868 0.105588
H36   H     H_    0.803871 0.337418 0.050654 0.120421
H37   H     H_    0.467722 0.716624 0.264595 0.141043
H38   H     H_    0.899571 0.301663 0.850361 0.130827
H39   H     H_    0.842671 0.292940 0.729424 0.190864
H40   H     H_    0.461049 0.250856 0.787974 0.136065
H41   H     H_    0.945595 0.834979 0.815847 0.120296
H42   H     H_    0.991473 0.588843 0.771163 0.124445
H43   H     H_    0.131488 0.677001 0.526429 0.131521
H44   H     H_    0.197574 0.743655 0.099734 0.121340
H45   H     H_    0.229884 0.743754 0.298682 0.191933
H46   H     H_    0.268658 0.745585 0.370404 0.169802
H47   H     H_    0.038465 0.927198 0.118203 0.152017
H48   H     H_    0.169633 0.000975 0.330575 0.146005
N1    N     N_1   0.190891 0.081758 0.434035 -0.256802
N2    N     N_1   0.759729 0.019665 0.832792 -0.218775
N3    N     N_1   0.629895 0.567109 0.231419 -0.294618
N4    N     N_1   0.963509 0.650848 0.248120 -0.293646
N5    N     N_1   0.054849 0.033574 0.218578 -0.265855
N6    N     N_1   0.950623 0.067644 0.108898 -0.238328
N7    N     N_1   0.943071 0.991482 0.313579 -0.266804
N8    N     N_1   0.911236 0.024692 0.433582 -0.248911
N9    N     N_1   0.437082 0.331634 0.721740 -0.280045
N10   N     N_1   0.194266 0.016600 0.953495 -0.270531
N11   N     N_1   0.499318 0.092573 0.285049 -0.268179
N12   N     N_1   0.838507 0.043441 0.718307 -0.156874
O1    O     O_R   0.318160 0.824460 0.443680 -0.521995
O2    O     O_R   0.668160 0.499860 0.053480 -0.506679
O3    O     O_R   0.689170 0.693840 0.050110 -0.506038
O4    O     O_R   0.525040 0.857250 0.449830 -0.505923
O5    O     O_R   0.803860 0.812940 0.962540 -0.504526
O6    O     O_R   0.982950 0.787950 0.964120 -0.482231
O7    O     O_R   0.007050 0.649970 0.960540 -0.516436
O8    O     O_R   0.807910 0.482370 0.965590 -0.501297
O9    O     O_R   0.643310 0.460980 0.963840 -0.513390
O10   O     O_R   0.666140 0.657800 0.967020 -0.499791
O11   O     O_3   0.830520 0.660760 0.007110 -0.251966
O12   O     O_R   0.645130 0.163230 0.552140 -0.499670
O13   O     O_R   0.684760 0.998800 0.456360 -0.490667
O14   O     O_R   0.647540 0.166310 0.470260 -0.498747
O15   O     O_R   0.500960 0.181750 0.467450 -0.506763
O16   O     O_R   0.331100 0.981120 0.457080 -0.481690
O17   O     O_R   0.315560 0.821140 0.532010 -0.519469
O18   O     O_R   0.522630 0.854180 0.531710 -0.496095
O19   O     O_R   0.682160 0.995480 0.544690 -0.507489
O20   O     O_2   0.322053 0.802479 0.210267 -0.501064
O21   O     O_2   0.860794 0.286305 0.091272 -0.489010
O22   O     O_2   0.374853 0.674600 0.309800 -0.526624
O23   O     O_R   0.498360 0.178430 0.555780 -0.512713
O24   O     O_2   0.809095 0.224444 0.798519 -0.475741
O25   O     O_2   0.882429 0.247817 0.676503 -0.490949
O26   O     O_2   0.416041 0.315791 0.834476 -0.492991
O27   O     O_2   0.912192 0.884108 0.768130 -0.489313
O28   O     O_2   0.954971 0.493642 0.811602 -0.526735
O29   O     O_2   0.083166 0.580376 0.566683 -0.500250
O30   O     O_R   0.328690 0.978040 0.538950 -0.495344
O31   O     O_3   0.499990 0.999990 0.500010 -0.249417
O32   O     O_R   0.828710 0.851830 0.052170 -0.495548
O33   O     O_R   0.005980 0.823990 0.047210 -0.492833
O34   O     O_R   0.031900 0.688850 0.050170 -0.505103
O35   O     O_R   0.830940 0.518420 0.048680 -0.503084

loop_
_geom_bond_atom_site_label_1
_geom_bond_atom_site_label_2
_ccdc_geom_bond_type
C44   C49   S    
C58   C62   A    
C87   C88   A    
C63   C65   T    
C101  C107  A    
C101  C102  A    
C115  C121  A    
C13   O5    A    
C111  C121  S    
C9    C64   A    
C86   O33   A    
C41   C42   S    
C105  C106  A    
Cr1   O17   S    
C111  C112  A    
C119  O6    A    
C52   H48   S    
C80   C84   S    
C110  H14   S    
Cr2   O12   S    
C78   H4    S    
Cr6   O3    S    
C57   H46   S    
C81   C82   T    
Cr5   O8    S    
C54   C65   S    
C1    O4    A    
C43   H33   S    
C68   C75   S    
C119  O7    A    
C47   H7    S    
C36   H21   S    
C126  C127  A    
C74   C76   A    
C32   N2    T    
C20   O22   D    
C34   C40   S    
C5    C6    A    
C32   C127  S    
C36   C37   A    
Cr1   O1    S    
C59   C66   A    
C80   O23   A    
C38   C39   A    
C13   C123  S    
C53   C64   A    
C24   H23   S    
Cr5   O11   S    
C4    H24   S    
C23   H40   S    
C106  C107  A    
C77   C83   A    
C25   C87   S    
C24   C42   A    
C83   C108  S    
C76   C83   A    
Cr1   O18   S    
C44   O14   A    
C118  C122  A    
Cr5   O34   S    
C16   O21   D    
C55   H45   S    
C110  C111  A    
C91   C96   A    
C104  C116  A    
Cr2   O31   S    
C23   O26   D    
C23   C95   S    
C115  C117  A    
C96   C98   S    
Cr2   O14   S    
C11   H31   S    
Cr4   O33   S    
C17   C76   S    
C70   C71   A    
C67   C73   A    
C45   C49   A    
C68   O19   A    
C43   C48   A    
C38   C48   S    
C90   H8    S    
C11   C53   A    
C42   C128  A    
Cr6   O10   S    
C71   C82   S    
C12   C58   S    
C94   H10   S    
C2    C100  S    
C56   O1    A    
C115  H18   S    
Cr2   O19   S    
C18   C72   S    
C15   C61   S    
C20   C70   S    
C36   C41   A    
C61   C62   A    
Cr3   O16   S    
C84   C90   A    
Cr2   O13   S    
C85   H9    S    
C129  H22   S    
C112  C113  A    
C22   H39   S    
C52   C54   A    
Cr5   O7    S    
C6    C7    A    
C85   C87   A    
C60   H47   S    
C74   H2    S    
C24   C35   A    
C102  C103  A    
C101  C119  S    
C6    H27   S    
C105  C114  S    
C123  C124  A    
C2    O9    A    
C84   C85   A    
C56   O16   A    
C3    C8    A    
C39   C40   A    
C79   C81   S    
C107  H11   S    
C78   C79   A    
C28   H41   S    
C30   O29   D    
C30   C118  S    
C17   N6    T    
C58   C59   A    
C77   C78   A    
C7    H28   S    
C33   C128  S    
C50   C56   S    
C51   C52   A    
C5    C64   S    
C60   C61   A    
C67   C69   A    
C9    H29   S    
C117  C122  A    
C127  C129  A    
C66   C86   S    
C37   C38   A    
Cr3   O31   S    
C91   C93   A    
C44   O15   A    
C88   C99   S    
C10   C75   A    
C14   N1    T    
C47   C48   A    
C46   C49   A    
C94   C100  A    
C62   C63   S    
C112  H17   S    
C50   C51   A    
C30   H43   S    
Cr3   O15   S    
C94   C95   A    
C103  C105  A    
C27   N11   T    
C46   C47   A    
C31   C53   S    
C68   O18   A    
C43   C45   A    
C93   C100  A    
C33   N3    T    
C109  C114  A    
Cr6   O11   S    
C19   C73   S    
C8    C126  S    
C40   C41   A    
C20   H37   S    
C92   O30   A    
C120  H13   S    
Cr4   O5    S    
C21   H38   S    
C74   C79   A    
C55   C57   A    
C21   O24   D    
C125  C126  A    
C34   N4    T    
C13   O10   A    
C29   C106  S    
C92   O17   A    
Cr1   O4    S    
C117  H19   S    
C93   H6    S    
C120  C121  A    
C1    O13   A    
Cr4   O6    S    
C113  C114  A    
C21   C91   S    
C69   H3    S    
C29   O28   D    
C22   O25   D    
C54   C55   A    
C18   N7    T    
C45   H12   S    
C50   C57   A    
C125  H26   S    
C2    O8    A    
Cr4   O32   S    
C72   C73   A    
C25   N9    T    
Cr6   O2    S    
C12   H35   S    
Cr6   O9    S    
C116  H1    S    
C108  O32   A    
C103  H16   S    
C35   C104  A    
C15   N5    T    
C46   H34   S    
C59   H44   S    
C109  H15   S    
Cr4   O11   S    
C71   C72   A    
C16   C35   S    
C11   C75   A    
Cr3   O30   S    
C26   C102  S    
C77   H5    S    
C31   N12   T    
C86   O34   A    
C16   H36   S    
C3    H25   S    
C27   C37   S    
C10   H30   S    
C1    C67   S    
C22   C89   S    
C92   C122  S    
C9    C10   A    
Cr3   O23   S    
Cr5   O35   S    
C108  O3    A    
C69   C70   A    
C118  C120  A    
C97   C104  S    
C7    C8    A    
C28   C113  S    
C60   C66   A    
C39   H32   S    
C4    C5    A    
C80   O12   A    
C88   C89   A    
Cr1   O31   S    
C14   C51   S    
C28   O27   D    
C98   C99   T    
C116  C128  A    
C124  H20   S    
C95   C96   A    
C29   H42   S    
C12   O20   D    
C89   C90   A    
C109  C110  A    
C26   N10   T    
C97   O35   A    
C123  C129  A    
C3    C4    A    
C19   N8    T    
C124  C125  A    
C97   O2    A    
