data_mof_unit_5720.cif
_audit_creation_date              2012-10-26T19:03:26-0400
_audit_creation_method            fapswitch 2.2
_symmetry_space_group_name_H-M    P1
_symmetry_Int_Tables_number       1
_space_group_crystal_system       triclinic
_cell_length_a                    10.83109
_cell_length_b                    13.029045
_cell_length_c                    11.653276
_cell_angle_alpha                 99.803188
_cell_angle_beta                  94.00514
_cell_angle_gamma                 90.442067
_cell_volume                      1616.20443084

loop_
_atom_site_label
_atom_site_type_symbol
_atom_type_description
_atom_site_fract_x
_atom_site_fract_y
_atom_site_fract_z
_atom_type_partial_charge
C1    C     C_R   0.496447 0.299335 0.478711 0.543573
C2    C     C_R   0.433049 0.128002 0.362912 -0.135714
C3    C     C_R   0.525956 0.138144 0.560057 -0.128170
C4    C     C_R   0.262804 0.510737 0.501892 0.550836
C5    C     C_R   0.512822 0.030720 0.550701 0.037287
C6    C     C_R   0.457104 0.970750 0.446814 0.036478
C7    C     C_R   0.444060 0.862267 0.438691 -0.026520
C8    C     C_R   0.546895 0.875621 0.634114 -0.127159
C9    C     C_R   0.555119 0.982935 0.644085 -0.138793
C10   C     C_R   0.383649 0.401285 0.021186 -0.167362
C11   C     C_R   0.394653 0.411021 0.143663 0.055140
C12   C     C_R   0.070495 0.534022 0.612725 -0.004345
C13   C     C_R   0.549844 0.542421 0.157475 0.065381
C14   C     C_R   0.541876 0.535279 0.034639 -0.008532
C15   C     C_R   0.457856 0.463745 0.965470 -0.012782
C16   C     C_R   0.497766 0.700870 0.520945 0.559399
C17   C     C_R   0.450114 0.457120 0.842427 0.012027
C18   C     C_R   0.605095 0.589404 0.857170 0.258778
C19   C     C_R   0.615653 0.598041 0.979703 -0.165845
C20   C     C_R   0.738127 0.493059 0.499706 0.547667
C21   C     C_R   0.127696 0.579442 0.723886 0.019273
C22   C     C_R   0.078968 0.557363 0.826400 0.083772
C23   C     C_R   0.128786 0.523262 0.505735 -0.006979
C24   C     C_R   0.972560 0.495060 0.817624 -0.103643
C25   C     C_R   0.905754 0.466552 0.710243 -0.132062
C26   C     C_R   0.948097 0.495830 0.608204 0.010216
C27   C     C_1   0.220209 0.662062 0.734783 0.213448
C28   C     C_1   0.376285 0.801429 0.337308 0.202625
C29   C     C_R   0.056438 0.506287 0.399556 -0.150752
C30   C     C_R   0.929390 0.494903 0.398265 -0.156791
C31   C     C_R   0.873467 0.489356 0.501781 -0.002449
C32   C     C_R   0.494405 0.814382 0.531480 -0.002326
C33   C     C_R   0.486438 0.186758 0.466439 0.005598
C34   C     C_R   0.417480 0.021064 0.353286 -0.133047
Cu1   Cu    Cu3+1 0.509250 0.507730 0.615930 0.981120
Cu2   Cu    Cu3+1 0.490750 0.492270 0.384070 0.958725
H1    H     H_    0.097965 0.501432 0.316923 0.150352
H2    H     H_    0.937106 0.474020 0.895292 0.133748
H3    H     H_    0.822514 0.419840 0.708224 0.145056
H4    H     H_    0.875247 0.488403 0.315501 0.137976
H5    H     H_    0.584350 0.840327 0.706206 0.142159
H6    H     H_    0.375276 0.978501 0.271948 0.127399
H7    H     H_    0.662306 0.732359 0.838349 0.199845
H8    H     H_    0.772879 0.642049 0.826367 0.213176
H9    H     H_    0.133834 0.679278 0.952183 0.245084
H10   H     H_    0.227855 0.575506 0.943227 0.247284
H11   H     H_    0.597258 0.028420 0.723993 0.108646
H12   H     H_    0.401137 0.164964 0.290009 0.125589
H13   H     H_    0.567890 0.183870 0.640026 0.116641
H14   H     H_    0.385381 0.402517 0.788431 0.124611
H15   H     H_    0.317588 0.345553 0.970678 0.095560
H16   H     H_    0.681003 0.653893 0.031224 0.090150
H17   H     H_    0.337157 0.362568 0.185832 0.119951
H18   H     H_    0.614390 0.597291 0.211356 0.120159
N1    N     N_R   0.523180 0.519350 0.790130 -0.200269
N2    N     N_R   0.476820 0.480650 0.209890 -0.225486
N3    N     N_3   0.680211 0.655173 0.802974 -0.547423
N4    N     N_1   0.293346 0.728755 0.744378 -0.291224
N5    N     N_3   0.135455 0.597950 0.940159 -0.627066
N6    N     N_1   0.322235 0.753066 0.256578 -0.291162
O1    O     O_R   0.506570 0.354460 0.582000 -0.521550
O2    O     O_R   0.490940 0.341410 0.386200 -0.512012
O3    O     O_R   0.327470 0.506530 0.597920 -0.505161
O4    O     O_R   0.311840 0.493480 0.402120 -0.506286
O5    O     O_R   0.509060 0.658590 0.613800 -0.455174
O6    O     O_R   0.493430 0.645540 0.418000 -0.499169
O7    O     O_R   0.688160 0.506520 0.597880 -0.484283
O8    O     O_R   0.672530 0.493470 0.402080 -0.515189

loop_
_geom_bond_atom_site_label_1
_geom_bond_atom_site_label_2
_ccdc_geom_bond_type
C17   H14   S    
C1    O1    A    
C24   H2    S    
Cu2   O8    S    
C5    C9    A    
C6    C7    A    
Cu2   N2    S    
H10   N5    S    
C16   C32   S    
C4    O4    A    
C20   O7    A    
Cu1   Cu2   S    
C34   H6    S    
Cu1   O7    S    
H8    N3    S    
C13   N2    A    
C19   H16   S    
C1    O2    A    
C2    C34   A    
C3    H13   S    
C30   H4    S    
C26   C31   A    
Cu1   O1    S    
C25   C26   A    
Cu2   O4    S    
C13   C14   A    
C24   C25   A    
C5    C6    A    
C12   C23   A    
C29   C30   A    
C11   N2    A    
C18   N1    A    
C27   N4    T    
Cu2   O2    S    
C10   H15   S    
C12   C21   A    
C2    C33   A    
C4    O3    A    
C16   O5    A    
C17   N1    A    
C9    H11   S    
Cu2   O6    S    
C10   C15   A    
C28   N6    T    
C21   C27   S    
C30   C31   A    
C22   C24   A    
C16   O6    A    
C10   C11   A    
H7    N3    S    
C1    C33   S    
C8    C32   A    
C23   C29   A    
C18   C19   A    
C8    H5    S    
C13   H18   S    
C29   H1    S    
C22   N5    S    
C15   C17   A    
Cu1   O5    S    
C3    C33   A    
C14   C15   A    
H9    N5    S    
Cu1   O3    S    
C7    C32   A    
C18   N3    S    
C2    H12   S    
C4    C23   S    
C21   C22   A    
Cu1   N1    S    
C14   C19   A    
C20   O8    A    
C25   H3    S    
C7    C28   S    
C6    C34   A    
C12   C26   A    
C8    C9    A    
C3    C5    A    
C20   C31   S    
C11   H17   S    
