data_mof_unit_28563.cif
_audit_creation_date              2012-12-11T16:53:43-0500
_audit_creation_method            fapswitch 2.2
_symmetry_space_group_name_H-M    P1
_symmetry_Int_Tables_number       1
_space_group_crystal_system       triclinic
_cell_length_a                    14.868755
_cell_length_b                    14.806135
_cell_length_c                    16.940425
_cell_angle_alpha                 108.889572
_cell_angle_beta                  106.103626
_cell_angle_gamma                 108.399734
_cell_volume                      3034.21985092

loop_
_atom_site_label
_atom_site_type_symbol
_atom_type_description
_atom_site_fract_x
_atom_site_fract_y
_atom_site_fract_z
_atom_type_partial_charge
C1    C     C_R   0.087848 0.283365 0.071478 -0.237733
C2    C     C_R   0.029754 0.467382 0.725510 0.061779
C3    C     C_R   0.663651 0.218312 0.746144 0.040733
C4    C     C_R   0.360801 0.561405 0.053962 0.071340
C5    C     C_R   0.221779 0.702648 0.265569 -0.125161
C6    C     C_R   0.753347 0.568148 0.977798 -0.146634
C7    C     C_R   0.892190 0.395589 0.176378 -0.125056
C8    C     C_R   0.084545 0.800586 0.003862 -0.129728
C9    C     C_R   0.913686 0.716529 0.926625 -0.131821
C10   C     C_R   0.065094 0.479892 0.252757 -0.143034
C11   C     C_R   0.227470 0.799169 0.187840 -0.125441
C12   C     C_R   0.936588 0.452415 0.734794 -0.128522
C13   C     C_R   0.744109 0.470418 0.054088 -0.117610
C14   C     C_R   0.247094 0.805319 0.275064 0.062984
C15   C     C_R   0.717908 0.548126 0.040504 0.068974
C16   C     C_R   0.974337 0.418895 0.254996 0.067915
C17   C     C_R   0.999699 0.811863 0.956604 0.052674
C18   C     C_R   0.526063 0.656544 0.046426 0.174091
C19   C     C_R   0.473637 0.599870 0.084908 0.032789
C20   C     C_R   0.529215 0.566806 0.142121 -0.194695
C21   C     C_R   0.621912 0.564990 0.139515 -0.192642
C22   C     C_R   0.657505 0.594904 0.078810 0.033582
C23   C     C_R   0.720289 0.214737 0.824095 -0.106955
C24   C     C_R   0.616640 0.653590 0.042851 0.162637
C25   C     C_3   0.586604 0.649985 0.949312 -0.522739
C26   C     C_3   0.488264 0.654136 0.953815 -0.520200
C27   C     C_R   0.968256 0.376833 0.322017 0.139817
C28   C     C_R   0.040153 0.423176 0.639141 0.099106
C29   C     C_R   0.145510 0.444057 0.554624 -0.185388
C30   C     C_R   0.138571 0.459222 0.637448 -0.171630
C31   C     C_R   0.950177 0.355803 0.555999 -0.214398
C32   C     C_R   0.955419 0.341854 0.471910 0.140902
C33   C     C_R   0.054110 0.394299 0.473499 0.153697
C34   C     C_R   0.301386 0.595220 0.003702 -0.158963
C35   C     C_R   0.059734 0.408628 0.397785 -0.173954
C36   C     C_R   0.871356 0.312251 0.315240 -0.287995
C37   C     C_R   0.864093 0.290741 0.388395 -0.061509
C38   C     C_R   0.554479 0.145899 0.680506 0.127649
C39   C     C_R   0.291374 0.902020 0.361553 0.136297
C40   C     C_R   0.396564 0.093040 0.447574 -0.204866
C41   C     C_R   0.334190 0.002515 0.364135 -0.171708
C42   C     C_R   0.303583 0.894336 0.443945 -0.272835
C43   C     C_R   0.374539 0.982895 0.527454 0.184316
C44   C     C_R   0.423447 0.082228 0.528583 0.187132
C45   C     C_R   0.726130 0.311220 0.747648 -0.117903
C46   C     C_R   0.509267 0.164889 0.607064 -0.256557
C47   C     C_R   0.499599 0.051149 0.683222 -0.169930
C48   C     C_R   0.407961 0.970676 0.607464 -0.215288
C49   C     C_R   0.087512 0.117926 0.142175 0.152687
C50   C     C_R   0.998300 0.106966 0.076604 0.047084
C51   C     C_R   0.905178 0.013571 0.046063 -0.149108
C52   C     C_R   0.905272 0.938547 0.081349 -0.226655
C53   C     C_R   0.998398 0.952095 0.145393 0.059710
C54   C     C_R   0.087325 0.043406 0.172796 0.173572
C55   C     C_3   0.202029 0.097465 0.228692 -0.545709
C56   C     C_R   0.295730 0.496984 0.078576 -0.108486
C57   C     C_3   0.203293 0.183997 0.196690 -0.283501
C58   C     C_R   0.110930 0.537255 0.812476 -0.125957
C59   C     C_R   0.914931 0.199669 0.996077 0.703006
C60   C     C_R   0.000740 0.188456 0.042900 -0.106115
H1    H     H_    0.166717 0.309517 0.118803 0.119237
H2    H     H_    0.750649 0.626744 0.954216 0.107260
H3    H     H_    0.811964 0.337162 0.148624 0.110815
H4    H     H_    0.165400 0.854500 0.026773 0.090570
H5    H     H_    0.835904 0.692374 0.877634 0.093437
H6    H     H_    0.144166 0.498626 0.294464 0.097030
H7    H     H_    0.238153 0.863503 0.169206 0.088338
H8    H     H_    0.729311 0.435704 0.098931 0.092275
H9    H     H_    0.495673 0.530100 0.179412 0.123558
H10   H     H_    0.656390 0.527052 0.175028 0.126075
H11   H     H_    0.640027 0.722726 0.950091 0.191543
H12   H     H_    0.857793 0.403604 0.681930 0.099941
H13   H     H_    0.569615 0.573043 0.893904 0.202684
H14   H     H_    0.485573 0.729688 0.958043 0.195635
H15   H     H_    0.416652 0.579963 0.900987 0.199869
H16   H     H_    0.135671 0.455027 0.403201 0.129388
H17   H     H_    0.800453 0.280762 0.254257 0.121716
H18   H     H_    0.221670 0.480772 0.555479 0.132937
H19   H     H_    0.210014 0.506949 0.699990 0.116881
H20   H     H_    0.875065 0.325334 0.557562 0.159903
H21   H     H_    0.547367 0.238786 0.604879 0.115952
H22   H     H_    0.690667 0.161884 0.851937 0.158769
H23   H     H_    0.530512 0.035653 0.740494 0.125763
H24   H     H_    0.433646 0.168973 0.447634 0.129376
H25   H     H_    0.370252 0.895307 0.608032 0.128751
H26   H     H_    0.327630 0.010991 0.302388 0.115048
H27   H     H_    0.268296 0.818014 0.443473 0.118052
H28   H     H_    0.832254 0.996353 0.994290 0.198835
H29   H     H_    0.833352 0.868328 0.056989 0.136125
H30   H     H_    0.223072 0.123241 0.303373 0.226429
H31   H     H_    0.239967 0.050843 0.198639 0.166259
H32   H     H_    0.329722 0.660862 0.987939 0.104923
H33   H     H_    0.245895 0.189221 0.152525 0.106351
H34   H     H_    0.703368 0.348797 0.705947 0.087218
H35   H     H_    0.318836 0.468751 0.128551 0.080200
H36   H     H_    0.193810 0.566056 0.831567 0.093432
H37   H     H_    0.227862 0.676575 0.318488 0.093860
N1    N     N_R   0.055640 0.348550 0.045600 -0.069624
N2    N     N_R   0.798340 0.505430 0.954400 -0.042819
N3    N     N_R   0.931580 0.439470 0.128350 -0.043681
N4    N     N_R   0.051950 0.704140 0.002340 -0.039554
N5    N     N_R   0.944360 0.651450 0.954400 -0.040323
N6    N     N_R   0.039170 0.492150 0.176290 -0.041204
N7    N     N_R   0.188710 0.696600 0.128350 -0.040287
N8    N     N_R   0.794820 0.447010 0.002340 -0.040710
N9    N     N_R   0.960830 0.507850 0.823710 -0.041500
N10   N     N_R   0.811290 0.303400 0.871650 -0.044481
N11   N     N_R   0.205180 0.552990 0.997660 -0.039662
N12   N     N_R   0.814810 0.361830 0.823710 -0.045429
N13   N     N_R   0.201660 0.494570 0.045600 -0.036633
N14   N     N_R   0.068420 0.560530 0.871650 -0.040927
N15   N     N_R   0.948050 0.295860 0.997660 -0.099800
N16   N     N_R   0.185190 0.638170 0.176290 -0.040712
Ni1   Ni    Ni4+2 0.119330 0.493420 0.109950 0.206046
Ni2   Ni    Ni4+2 0.880670 0.506580 0.890050 0.207046
Ni3   Ni    Ni4+2 0.872590 0.372590 0.000000 0.254112
Ni4   Ni    Ni4+2 0.127410 0.627410 0.000000 0.210102
C61   C     C_2   0.759389 0.219174 0.375033 0.496067
H38   H     H_    0.689468 0.208076 0.322711 0.001015
O1    O     O_2   0.749766 0.167490 0.418158 -0.581034
C62   C     C_2   0.233368 0.290081 0.273524 0.587743
H39   H     H_    0.295069 0.361596 0.283480 -0.046181
O2    O     O_2   0.189809 0.296820 0.325105 -0.592748
F1    F     F_    0.814071 0.140438 0.976444 -0.757311

loop_
_geom_bond_atom_site_label_1
_geom_bond_atom_site_label_2
_ccdc_geom_bond_type
C56   H35   S    
N4    N5    A    
C23   H22   S    
C40   H24   S    
N8    Ni3   S    
C3    C23   A    
C19   C20   A    
N3    Ni3   S    
C2    C12   A    
C31   H20   S    
C39   C41   A    
C53   C54   A    
C41   H26   S    
C18   C24   A    
C36   C37   A    
N16   Ni1   S    
C55   H30   S    
C36   H17   S    
N2    Ni2   S    
C11   C14   A    
C45   N12   A    
N1    Ni1   S    
C49   C54   A    
C29   C33   A    
C49   C57   S    
C18   C19   A    
C58   H36   S    
C61   H38   S    
C55   H31   S    
N5    Ni2   S    
C33   C35   A    
C14   C39   S    
C4    C19   S    
C15   C22   S    
C37   C61   S    
C47   C48   A    
C3    C38   S    
C44   C46   A    
C9    N5    A    
C18   C26   S    
C11   N7    A    
C25   H11   S    
C47   H23   S    
C5    C14   A    
C8    N4    A    
N13   Ni1   S    
C16   C27   S    
C12   H12   S    
C59   C60   A    
C57   H33   S    
C21   C22   A    
C4    C56   A    
C34   N11   A    
N10   N12   A    
C52   H29   S    
C45   H34   S    
C56   N13   A    
C11   H7    S    
C50   C51   A    
C39   C42   A    
C9    H5    S    
N9    N14   A    
C10   H6    S    
N2    N8    A    
C4    C34   A    
C35   H16   S    
N1    N15   A    
C7    N3    A    
C29   H18   S    
C58   N14   A    
N6    Ni1   S    
C24   C25   S    
C13   N8    A    
C1    C60   A    
C27   C35   A    
C25   C26   S    
C3    C45   A    
N3    N6    A    
C51   C52   A    
C1    N1    A    
C43   C44   A    
C29   C30   A    
C46   H21   S    
C31   C32   A    
C6    C15   A    
C23   N10   A    
C10   N6    A    
C59   N15   A    
C38   C47   A    
C32   C37   A    
C7    H3    S    
C62   H39   S    
C8    H4    S    
C30   H19   S    
C9    C17   A    
C40   C41   A    
C5    H37   S    
C55   C57   S    
C22   C24   A    
C20   H9    S    
C42   C43   A    
N15   Ni3   S    
C62   O2    D    
C52   C53   A    
N7    Ni4   S    
C43   C48   A    
C59   F1    S    
C54   C55   S    
C7    C16   A    
C5    N16   A    
N11   Ni4   S    
C28   C31   A    
C1    H1    S    
C51   H28   S    
C2    C58   A    
C27   C36   A    
N9    Ni2   S    
C8    C17   A    
C21   H10   S    
N14   Ni4   S    
N4    Ni4   S    
C32   C33   A    
C6    H2    S    
C13   C15   A    
C50   C60   S    
C10   C16   A    
C6    N2    A    
C12   N9    A    
C28   C30   A    
C26   H14   S    
N11   N13   A    
C25   H13   S    
C61   O1    D    
N10   Ni3   S    
C38   C46   A    
N12   Ni2   S    
C57   C62   S    
N7    N16   A    
C40   C44   A    
C20   C21   A    
C26   H15   S    
C49   C50   A    
C48   H25   S    
C2    C28   S    
C42   H27   S    
C13   H8    S    
C34   H32   S    
