data_mof_unit_59915.cif
_audit_creation_date              2012-12-10T17:32:56-0500
_audit_creation_method            fapswitch 2.2
_symmetry_space_group_name_H-M    P1
_symmetry_Int_Tables_number       1
_space_group_crystal_system       triclinic
_cell_length_a                    12.496755
_cell_length_b                    13.246834
_cell_length_c                    14.26617
_cell_angle_alpha                 95.450179
_cell_angle_beta                  108.791901
_cell_angle_gamma                 117.165844
_cell_volume                      1905.22521626

loop_
_atom_site_label
_atom_site_type_symbol
_atom_type_description
_atom_site_fract_x
_atom_site_fract_y
_atom_site_fract_z
_atom_type_partial_charge
C1    C     C_R   0.653067 0.715627 0.513140 0.818706
C2    C     C_R   0.821913 0.467506 0.916980 0.022019
C3    C     C_R   0.780010 0.492734 0.993783 0.034926
C4    C     C_R   0.915853 0.430539 0.939286 -0.007853
C5    C     C_R   0.991457 0.448755 0.043999 -0.023353
C6    C     C_R   0.945092 0.467334 0.118056 -0.226701
C7    C     C_R   0.836621 0.481704 0.092785 0.377464
C8    C     C_R   0.935348 0.373070 0.862014 0.329066
C9    C     C_R   0.042499 0.356352 0.889305 -0.198227
C10   C     C_R   0.130863 0.392006 0.992592 0.008758
C11   C     C_R   0.105644 0.439195 0.070801 0.054065
C12   C     C_R   0.616791 0.514530 0.686879 0.848664
C13   C     C_R   0.241266 0.377362 0.020095 0.374997
C14   C     C_R   0.324858 0.409090 0.124260 -0.222394
C15   C     C_R   0.196512 0.477390 0.173976 -0.177850
C16   C     C_R   0.139574 0.958547 0.380848 -0.157190
C17   C     C_R   0.261941 0.161932 0.484913 -0.100315
C18   C     C_R   0.779407 0.922916 0.629204 0.000370
C19   C     C_R   0.909069 0.013962 0.689583 -0.147154
C20   C     C_R   0.007571 0.036118 0.655395 -0.072338
C21   C     C_R   0.976325 0.978325 0.553851 0.092132
C22   C     C_R   0.849687 0.875229 0.498339 0.062682
C23   C     C_R   0.349372 0.285821 0.490888 0.785202
C24   C     C_R   0.068770 0.015345 0.507695 0.055498
C25   C     C_R   0.045418 0.932224 0.421783 0.110303
C26   C     C_R   0.924175 0.826572 0.372531 -0.158130
C27   C     C_R   0.824166 0.803603 0.404892 -0.145263
C28   C     C_R   0.176661 0.133708 0.536991 -0.074947
C29   C     C_R   0.248233 0.072209 0.413405 -0.156383
C30   C     C_R   0.753194 0.842753 0.539800 -0.093577
C31   C     C_R   0.265095 0.674053 0.681224 -0.257286
C32   C     C_R   0.647294 0.332357 0.365911 0.158625
C33   C     C_R   0.715896 0.279537 0.350470 -0.201147
C34   C     C_R   0.379713 0.480975 0.312292 0.824842
C35   C     C_R   0.850787 0.334775 0.409629 -0.032275
C36   C     C_R   0.923158 0.448898 0.480133 -0.010307
C37   C     C_R   0.846832 0.493926 0.504580 0.212993
C38   C     C_R   0.066862 0.515050 0.532900 -0.067826
C39   C     C_R   0.128037 0.608873 0.623323 0.036180
C40   C     C_R   0.054297 0.642249 0.655657 -0.222227
C41   C     C_R   0.920903 0.595457 0.596731 0.361146
C42   C     C_R   0.155564 0.497830 0.499864 0.547301
C43   C     C_R   0.344886 0.651097 0.647076 0.078278
C44   C     C_R   0.674584 0.511807 0.793440 -0.071741
C45   C     C_R   0.302110 0.458165 0.201752 -0.123254
C46   C     C_R   0.683082 0.526726 0.966828 0.047163
C47   C     C_R   0.626387 0.528438 0.865453 -0.271658
C48   C     C_R   0.776801 0.488726 0.822022 -0.108579
Cu1   Cu    Cu3+1 0.416420 0.526630 0.522910 1.022753
Cu2   Cu    Cu3+1 0.583580 0.473370 0.477090 1.009490
H1    H     H_    0.313918 0.092500 0.374518 0.157815
H2    H     H_    0.903909 0.765063 0.304583 0.222674
H3    H     H_    0.124337 0.893260 0.318230 0.154434
H4    H     H_    0.107830 0.099638 0.709499 0.167988
H5    H     H_    0.934591 0.068280 0.764061 0.160721
H6    H     H_    0.727337 0.727353 0.357041 0.172800
H7    H     H_    0.450584 0.699759 0.692003 0.142303
H8    H     H_    0.187097 0.523871 0.234233 0.187971
H9    H     H_    0.106452 0.714262 0.726777 0.197299
H10   H     H_    0.310789 0.744211 0.752057 0.155025
H11   H     H_    0.541571 0.287155 0.321927 0.117624
H12   H     H_    0.893966 0.281701 0.404243 0.212835
H13   H     H_    0.663454 0.193110 0.295224 0.153479
H14   H     H_    0.406467 0.393837 0.144467 0.200665
H15   H     H_    0.053971 0.312466 0.828489 0.231740
H16   H     H_    0.549614 0.550192 0.844517 0.159649
H17   H     H_    0.823967 0.490886 0.770258 0.214010
H18   H     H_    0.985915 0.461951 0.195236 0.216147
N1    N     N_R   0.290690 0.566960 0.557640 -0.207633
N2    N     N_R   0.709100 0.433710 0.442970 -0.193416
O1    O     O_R   0.545970 0.684450 0.528810 -0.546892
O2    O     O_R   0.687130 0.639470 0.490120 -0.532474
O3    O     O_R   0.519670 0.535100 0.660030 -0.613634
O4    O     O_R   0.660830 0.490120 0.621340 -0.526250
O5    O     O_R   0.312870 0.360530 0.509880 -0.534278
O6    O     O_R   0.454030 0.315550 0.471190 -0.589521
O7    O     O_R   0.339170 0.509880 0.378660 -0.523792
O8    O     O_R   0.480330 0.464900 0.339970 -0.595982
Cl1   Cl    Cl    0.773106 0.475025 0.187653 -0.628280
Cl2   Cl    Cl    0.276682 0.316091 0.927137 -0.705112
C49   C     C_2   0.192449 0.232052 0.610697 0.403764
H19   H     H_    0.287799 0.292856 0.674220 0.089151
O9    O     O_2   0.101565 0.249778 0.597043 -0.511610
C50   C     C_2   0.677848 0.912404 0.666046 0.416953
H20   H     H_    0.703693 0.938089 0.748371 0.058128
O10   O     O_2   0.567322 0.883474 0.605101 -0.512678
Cl3   Cl    Cl    0.097778 0.396882 0.380615 -0.643064
Cl4   Cl    Cl    0.882081 0.686666 0.659255 -0.664473
C51   C     C_2   0.645570 0.573042 0.041096 0.454477
H21   H     H_    0.542162 0.538486 0.024267 0.106281
O11   O     O_2   0.729633 0.657160 0.117052 -0.544799
Cl5   Cl    Cl    0.815675 0.295917 0.733281 -0.625691

loop_
_geom_bond_atom_site_label_1
_geom_bond_atom_site_label_2
_ccdc_geom_bond_type
C12   O4    A    
C17   C29   A    
C35   C36   A    
C23   O6    A    
C4    C8    A    
C49   H19   S    
C46   C51   S    
C26   C27   A    
C17   C23   S    
C31   C43   A    
C21   C22   A    
C36   C37   A    
C50   O10   D    
C32   H11   S    
C5    C11   A    
Cu2   O6    S    
Cu2   O4    S    
C34   O7    A    
C5    C6    A    
C18   C19   A    
Cu2   O2    S    
C16   H3    S    
C11   C15   A    
C19   C20   A    
Cu1   O7    S    
C8    C9    A    
C18   C50   S    
Cu1   O5    S    
C8    Cl5   S    
C51   O11   D    
C9    C10   A    
C47   H16   S    
C44   C47   A    
C6    H18   S    
C13   Cl2   S    
C43   N1    A    
C40   H9    S    
Cu1   N1    S    
C13   C14   A    
C37   C41   A    
Cu2   O8    S    
C49   O9    D    
C14   C45   A    
C1    O2    A    
C50   H20   S    
C20   H4    S    
C39   C40   A    
C27   H6    S    
C32   N2    A    
C2    C48   A    
C16   C29   A    
C42   N1    A    
C31   H10   S    
C2    C4    A    
C26   H2    S    
C33   H13   S    
C14   H14   S    
C34   C45   S    
C1    O1    A    
C24   C25   A    
C18   C30   A    
C40   C41   A    
C22   C27   A    
C15   H8    S    
Cu1   O3    S    
C15   C45   A    
C7    Cl1   S    
C29   H1    S    
C19   H5    S    
C16   C25   A    
C41   Cl4   S    
C46   C47   A    
C22   C30   A    
C28   C49   S    
C17   C28   A    
C24   C28   A    
C23   O5    A    
C4    C5    A    
C10   C13   A    
C38   C42   A    
C6    C7    A    
C3    C46   A    
C3    C7    A    
C37   N2    A    
C32   C33   A    
C36   C38   A    
C2    C3    A    
C25   C26   A    
C12   C44   S    
C34   O8    A    
C38   C39   A    
C1    C30   S    
C33   C35   A    
C31   C39   A    
C35   H12   S    
C48   H17   S    
Cu2   N2    S    
C9    H15   S    
C10   C11   A    
C43   H7    S    
C20   C21   A    
Cu1   Cu2   S    
Cu1   O1    S    
C21   C24   A    
C42   Cl3   S    
C51   H21   S    
C12   O3    A    
C44   C48   A    
