data_mof_unit_56827.cif
_audit_creation_date              2012-12-10T17:48:44-0500
_audit_creation_method            fapswitch 2.2
_symmetry_space_group_name_H-M    P1
_symmetry_Int_Tables_number       1
_space_group_crystal_system       triclinic
_cell_length_a                    15.728021
_cell_length_b                    10.724935
_cell_length_c                    9.893372
_cell_angle_alpha                 88.061097
_cell_angle_beta                  90.218497
_cell_angle_gamma                 92.946418
_cell_volume                      1665.66989028

loop_
_atom_site_label
_atom_site_type_symbol
_atom_type_description
_atom_site_fract_x
_atom_site_fract_y
_atom_site_fract_z
_atom_type_partial_charge
C1    C     C_R   0.496847 0.259003 0.503453 0.847518
C2    C     C_3   0.950298 0.409428 0.629019 -0.033857
C3    C     C_3   0.916763 0.489200 0.505786 0.278116
C4    C     C_3   0.953068 0.625994 0.507730 -0.388508
C5    C     C_3   0.051418 0.629173 0.512656 0.013852
C6    C     C_1   0.825206 0.487660 0.502410 -0.094008
C7    C     C_1   0.173989 0.496044 0.500340 -0.061077
C8    C     C_1   0.249382 0.497706 0.499677 -0.149961
C9    C     C_R   0.535305 0.103577 0.758950 -0.163551
C10   C     C_R   0.580477 0.040650 0.859067 -0.182517
C11   C     C_R   0.623047 0.935617 0.827082 -0.158815
C12   C     C_R   0.338337 0.499518 0.499864 0.899057
C13   C     C_R   0.612689 0.885777 0.699420 0.142071
C14   C     C_R   0.554512 0.937081 0.605773 0.071320
C15   C     C_R   0.527353 0.057230 0.626342 0.079477
C16   C     C_R   0.495630 0.124415 0.511606 -0.107992
C17   C     C_R   0.474150 0.063233 0.392739 -0.209375
C18   C     C_R   0.483825 0.937551 0.385503 -0.197675
C19   C     C_R   0.521657 0.873475 0.492836 -0.109129
C20   C     C_R   0.384937 0.337524 0.145043 -0.160202
C21   C     C_R   0.328529 0.257427 0.076921 -0.198600
C22   C     C_R   0.328960 0.257201 0.936987 -0.186431
C23   C     C_R   0.509219 0.739778 0.497842 0.917994
C24   C     C_R   0.385664 0.337300 0.864381 -0.187600
C25   C     C_R   0.443435 0.419964 0.930032 0.159192
C26   C     C_R   0.443307 0.420031 0.074748 0.179657
C27   C     C_R   0.554192 0.576633 0.069099 -0.119589
C28   C     C_R   0.554192 0.576516 0.925906 -0.099450
C29   C     C_R   0.661326 0.494974 0.500151 0.948472
C30   C     C_3   0.049310 0.414678 0.626505 -0.458216
C31   C     C_3   0.046174 0.434407 0.372096 -0.384943
C32   C     C_3   0.948060 0.432450 0.373651 -0.449366
C33   C     C_1   0.749976 0.489582 0.500565 -0.148032
C34   C     C_3   0.082416 0.494247 0.501948 0.264748
H1    H     H_    0.929461 0.310899 0.608275 0.140345
H2    H     H_    0.077993 0.453600 0.719433 0.175260
H3    H     H_    0.931512 0.677272 0.415214 0.207137
H4    H     H_    0.447774 0.112078 0.305871 0.165776
H5    H     H_    0.504876 0.184424 0.791228 0.180365
H6    H     H_    0.586632 0.077889 0.959217 0.154670
H7    H     H_    0.666595 0.895885 0.899687 0.153903
H8    H     H_    0.459572 0.890104 0.297219 0.176504
H9    H     H_    0.598389 0.639266 0.120968 0.149930
H10   H     H_    0.071543 0.317979 0.621504 0.167913
H11   H     H_    0.381046 0.331464 0.252443 0.194589
H12   H     H_    0.284510 0.194695 0.133274 0.156977
H13   H     H_    0.285506 0.194011 0.884237 0.155004
H14   H     H_    0.383933 0.329751 0.757287 0.197714
H15   H     H_    0.598459 0.638900 0.870157 0.167378
H16   H     H_    0.070536 0.487246 0.280357 0.209593
H17   H     H_    0.067141 0.337193 0.365691 0.174218
H18   H     H_    0.921782 0.334610 0.365261 0.177693
H19   H     H_    0.925263 0.486404 0.283650 0.194130
H20   H     H_    0.073237 0.667426 0.610753 0.132445
H21   H     H_    0.927271 0.675793 0.593719 0.182442
N1    N     N_R   0.499210 0.498800 0.142780 -0.121422
N2    N     N_R   0.499180 0.498720 0.857170 -0.121409
O1    O     O_R   0.500000 0.316780 0.614690 -0.659184
O2    O     O_R   0.499990 0.316750 0.385360 -0.635497
O3    O     O_R   0.377150 0.500020 0.614720 -0.628524
O4    O     O_R   0.377140 0.499990 0.385380 -0.625481
O5    O     O_R   0.500010 0.683250 0.614640 -0.598562
O6    O     O_R   0.500000 0.683220 0.385310 -0.617551
O7    O     O_R   0.622860 0.500010 0.614620 -0.599263
O8    O     O_R   0.622850 0.499980 0.385280 -0.613696
Zn1   Zn    Zn3+2 0.500010 0.500020 0.653130 0.949192
Zn2   Zn    Zn3+2 0.499990 0.499980 0.346870 0.949366
C35   C     C_3   0.910358 0.431821 0.770334 -0.398919
C36   C     C_3   0.952755 0.535663 0.855680 -0.322941
C37   C     C_3   0.892820 0.574786 0.965894 -0.861321
H22   H     H_    0.836045 0.617007 0.919821 0.275156
H23   H     H_    0.871936 0.492682 0.031209 0.254249
H24   H     H_    0.926302 0.645047 0.029782 0.259802
H25   H     H_    0.010408 0.500671 0.906472 0.214448
H26   H     H_    0.972491 0.619244 0.793196 0.226113
H27   H     H_    0.841620 0.448155 0.757894 0.226632
H28   H     H_    0.912618 0.343263 0.831879 0.190615
I1    I     I_    0.712035 0.776392 0.637592 -0.465700
I2    I     I_    0.104565 0.759134 0.359587 -0.442668

loop_
_geom_bond_atom_site_label_1
_geom_bond_atom_site_label_2
_ccdc_geom_bond_type
C2    H1    S    
N2    Zn1   S    
C3    C6    S    
C7    C8    T    
C28   N2    A    
C2    C35   S    
C1    O2    A    
C15   C16   A    
C29   C33   S    
C9    H5    S    
C10   H6    S    
C18   C19   A    
C32   H18   S    
O2    Zn2   S    
O1    Zn1   S    
C23   O5    A    
C16   C17   A    
O8    Zn2   S    
C11   H7    S    
C37   H22   S    
C5    I2    S    
C9    C10   A    
C20   H11   S    
C23   O6    A    
C22   H13   S    
C29   O7    A    
O3    Zn1   S    
C21   C22   A    
C30   H10   S    
C3    C32   S    
C25   N2    A    
O6    Zn2   S    
C30   C34   S    
C24   H14   S    
C5    H20   S    
C24   C25   A    
O5    Zn1   S    
C27   N1    A    
C35   C36   S    
C25   C26   A    
O7    Zn1   S    
C19   C23   S    
C28   H15   S    
O4    Zn2   S    
C31   C32   S    
C8    C12   S    
C5    C34   S    
C37   H24   S    
C17   C18   A    
C31   C34   S    
C36   H25   S    
C1    C16   S    
C4    H3    S    
C29   O8    A    
C4    H21   S    
C7    C34   S    
C22   C24   A    
C31   H16   S    
C3    C4    S    
C32   H19   S    
C21   H12   S    
C35   H28   S    
C13   I1    S    
C14   C19   A    
C31   H17   S    
C4    C5    S    
C26   N1    A    
C35   H27   S    
N1    Zn2   S    
C6    C33   T    
C30   H2    S    
C2    C30   S    
C18   H8    S    
C2    C3    S    
C9    C15   A    
C1    O1    A    
C12   O4    A    
C11   C13   A    
C20   C26   A    
C36   H26   S    
C17   H4    S    
C36   C37   S    
C10   C11   A    
C12   O3    A    
C27   H9    S    
C20   C21   A    
C27   C28   A    
C14   C15   A    
C37   H23   S    
C13   C14   A    
