data_mof_unit_30702.cif
_audit_creation_date              2012-12-11T15:13:38-0500
_audit_creation_method            fapswitch 2.2
_symmetry_space_group_name_H-M    P1
_symmetry_Int_Tables_number       1
_space_group_crystal_system       triclinic
_cell_length_a                    6.971264
_cell_length_b                    13.832946
_cell_length_c                    19.948306
_cell_angle_alpha                 103.728165
_cell_angle_beta                  89.369123
_cell_angle_gamma                 89.779623
_cell_volume                      1868.56826217

loop_
_atom_site_label
_atom_site_type_symbol
_atom_type_description
_atom_site_fract_x
_atom_site_fract_y
_atom_site_fract_z
_atom_type_partial_charge
O1    O     O_R   0.506780 0.600060 0.449950 -0.548449
O2    O     O_R   0.179840 0.597110 0.589410 -0.507674
O3    O     O_R   0.004570 0.399940 0.550050 -0.539137
C1    C     C_R   0.347731 0.618520 0.617056 0.790233
O4    O     O_R   0.177380 0.612160 0.452890 -0.526367
O5    O     O_R   0.002100 0.415100 0.412560 -0.530656
C2    C     C_R   0.347364 0.636800 0.434973 0.728177
O6    O     O_R   0.509250 0.584900 0.587440 -0.530270
O7    O     O_3   0.337570 0.435330 0.486930 -0.383885
V1    V     V_3+5 0.064650 0.512000 0.502430 1.647733
O8    O     O_R   0.672090 0.402890 0.410590 -0.540401
C3    C     C_R   0.841997 0.384911 0.382493 0.760478
O9    O     O_R   0.674540 0.387840 0.547110 -0.553113
C4    C     C_R   0.842766 0.362616 0.564338 0.714487
V2    V     V_3+5 0.564040 0.488000 0.497570 1.560153
O10   O     O_3   0.840990 0.564670 0.513070 -0.351510
C5    C     C_R   0.894130 0.109418 0.602733 0.484366
C6    C     C_R   0.849647 0.283391 0.601756 -0.314474
C7    C     C_R   0.847985 0.313563 0.932192 0.212700
C8    C     C_R   0.867945 0.388094 0.895308 0.325127
C9    C     C_R   0.905522 0.361537 0.824253 0.394122
C10   C     C_R   0.873582 0.262202 0.785774 -0.045612
C11   C     C_R   0.863414 0.187077 0.822859 -0.098638
C12   C     C_R   0.858569 0.235360 0.712059 -0.060155
C13   C     C_R   0.873544 0.133464 0.675995 -0.148193
C14   C     C_R   0.863503 0.059398 0.714202 0.493373
C15   C     C_R   0.857011 0.087032 0.786498 -0.240015
C16   C     C_R   0.814564 0.306585 0.673772 0.308925
C17   C     C_R   0.892501 0.184454 0.566331 0.265059
C18   C     C_R   0.859516 0.213528 0.895994 -0.140217
H1    H     H_    0.845213 0.028766 0.814189 0.080540
C19   C     C_3   0.740398 0.178955 0.253317 0.464625
C20   C     C_3   0.917497 0.206982 0.298981 -0.329533
H2    H     H_    0.969054 0.168551 0.338362 0.217876
C21   C     C_3   0.854705 0.317128 0.312132 -0.298371
C22   C     C_3   0.680741 0.288088 0.266269 0.360666
C23   C     C_3   0.793161 0.299667 0.201546 -0.325123
C24   C     C_3   0.970104 0.329102 0.248256 0.400510
C25   C     C_3   0.031953 0.218870 0.234268 0.415756
C26   C     C_3   0.855017 0.188279 0.188283 -0.235212
H3    H     H_    0.740201 0.338606 0.162621 0.205268
C27   C     C_3   0.535886 0.718141 0.731856 0.350312
C28   C     C_3   0.473373 0.828783 0.749211 -0.211584
H4    H     H_    0.561440 0.895195 0.749668 0.160515
C29   C     C_3   0.361155 0.812002 0.812769 -0.213203
C30   C     C_3   0.428118 0.701967 0.796579 -0.172577
C31   C     C_3   0.248435 0.675317 0.751981 0.358078
C32   C     C_3   0.178679 0.784571 0.769174 -0.173297
C33   C     C_3   0.292671 0.798803 0.705138 0.363831
C34   C     C_3   0.356201 0.688939 0.687562 -0.167618
H5    H     H_    0.482534 0.661096 0.834196 0.211079
H6    H     H_    0.031954 0.812479 0.785424 0.167964
C35   C     C_R   0.540771 0.865010 0.388501 0.477383
C36   C     C_R   0.370277 0.716088 0.398194 -0.252692
C37   C     C_R   0.289050 0.692169 0.071348 0.269160
C38   C     C_R   0.292736 0.611959 0.104096 0.300233
C39   C     C_R   0.354288 0.628628 0.173103 0.358086
C40   C     C_R   0.395473 0.725963 0.211053 -0.024867
C41   C     C_R   0.436226 0.798943 0.173689 -0.179911
C42   C     C_R   0.418014 0.750651 0.284325 0.060067
C43   C     C_R   0.526430 0.835514 0.315547 -0.241496
C44   C     C_R   0.625146 0.885410 0.272406 0.397745
C45   C     C_R   0.564202 0.876123 0.204701 0.368197
C46   C     C_R   0.335265 0.693778 0.327198 -0.138627
C47   C     C_R   0.471865 0.803192 0.429183 0.417064
C48   C     C_R   0.364022 0.785252 0.105202 -0.164387
H7    H     H_    0.248380 0.629701 0.305884 0.223286
O11   O     O_R   0.203580 0.914920 0.912610 -0.546059
O12   O     O_R   0.535710 0.887810 0.047120 -0.524289
O13   O     O_R   0.710730 0.084950 0.087430 -0.533462
C49   C     C_R   0.368364 0.865014 0.067138 0.824690
O14   O     O_R   0.533010 0.902850 0.910600 -0.550909
O15   O     O_R   0.708010 0.100090 0.949930 -0.552456
C50   C     C_R   0.365774 0.881554 0.883120 0.769055
O16   O     O_R   0.206300 0.899780 0.050100 -0.519483
O17   O     O_3   0.375170 0.064580 0.013100 -0.374754
V3    V     V_3+5 0.648200 0.988020 0.997570 1.581835
O18   O     O_R   0.038030 0.112330 0.952840 -0.552999
C51   C     C_R   0.868966 0.137291 0.935665 0.781786
O19   O     O_R   0.040730 0.097300 0.089360 -0.518933
C52   C     C_R   0.870032 0.117537 0.117498 0.851060
V4    V     V_3+5 0.148780 0.012220 0.002360 1.597261
O20   O     O_3   0.871930 0.935430 0.986900 -0.369156
O21   O     O_3   0.925377 0.156491 0.495658 -0.580085
H8    H     H_    0.914092 0.214138 0.474681 0.280669
O22   O     O_3   0.613331 0.105887 0.262341 -0.589951
H9    H     H_    0.569018 0.126217 0.311107 0.325985
O23   O     O_3   0.496973 0.326361 0.284692 -0.566860
H10   H     H_    0.505347 0.398217 0.285718 0.338463
Cl1   Cl    Cl    0.113504 0.433403 0.247801 -0.609862
Cl2   Cl    Cl    0.262282 0.167255 0.210854 -0.553843
Cl3   Cl    Cl    0.770497 0.674912 0.705133 -0.598405
O24   O     O_3   0.132864 0.594067 0.753742 -0.577423
H11   H     H_    0.068353 0.611937 0.799600 0.385986
O25   O     O_3   0.845263 0.960547 0.680739 -0.559872
H12   H     H_    0.861961 0.918442 0.714135 0.314301
Cl4   Cl    Cl    0.220900 0.863027 0.642558 -0.533413
O26   O     O_3   0.507718 0.831027 0.499180 -0.547526
H13   H     H_    0.441282 0.785699 0.523151 0.321660
Cl5   Cl    Cl    0.846003 0.945568 0.297604 -0.559519
O27   O     O_3   0.615519 0.955413 0.422362 -0.540924
H14   H     H_    0.581542 0.005121 0.395874 0.325071
Cl6   Cl    Cl    0.214781 0.674266 0.984512 -0.580572
O28   O     O_3   0.405157 0.550096 0.201094 -0.616372
H15   H     H_    0.411980 0.487676 0.164472 0.369368
O29   O     O_3   0.238833 0.516445 0.071101 -0.612277
H16   H     H_    0.209952 0.512419 0.022214 0.374308
O30   O     O_3   0.652585 0.934678 0.167688 -0.594373
H17   H     H_    0.552279 0.983007 0.162283 0.331213
Cl7   Cl    Cl    0.933586 0.986813 0.552525 -0.331579
O31   O     O_3   0.726265 0.394935 0.707816 -0.591340
H18   H     H_    0.685886 0.434592 0.675256 0.325957
O32   O     O_3   0.825441 0.334511 0.003254 -0.629269
H19   H     H_    0.822988 0.407167 0.022679 0.357995
O33   O     O_3   0.992321 0.431916 0.795848 -0.563141
H20   H     H_    0.076073 0.396945 0.757081 0.322502
Cl8   Cl    Cl    0.854663 0.515775 0.936403 -0.525969

loop_
_geom_bond_atom_site_label_1
_geom_bond_atom_site_label_2
_ccdc_geom_bond_type
C37   C38   A    
O27   H14   S    
C5    C17   A    
C4    C6    S    
O12   V3    S    
O25   H12   S    
C1    O6    A    
C5    Cl7   S    
C36   C47   A    
C29   C30   S    
O30   H17   S    
C14   C15   A    
C20   C25   S    
C19   C22   S    
C22   C23   S    
C23   C24   S    
C47   O26   S    
C23   C26   S    
C41   C48   A    
O5    C3    A    
C24   C25   S    
O29   H16   S    
V3    O20   S    
C40   C42   A    
V2    O10   S    
O26   H13   S    
C37   Cl6   S    
C38   C39   A    
C27   C30   S    
O12   C49   A    
O13   C52   A    
C8    Cl8   S    
O14   V3    S    
C35   C43   A    
O21   H8    S    
C31   C32   S    
C35   O27   S    
O1    V2    S    
C11   C15   A    
C35   C47   A    
O7    V1    S    
C9    O33   S    
O23   H10   S    
O9    C4    A    
O13   V3    S    
C23   H3    S    
O8    V2    S    
C25   Cl2   S    
O28   H15   S    
C31   C34   S    
C16   O31   S    
C31   O24   S    
C15   H1    S    
C11   C18   A    
C21   C24   S    
C6    C16   A    
C12   C13   A    
C17   O21   S    
O14   C50   A    
O17   V4    S    
C25   C26   S    
O4    C2    A    
O22   H9    S    
C28   C33   S    
C13   C14   A    
C30   H5    S    
C22   O23   S    
C1    C34   S    
C42   C43   A    
C21   C22   S    
O2    C1    A    
C28   H4    S    
C46   H7    S    
C44   C45   A    
O18   V4    S    
C48   C49   S    
C19   O22   S    
C20   H2    S    
O15   C51   A    
C6    C17   A    
O17   V3    S    
C3    C21   S    
C28   C29   S    
C38   O29   S    
O3    C4    A    
C27   C34   S    
C44   Cl5   S    
C18   C51   S    
O19   V4    S    
C32   C33   S    
C33   C34   S    
O6    V2    S    
O9    V2    S    
C10   C12   A    
C27   C28   S    
O2    V1    S    
C37   C48   A    
O32   H19   S    
C29   C32   S    
C14   O25   S    
C39   O28   S    
C30   C31   S    
O15   V3    S    
O31   H18   S    
O1    C2    A    
C26   C52   S    
C12   C16   A    
O19   C52   A    
O5    V1    S    
O8    C3    A    
O16   V4    S    
O24   H11   S    
C24   Cl1   S    
C41   C45   A    
C42   C46   A    
O11   V4    S    
C19   C20   S    
C7    C8    A    
C40   C41   A    
C5    C13   A    
O4    V1    S    
O3    V1    S    
V1    O10   S    
C49   O16   A    
O18   C51   A    
C39   C40   A    
C36   C46   A    
C20   C21   S    
C27   Cl3   S    
C19   C26   S    
O7    V2    S    
C43   C44   A    
C33   Cl4   S    
C32   H6    S    
C8    C9    A    
V4    O20   S    
C7    O32   S    
C10   C11   A    
C29   C50   S    
C2    C36   S    
C45   O30   S    
C9    C10   A    
C7    C18   A    
O11   C50   A    
O33   H20   S    
