data_mof_unit_33080.cif
_audit_creation_date              2012-12-11T17:00:20-0500
_audit_creation_method            fapswitch 2.2
_symmetry_space_group_name_H-M    P1
_symmetry_Int_Tables_number       1
_space_group_crystal_system       triclinic
_cell_length_a                    6.975108
_cell_length_b                    13.546511
_cell_length_c                    20.256874
_cell_angle_alpha                 102.995935
_cell_angle_beta                  89.775403
_cell_angle_gamma                 90.836566
_cell_volume                      1864.81380553

loop_
_atom_site_label
_atom_site_type_symbol
_atom_type_description
_atom_site_fract_x
_atom_site_fract_y
_atom_site_fract_z
_atom_type_partial_charge
O1    O     O_R   0.506770 0.599700 0.449550 -0.539531
O2    O     O_R   0.179980 0.595740 0.587960 -0.545697
O3    O     O_R   0.004580 0.400300 0.550450 -0.537535
C1    C     C_R   0.348307 0.617780 0.614995 0.693027
O4    O     O_R   0.177380 0.611700 0.452380 -0.540452
O5    O     O_R   0.001970 0.416370 0.413900 -0.542464
C2    C     C_R   0.347337 0.638366 0.435782 0.689274
O6    O     O_R   0.509390 0.583630 0.586100 -0.537068
O7    O     O_3   0.337530 0.435890 0.487530 -0.370332
V1    V     V_3+5 0.064660 0.511890 0.502310 1.406133
O8    O     O_R   0.671950 0.404260 0.412040 -0.541718
C3    C     C_R   0.840040 0.383951 0.384413 0.695841
O9    O     O_R   0.674540 0.388300 0.547620 -0.539522
C4    C     C_R   0.841930 0.362132 0.564816 0.698085
V2    V     V_3+5 0.564030 0.488110 0.497690 1.409777
O10   O     O_3   0.841030 0.564110 0.512470 -0.371475
C5    C     C_R   0.782529 0.111815 0.612836 -0.162045
H1    H     H_    0.776288 0.161571 0.519562 0.101604
H2    H     H_    0.775379 0.986866 0.696364 0.116888
H3    H     H_    0.755205 0.033423 0.587684 0.110472
C6    C     C_R   0.843277 0.284481 0.604673 -0.039778
C7    C     C_R   0.877670 0.320486 0.932431 0.119179
C8    C     C_R   0.848920 0.396887 0.897576 -0.120436
C9    C     C_R   0.812090 0.374618 0.827794 0.135725
C10   C     C_R   0.827945 0.272536 0.789324 0.057355
C11   C     C_R   0.837852 0.193997 0.825918 -0.004233
C12   C     C_R   0.828809 0.244023 0.716589 0.090370
C13   C     C_R   0.800321 0.140521 0.683611 0.143004
C14   C     C_R   0.793768 0.066133 0.721200 -0.205357
C15   C     C_R   0.819697 0.091908 0.790771 -0.174185
C16   C     C_R   0.866850 0.313168 0.675041 -0.230905
C17   C     C_R   0.797555 0.184098 0.573864 -0.167130
C18   C     C_R   0.863317 0.218541 0.897225 -0.093433
H4    H     H_    0.915798 0.389543 0.695993 0.125335
H5    H     H_    0.844729 0.475011 0.925815 0.128271
H6    H     H_    0.822392 0.030548 0.816916 0.107451
C19   C     C_R   0.702948 0.186831 0.225023 0.059120
C20   C     C_R   0.866216 0.183565 0.184232 -0.090753
C21   C     C_R   0.022413 0.246796 0.210836 -0.184906
H7    H     H_    0.146679 0.250826 0.179654 0.140493
C22   C     C_R   0.013761 0.310862 0.276015 -0.196149
H8    H     H_    0.130542 0.362271 0.294116 0.144399
C23   C     C_R   0.848958 0.315064 0.316225 -0.097014
C24   C     C_R   0.692575 0.254190 0.288501 0.081590
C25   C     C_3   0.497600 0.287742 0.273269 -0.020967
C26   C     C_3   0.505097 0.209787 0.206612 -0.402537
H9    H     H_    0.388874 0.269894 0.309179 0.141490
H10   H     H_    0.500719 0.241652 0.160548 0.179546
H11   H     H_    0.405842 0.144474 0.205136 0.145583
C27   C     C_R   0.501416 0.680837 0.729278 0.111090
C28   C     C_R   0.351697 0.683859 0.684151 -0.114485
C29   C     C_R   0.195621 0.746905 0.708624 -0.178537
H12   H     H_    0.076226 0.751529 0.675686 0.133596
C30   C     C_R   0.197377 0.809661 0.774324 -0.174106
H13   H     H_    0.080390 0.861206 0.789825 0.129717
C31   C     C_R   0.355277 0.811286 0.817574 -0.112280
C32   C     C_R   0.503376 0.743044 0.794327 0.104448
C33   C     C_3   0.713306 0.763367 0.790743 -0.403263
C34   C     C_3   0.710492 0.696344 0.719792 -0.408971
H14   H     H_    0.795868 0.730839 0.827422 0.175124
H15   H     H_    0.745479 0.844205 0.791626 0.163571
H16   H     H_    0.792230 0.625345 0.715051 0.171577
H17   H     H_    0.739610 0.738510 0.679567 0.165666
C35   C     C_R   0.448146 0.885421 0.387518 -0.159617
H18   H     H_    0.445440 0.835412 0.480739 0.101965
H19   H     H_    0.497556 0.007661 0.303285 0.121885
H20   H     H_    0.492812 0.961682 0.412323 0.110421
C36   C     C_R   0.361898 0.715529 0.395939 -0.030611
C37   C     C_R   0.298260 0.685330 0.070240 -0.167880
C38   C     C_R   0.270681 0.610392 0.106316 -0.119870
C39   C     C_R   0.292280 0.632736 0.176480 -0.157203
C40   C     C_R   0.344267 0.731664 0.212621 0.078204
C41   C     C_R   0.376727 0.807583 0.175013 0.068257
C42   C     C_R   0.365110 0.757830 0.284660 0.073945
C43   C     C_R   0.422014 0.858331 0.317034 0.142824
C44   C     C_R   0.454177 0.930956 0.278942 -0.207492
C45   C     C_R   0.431519 0.906189 0.209150 -0.199447
C46   C     C_R   0.332824 0.687711 0.325917 -0.218783
C47   C     C_R   0.420338 0.814050 0.426608 -0.172512
C48   C     C_R   0.351431 0.783578 0.103808 -0.076750
H21   H     H_    0.288696 0.610410 0.305366 0.095329
H22   H     H_    0.277092 0.666816 0.015846 0.102523
H23   H     H_    0.267133 0.570710 0.200687 0.106478
H24   H     H_    0.230377 0.534376 0.079759 0.121254
H25   H     H_    0.458753 0.965156 0.182002 0.121918
O11   O     O_R   0.203450 0.916320 0.913910 -0.541584
O12   O     O_R   0.535520 0.888300 0.047620 -0.540108
O13   O     O_R   0.710860 0.083650 0.086100 -0.540160
C49   C     C_R   0.365593 0.861441 0.064089 0.689233
O14   O     O_R   0.532860 0.904250 0.912040 -0.542740
O15   O     O_R   0.708190 0.099710 0.949550 -0.539098
C50   C     C_R   0.364338 0.882581 0.884855 0.696672
O16   O     O_R   0.206120 0.900260 0.050460 -0.535746
O17   O     O_3   0.375280 0.064080 0.012470 -0.372403
V3    V     V_3+5 0.648180 0.988110 0.997690 1.409531
O18   O     O_R   0.038220 0.111740 0.952370 -0.540916
C51   C     C_R   0.870471 0.138244 0.935536 0.717960
O19   O     O_R   0.040880 0.095790 0.087940 -0.544918
C52   C     C_R   0.872654 0.117590 0.115049 0.695988
V4    V     V_3+5 0.148800 0.011950 0.002300 1.408037
O20   O     O_3   0.871820 0.935920 0.987530 -0.370900
C53   C     C_3   0.494834 0.397247 0.263253 -0.761377
H26   H     H_    0.371283 0.407541 0.231302 0.189770
H27   H     H_    0.482227 0.451443 0.312957 0.211200
H28   H     H_    0.626894 0.415808 0.237344 0.223981
C54   C     C_3   0.911014 0.348706 0.007993 -0.797167
H29   H     H_    0.915013 0.432124 0.027792 0.203934
H30   H     H_    0.793992 0.316721 0.034521 0.199053
H31   H     H_    0.050207 0.318220 0.020131 0.207173
C55   C     C_3   0.727161 0.459803 0.800903 -0.820152
H32   H     H_    0.843209 0.510635 0.789866 0.202630
H33   H     H_    0.635250 0.431348 0.755904 0.218441
H34   H     H_    0.630977 0.505930 0.839333 0.211298

loop_
_geom_bond_atom_site_label_1
_geom_bond_atom_site_label_2
_ccdc_geom_bond_type
H18   C47   S    
C22   H8    S    
C1    O6    A    
O14   V3    S    
C21   C22   A    
C25   C26   S    
C29   H12   S    
C6    C16   A    
C26   H11   S    
C14   C15   A    
C27   C34   S    
C4    C6    S    
C13   C14   A    
C3    C23   S    
O5    C3    A    
C20   C21   A    
C54   H29   S    
C33   H14   S    
V2    O10   S    
C5    H3    S    
C31   C32   A    
C53   H28   S    
C48   C49   S    
C55   H32   S    
C37   H22   S    
C2    C36   S    
O8    V2    S    
C35   C43   A    
O12   V3    S    
C8    C9    A    
C38   C39   A    
O1    V2    S    
C38   H24   S    
O7    V1    S    
C33   H15   S    
O13   V3    S    
C45   H25   S    
O9    C4    A    
C49   O16   A    
C22   C23   A    
C53   H26   S    
C29   C30   A    
C39   H23   S    
C25   H9    S    
C36   C46   A    
C6    C17   A    
C26   H10   S    
C42   C43   A    
C1    C28   S    
C12   C16   A    
C28   C29   A    
C35   H20   S    
C9    C55   S    
C9    C10   A    
C40   C42   A    
C21   H7    S    
O4    C2    A    
C20   C52   S    
C10   C11   A    
C7    C54   S    
O15   C51   A    
O2    C1    A    
C43   C44   A    
C19   C20   A    
C11   C18   A    
O14   C50   A    
C55   H34   S    
O17   V4    S    
H19   C44   S    
O18   C51   A    
C27   C28   A    
C16   H4    S    
O17   V3    S    
C44   C45   A    
C53   H27   S    
O16   V4    S    
O3    C4    A    
C11   C15   A    
O6    V2    S    
O19   V4    S    
O12   C49   A    
C23   C24   A    
C35   C47   A    
H1    C17   S    
O2    V1    S    
O11   V4    S    
C24   C25   S    
C7    C18   A    
C30   H13   S    
C34   H16   S    
O1    C2    A    
C5    C13   A    
C40   C41   A    
O5    V1    S    
O8    C3    A    
C30   C31   A    
C10   C12   A    
C34   H17   S    
C15   H6    S    
C19   C24   A    
O9    V2    S    
C33   C34   S    
O4    V1    S    
O3    V1    S    
O11   C50   A    
C27   C32   A    
C46   H21   S    
C32   C33   S    
C54   H30   S    
C36   C47   A    
O18   V4    S    
V4    O20   S    
C41   C48   A    
C18   C51   S    
O7    V2    S    
C37   C38   A    
C8    H5    S    
C55   H33   S    
O13   C52   A    
C25   C53   S    
O15   V3    S    
C31   C50   S    
C39   C40   A    
O19   C52   A    
C42   C46   A    
C12   C13   A    
C5    C17   A    
C41   C45   A    
C7    C8    A    
C37   C48   A    
V1    O10   S    
C19   C26   S    
V3    O20   S    
C54   H31   S    
H2    C14   S    
