data_mof_unit_21014.cif
_audit_creation_date              2012-10-26T21:21:03-0400
_audit_creation_method            fapswitch 2.2
_symmetry_space_group_name_H-M    P1
_symmetry_Int_Tables_number       1
_space_group_crystal_system       triclinic
_cell_length_a                    10.774082
_cell_length_b                    10.918276
_cell_length_c                    9.734055
_cell_angle_alpha                 90.540108
_cell_angle_beta                  89.819217
_cell_angle_gamma                 89.537221
_cell_volume                      1144.96552499

loop_
_atom_site_label
_atom_site_type_symbol
_atom_type_description
_atom_site_fract_x
_atom_site_fract_y
_atom_site_fract_z
_atom_type_partial_charge
C1    C     C_R   0.501728 0.265454 0.499601 0.597485
C2    C     C_2   0.508249 0.133331 0.500828 -0.091848
C3    C     C_2   0.566684 0.427898 0.920220 -0.001002
C4    C     C_R   0.262774 0.497693 0.500041 0.570823
C5    C     C_2   0.556928 0.418735 0.074226 0.156752
C6    C     C_R   0.497574 0.734614 0.500622 0.523194
C7    C     C_R   0.737032 0.501760 0.499880 0.541560
C8    C     C_R   0.130100 0.721030 0.560985 -0.098303
C9    C     C_R   0.065873 0.829523 0.590731 -0.109695
C10   C     C_R   0.936744 0.831490 0.590914 -0.102355
C11   C     C_R   0.871186 0.724891 0.561531 -0.092287
C12   C     C_R   0.065565 0.611500 0.531190 0.003691
C13   C     C_R   0.934584 0.613909 0.531541 0.020303
C14   C     C_2   0.122361 0.271389 0.435245 0.575887
C15   C     C_2   0.621086 0.310507 0.130671 0.611966
C16   C     C_R   0.128560 0.500178 0.499500 -0.019811
C17   C     C_R   0.062212 0.391985 0.467675 0.023013
C18   C     C_R   0.933297 0.397018 0.468611 -0.123895
C19   C     C_R   0.870495 0.505498 0.499935 -0.014334
C20   C     C_2   0.488607 0.932361 0.388142 -0.161676
C21   C     C_2   0.489084 0.866834 0.503867 -0.129559
C22   C     C_2   0.481338 0.066338 0.389191 -0.133316
Cu1   Cu    Cu3+1 0.500020 0.500020 0.638630 0.963874
Cu2   Cu    Cu3+1 0.499980 0.499980 0.361370 1.033637
H1    H     H_    0.537627 0.092409 0.596351 0.102593
H2    H     H_    0.642148 0.126827 0.123706 0.332178
H3    H     H_    0.116585 0.912441 0.613415 0.132538
H4    H     H_    0.880255 0.315561 0.444566 0.185166
H5    H     H_    0.491368 0.887035 0.288338 0.160465
H6    H     H_    0.479221 0.909032 0.604446 0.112020
H7    H     H_    0.429493 0.548305 0.895105 0.208343
H8    H     H_    0.462032 0.575222 0.107350 0.190023
H9    H     H_    0.230346 0.724229 0.561046 0.122568
H10   H     H_    0.887179 0.915977 0.613530 0.137901
H11   H     H_    0.770884 0.730332 0.561853 0.124625
H12   H     H_    0.455008 0.110537 0.294099 0.201207
H13   H     H_    0.105748 0.087311 0.427923 0.337328
H14   H     H_    0.632731 0.368336 0.867211 0.161381
N1    N     N_2   0.498640 0.498660 0.846910 -0.363835
N2    N     N_2   0.498610 0.498630 0.153040 -0.363977
O1    O     O_R   0.500020 0.321960 0.617040 -0.494692
O2    O     O_R   0.056104 0.163173 0.454761 -0.712810
O3    O     O_2   0.707571 0.322320 0.210167 -0.498856
O4    O     O_R   0.589294 0.194099 0.082085 -0.727212
O5    O     O_R   0.499980 0.321920 0.382900 -0.445509
O6    O     O_R   0.319670 0.500020 0.617100 -0.499355
O7    O     O_R   0.319630 0.499980 0.382950 -0.464455
O8    O     O_R   0.500020 0.678080 0.617100 -0.506914
O9    O     O_R   0.499980 0.678040 0.382960 -0.510164
O10   O     O_R   0.680370 0.500020 0.617050 -0.506812
O11   O     O_R   0.680330 0.499980 0.382900 -0.451253
O12   O     O_2   0.227797 0.265638 0.389124 -0.506596

loop_
_geom_bond_atom_site_label_1
_geom_bond_atom_site_label_2
_ccdc_geom_bond_type
C2    C22   D    
Cu1   Cu2   S    
C3    H14   S    
C4    C16   S    
C22   H12   S    
C9    C10   A    
Cu1   O1    S    
C14   O2    S    
C8    C12   A    
Cu2   O7    S    
Cu2   O11   S    
C11   H11   S    
C17   C18   A    
C7    O11   A    
C10   H10   S    
Cu1   O6    S    
C4    O6    A    
C12   C13   A    
C11   C13   A    
C14   C17   S    
C1    O5    A    
C16   C17   A    
C6    O8    A    
Cu1   N1    S    
Cu2   O5    S    
C1    O1    A    
C15   O3    D    
C20   C22   S    
C15   O4    S    
C1    C2    S    
C2    H1    S    
C7    C19   S    
C20   H5    S    
H8    N2    S    
C6    O9    A    
C5    C15   S    
C10   C11   A    
C13   C19   A    
H2    O4    S    
Cu2   O9    S    
C18   H4    S    
C20   C21   D    
C9    H3    S    
C18   C19   A    
C21   H6    S    
C5    N2    D    
H13   O2    S    
C3    N1    D    
C8    C9    A    
Cu1   O10   S    
Cu1   O8    S    
Cu2   N2    S    
C6    C21   S    
C14   O12   D    
C12   C16   A    
C7    O10   A    
H7    N1    S    
C8    H9    S    
C3    C5    S    
C4    O7    A    
