data_mof_unit_24650.cif
_audit_creation_date              2012-12-10T17:27:10-0500
_audit_creation_method            fapswitch 2.2
_symmetry_space_group_name_H-M    P1
_symmetry_Int_Tables_number       1
_space_group_crystal_system       triclinic
_cell_length_a                    17.895565
_cell_length_b                    18.212902
_cell_length_c                    12.159216
_cell_angle_alpha                 90.106624
_cell_angle_beta                  83.143581
_cell_angle_gamma                 90.459442
_cell_volume                      3934.58517613

loop_
_atom_site_label
_atom_site_type_symbol
_atom_type_description
_atom_site_fract_x
_atom_site_fract_y
_atom_site_fract_z
_atom_type_partial_charge
C1    C     C_R   0.401668 0.101897 0.523134 0.947494
C2    C     C_R   0.526221 0.025449 0.016745 -0.220958
C3    C     C_R   0.973762 0.474588 0.983233 -0.235594
C4    C     C_R   0.026220 0.525450 0.016745 -0.220952
C5    C     C_R   0.570461 0.048203 0.822929 -0.120333
C6    C     C_R   0.429647 0.951676 0.177057 -0.082408
C7    C     C_R   0.070461 0.548204 0.822929 -0.120309
C8    C     C_R   0.929648 0.451674 0.177057 -0.082397
C9    C     C_R   0.569016 0.067957 0.933786 0.411640
C10   C     C_R   0.431010 0.932030 0.066163 0.419026
C11   C     C_R   0.069014 0.567958 0.933786 0.411637
C12   C     C_R   0.598270 0.898069 0.476896 0.924746
C13   C     C_R   0.931013 0.432028 0.066162 0.418990
C14   C     C_R   0.463697 0.971215 0.868902 0.571639
C15   C     C_R   0.536255 0.028855 0.131091 0.566562
C16   C     C_R   0.963698 0.471214 0.868902 0.571591
C17   C     C_R   0.036254 0.528856 0.131091 0.566559
C18   C     C_R   0.645788 0.165553 0.463683 -0.151766
C19   C     C_R   0.353965 0.834756 0.536524 -0.123113
C20   C     C_R   0.347534 0.160158 0.539613 -0.173296
C21   C     C_R   0.652058 0.839520 0.460628 -0.145406
C22   C     C_R   0.145787 0.665554 0.463684 -0.151780
C23   C     C_R   0.594951 0.104462 0.478244 0.930547
C24   C     C_R   0.853968 0.334753 0.536522 -0.123210
C25   C     C_R   0.847538 0.660162 0.539609 -0.173265
C26   C     C_R   0.152051 0.339514 0.460635 -0.145437
C27   C     C_R   0.324216 0.707121 0.572116 -0.206584
C28   C     C_R   0.675430 0.293315 0.428794 -0.187977
C29   C     C_R   0.700068 0.725992 0.378993 -0.213616
C30   C     C_R   0.298829 0.273241 0.621894 -0.233476
C31   C     C_R   0.824218 0.207118 0.572109 -0.206545
C32   C     C_R   0.175428 0.793317 0.428798 -0.187961
C33   C     C_R   0.200054 0.225980 0.379009 -0.213612
C34   C     C_R   0.404942 0.895653 0.521779 0.914946
C35   C     C_R   0.798835 0.773246 0.621888 -0.233453
C36   C     C_R   0.373043 0.766152 0.580356 0.392966
C37   C     C_R   0.626825 0.234211 0.419636 0.468918
C38   C     C_R   0.650749 0.784544 0.377756 0.423339
C39   C     C_R   0.348440 0.214910 0.622893 0.462580
C40   C     C_R   0.873046 0.266148 0.580351 0.393027
C41   C     C_R   0.126824 0.734213 0.419638 0.468928
C42   C     C_R   0.150735 0.284532 0.377772 0.423315
C43   C     C_R   0.848446 0.714915 0.622887 0.462591
C44   C     C_R   0.287211 0.843821 0.490230 -0.258253
C45   C     C_R   0.901669 0.601898 0.523134 0.947389
C46   C     C_R   0.712328 0.156630 0.510714 -0.280660
C47   C     C_R   0.703384 0.836318 0.538329 -0.231525
C48   C     C_R   0.296045 0.163165 0.462071 -0.255146
C49   C     C_R   0.787214 0.343818 0.490226 -0.258387
C50   C     C_R   0.212326 0.656632 0.510718 -0.280654
C51   C     C_R   0.203379 0.336313 0.538333 -0.231529
C52   C     C_R   0.796052 0.663172 0.462064 -0.255143
C53   C     C_R   0.240321 0.784619 0.480280 0.106382
C54   C     C_R   0.759162 0.215846 0.520926 0.124463
C55   C     C_R   0.750494 0.777403 0.540245 0.090743
C56   C     C_R   0.098268 0.398067 0.476897 0.924776
C57   C     C_R   0.248611 0.221890 0.460442 0.116100
C58   C     C_R   0.740324 0.284617 0.480275 0.106456
C59   C     C_R   0.259159 0.715848 0.520933 0.124480
C60   C     C_R   0.250487 0.277397 0.540251 0.090749
C61   C     C_R   0.748620 0.721899 0.460431 0.116086
C62   C     C_R   0.094951 0.604462 0.478244 0.930559
C63   C     C_R   0.904943 0.395652 0.521779 0.914743
C64   C     C_R   0.473762 0.974588 0.983233 -0.235592
Cl1   Cl    Cl    0.609243 0.154247 0.959456 -0.414614
Cl2   Cl    Cl    0.390690 0.845809 0.040344 -0.393876
Cl3   Cl    Cl    0.109240 0.654249 0.959457 -0.414617
Cl4   Cl    Cl    0.890701 0.345803 0.040343 -0.393901
H1    H     H_    0.393185 0.921224 0.237789 0.201155
H2    H     H_    0.773459 0.396847 0.457399 0.160134
H3    H     H_    0.794026 0.620235 0.400378 0.184415
H4    H     H_    0.205604 0.379329 0.599856 0.180381
H5    H     H_    0.838082 0.153548 0.602319 0.193189
H6    H     H_    0.161678 0.846898 0.398440 0.192787
H7    H     H_    0.200132 0.182802 0.317633 0.180244
H8    H     H_    0.798512 0.816320 0.683522 0.201011
H9    H     H_    0.338079 0.653551 0.602325 0.193171
H10   H     H_    0.661679 0.346896 0.398438 0.192789
H11   H     H_    0.700151 0.682816 0.317612 0.180251
H12   H     H_    0.607051 0.078514 0.762180 0.188909
H13   H     H_    0.298505 0.316315 0.683527 0.201010
H14   H     H_    0.707843 0.014272 0.274860 0.368207
H15   H     H_    0.291818 0.986257 0.725699 0.370614
H16   H     H_    0.207841 0.514271 0.274861 0.368205
H17   H     H_    0.791995 0.486021 0.725293 0.370414
H18   H     H_    0.435536 0.302187 0.429872 0.378390
H19   H     H_    0.409928 0.696624 0.786367 0.391045
H20   H     H_    0.531782 0.205570 0.727083 0.392123
H21   H     H_    0.636546 0.710013 0.146836 0.373567
H22   H     H_    0.935522 0.802161 0.429847 0.378362
H23   H     H_    0.893188 0.421220 0.237788 0.201164
H24   H     H_    0.909898 0.196724 0.786439 0.391085
H25   H     H_    0.031792 0.705584 0.727068 0.392124
H26   H     H_    0.136510 0.209988 0.146873 0.373556
H27   H     H_    0.107050 0.578515 0.762180 0.188907
H28   H     H_    0.726088 0.103618 0.543588 0.163967
H29   H     H_    0.273457 0.896849 0.457401 0.160139
H30   H     H_    0.294019 0.120228 0.400386 0.184412
H31   H     H_    0.705605 0.879331 0.599858 0.180384
H32   H     H_    0.226086 0.603620 0.543593 0.163964
N1    N     N_R   0.480750 0.000000 0.209750 -0.176567
N2    N     N_R   0.519250 0.000000 0.790250 -0.168416
N3    N     N_R   0.980750 0.500000 0.209750 -0.176565
N4    N     N_R   0.019250 0.500000 0.790250 -0.168412
O1    O     O_R   0.418020 0.076820 0.422210 -0.613401
O2    O     O_R   0.569630 0.923170 0.391410 -0.520598
O3    O     O_R   0.569630 0.076830 0.391410 -0.529726
O4    O     O_R   0.430370 0.923170 0.608590 -0.530539
O5    O     O_R   0.930370 0.576830 0.608590 -0.516873
O6    O     O_R   0.069630 0.423170 0.391410 -0.520588
O7    O     O_R   0.069630 0.576830 0.391410 -0.529717
O8    O     O_R   0.930370 0.423170 0.608590 -0.530736
O9    O     O_2   0.685642 0.034425 0.060394 -0.243617
O10   O     O_2   0.637086 0.126617 0.195532 -0.214603
O11   O     O_3   0.658611 0.993775 0.259876 -0.515155
O12   O     O_R   0.581980 0.923180 0.577790 -0.606380
O13   O     O_2   0.362417 0.873654 0.804863 -0.243409
O14   O     O_2   0.314354 0.966156 0.939760 -0.243012
O15   O     O_3   0.341320 0.006410 0.740067 -0.511004
O16   O     O_2   0.185641 0.534429 0.060393 -0.243627
O17   O     O_2   0.137084 0.626618 0.195536 -0.214605
O18   O     O_3   0.158610 0.493773 0.259872 -0.515160
O19   O     O_2   0.862439 0.373646 0.804843 -0.243672
O20   O     O_2   0.814350 0.466128 0.939755 -0.242710
O21   O     O_3   0.841317 0.506411 0.740081 -0.510768
O22   O     O_2   0.557004 0.311958 0.276347 -0.226902
O23   O     O_R   0.581980 0.076820 0.577790 -0.646320
O24   O     O_2   0.507102 0.188583 0.314299 -0.253932
O25   O     O_3   0.479863 0.287984 0.466410 -0.532736
O26   O     O_2   0.515581 0.722203 0.539326 -0.249550
O27   O     O_2   0.491157 0.810741 0.689986 -0.248382
O28   O     O_3   0.445414 0.677088 0.724662 -0.479980
O29   O     O_2   0.406091 0.287146 0.788307 -0.241576
O30   O     O_2   0.392405 0.153832 0.804979 -0.238301
O31   O     O_3   0.500661 0.206393 0.665008 -0.527057
O32   O     O_2   0.508046 0.792742 0.328469 -0.233512
O33   O     O_2   0.606812 0.845757 0.195250 -0.252885
O34   O     O_R   0.418020 0.923180 0.422210 -0.637867
O35   O     O_3   0.593024 0.703949 0.204673 -0.481672
O36   O     O_2   0.057019 0.811936 0.276308 -0.226840
O37   O     O_2   0.007090 0.688581 0.314329 -0.254000
O38   O     O_3   0.979875 0.788021 0.466381 -0.532683
O39   O     O_2   0.015560 0.222117 0.539356 -0.249480
O40   O     O_2   0.991195 0.310747 0.689908 -0.248418
O41   O     O_3   0.945373 0.177133 0.724761 -0.479972
O42   O     O_2   0.906103 0.787153 0.788293 -0.241590
O43   O     O_2   0.892413 0.653840 0.804975 -0.238201
O44   O     O_3   0.000668 0.706395 0.664995 -0.527104
O45   O     O_R   0.918020 0.576820 0.422210 -0.613392
O46   O     O_2   0.008026 0.292730 0.328517 -0.233541
O47   O     O_2   0.106781 0.345736 0.195271 -0.252889
O48   O     O_3   0.092990 0.203929 0.204715 -0.481669
O49   O     O_R   0.081980 0.423180 0.577790 -0.606347
O50   O     O_R   0.081980 0.576820 0.577790 -0.646307
O51   O     O_R   0.918020 0.423180 0.422210 -0.637798
O52   O     O_R   0.430370 0.076830 0.608590 -0.516834
S1    S     S_3+6 0.630523 0.047672 0.161743 0.135431
S2    S     S_3+6 0.959176 0.246531 0.633339 0.086399
S3    S     S_3+6 0.911744 0.715951 0.725175 0.098508
S4    S     S_3+6 0.087588 0.283673 0.275274 0.103379
S5    S     S_3+6 0.369339 0.952613 0.838359 0.128667
S6    S     S_3+6 0.130522 0.547674 0.161743 0.135421
S7    S     S_3+6 0.869342 0.452604 0.838356 0.128733
S8    S     S_3+6 0.541517 0.254086 0.364332 0.081698
S9    S     S_3+6 0.459179 0.746540 0.633332 0.086402
S10   S     S_3+6 0.411736 0.215946 0.725185 0.098486
S11   S     S_3+6 0.587612 0.783690 0.275242 0.103385
S12   S     S_3+6 0.041520 0.754088 0.364324 0.081702
Zn1   Zn    Zn3+2 0.491750 0.000000 0.375560 1.098466
Zn2   Zn    Zn3+2 0.508250 1.000000 0.624440 1.087911
Zn3   Zn    Zn3+2 0.991750 0.500000 0.375560 1.098459
Zn4   Zn    Zn3+2 0.008250 0.500000 0.624440 1.087848

loop_
_geom_bond_atom_site_label_1
_geom_bond_atom_site_label_2
_ccdc_geom_bond_type
N2    Zn2   S    
C6    H1    S    
O48   S4    S    
O14   S5    D    
O36   S12   D    
C8    C13   A    
O4    Zn2   S    
H17   O21   S    
O43   S3    D    
C25   C43   A    
C53   C59   A    
C48   C57   A    
O23   Zn2   S    
C7    C11   A    
O1    Zn1   S    
O11   S1    S    
C50   C59   A    
C47   C55   A    
C18   C37   A    
H14   O11   S    
C15   S1    S    
C43   S3    S    
C52   C61   A    
C32   H6    S    
C45   O5    A    
C31   H5    S    
C22   C41   A    
O17   S6    D    
C42   S4    S    
H26   O48   S    
C41   S12   S    
O24   S8    D    
C47   H31   S    
C31   C40   A    
H25   O44   S    
C6    N1    A    
H15   O15   S    
C63   O8    A    
C27   H9    S    
C44   C53   A    
C33   H7    S    
C21   C38   A    
C2    C64   A    
H21   O35   S    
C30   C60   A    
C29   C38   A    
C32   C41   A    
O30   S10   D    
N1    Zn1   S    
C28   H10   S    
C45   O45   A    
C3    C13   A    
O5    Zn4   S    
O16   S6    D    
N4    Zn4   S    
O20   S7    D    
O6    Zn3   S    
C14   C64   A    
C21   C47   A    
O34   Zn1   S    
N3    Zn3   S    
O15   S5    S    
O21   S7    S    
O22   S8    D    
C18   C46   A    
C56   O6    A    
C11   Cl3   S    
C10   Cl2   S    
C16   S7    S    
C38   S11   S    
C29   C61   A    
C35   H8    S    
C62   O7    A    
C35   C55   A    
C18   C23   S    
O28   S9    S    
C20   C39   A    
C57   C60   A    
O42   S3    D    
O13   S5    D    
C12   C21   S    
C34   O34   A    
C49   C58   A    
C62   O50   A    
O25   S8    S    
C5    H12   S    
O44   S3    S    
H19   O28   S    
C1    O52   A    
O10   S1    D    
C5    C9    A    
C22   C62   S    
O19   S7    D    
C44   H29   S    
C29   H11   S    
C23   O3    A    
C46   C54   A    
O50   Zn4   S    
C8    H23   S    
H22   O38   S    
C49   H2    S    
C15   N1    A    
C4    C11   A    
O35   S11   S    
C2    C15   A    
C20   C48   A    
O46   S4    D    
C37   S8    S    
C4    C17   A    
C24   C63   S    
C16   N4    A    
O2    Zn1   S    
C51   H4    S    
C33   C42   A    
O40   S2    D    
C3    C4    A    
C25   C45   S    
C32   C53   A    
O33   S11   D    
C35   C43   A    
C19   C44   A    
C26   C42   A    
O39   S2    D    
C23   O23   A    
C54   C58   A    
C40   S2    S    
C24   C49   A    
C5    N2    A    
O37   S12   D    
C33   C57   A    
H24   O41   S    
O45   Zn3   S    
C10   C64   A    
H20   O31   S    
C56   O49   A    
C1    C20   S    
C19   C34   S    
C26   C56   S    
C6    C10   A    
H18   O25   S    
O32   S11   D    
C28   C58   A    
C27   C36   A    
C7    H27   S    
C50   H32   S    
O18   S6    S    
C22   C50   A    
C19   C36   A    
C34   O4    A    
O47   S4    D    
C39   S10   S    
C17   N3    A    
C25   C52   A    
C63   O51   A    
C52   H3    S    
C27   C59   A    
O29   S10   D    
C12   O2    A    
O41   S2    S    
O26   S9    D    
O3    Zn1   S    
O8    Zn4   S    
C28   C37   A    
C14   S5    S    
C7    N4    A    
C55   C61   A    
O49   Zn4   S    
O52   Zn2   S    
C36   S9    S    
C24   C40   A    
O31   S10   S    
C30   C39   A    
O7    Zn3   S    
C48   H30   S    
C31   C54   A    
C8    N3    A    
C9    Cl1   S    
C14   N2    A    
C17   S6    S    
O38   S12   S    
O51   Zn3   S    
C46   H28   S    
O27   S9    D    
C51   C60   A    
O9    S1    D    
C26   C51   A    
C2    C9    A    
H16   O18   S    
C30   H13   S    
C3    C16   A    
O12   Zn2   S    
C1    O1    A    
C12   O12   A    
C13   Cl4   S    
