data_mof_unit_35518.cif
_audit_creation_date              2012-12-10T16:47:50-0500
_audit_creation_method            fapswitch 2.2
_symmetry_space_group_name_H-M    P1
_symmetry_Int_Tables_number       1
_space_group_crystal_system       triclinic
_cell_length_a                    7.758589
_cell_length_b                    8.599337
_cell_length_c                    10.577269
_cell_angle_alpha                 90.662037
_cell_angle_beta                  86.446532
_cell_angle_gamma                 93.373436
_cell_volume                      703.102456435

loop_
_atom_site_label
_atom_site_type_symbol
_atom_type_description
_atom_site_fract_x
_atom_site_fract_y
_atom_site_fract_z
_atom_type_partial_charge
C1    C     C_R   0.545035 0.794600 0.501860 0.965041
C2    C     C_2   0.565636 0.957942 0.500328 -0.383757
C3    C     C_2   0.430955 0.045087 0.531984 0.243800
C4    C     C_R   0.503525 0.500613 0.737829 1.011853
C5    C     C_R   0.454596 0.205770 0.508602 0.912161
C6    C     C_R   0.494451 0.483770 0.262820 0.988773
C7    C     C_2   0.592563 0.366172 0.057995 0.431981
C8    C     C_2   0.476485 0.441765 0.132449 -0.526703
C9    C     C_2   0.564084 0.361870 0.923068 0.347525
C10   C     C_2   0.514006 0.491731 0.870598 -0.434654
Cl1   Cl    Cl    0.586452 0.186837 0.835215 -0.487283
Cl2   Cl    Cl    0.232108 0.981095 0.613867 -0.509180
H1    H     H_    0.355852 0.472905 0.094649 0.175835
H2    H     H_    0.494763 0.598335 0.924498 0.144259
H3    H     H_    0.689746 0.006924 0.461112 0.196145
H4    H     H_    0.013211 0.381738 0.406726 0.233409
H5    H     H_    0.986776 0.618141 0.593378 0.224329
H6    H     H_    0.984900 0.144285 0.034223 0.388536
N1    N     N_2   0.950320 0.457950 0.466680 -0.135276
N2    N     N_2   0.049680 0.542050 0.533320 -0.147083
O1    O     O_R   0.389250 0.738570 0.508180 -0.565107
O2    O     O_2   0.737119 0.189178 0.225840 -0.319198
O3    O     O_3   0.878522 0.177230 0.997579 -0.460961
O4    O     O_R   0.678390 0.711630 0.486820 -0.626981
O5    O     O_R   0.355470 0.513470 0.691600 -0.587987
O6    O     O_R   0.644610 0.486520 0.670240 -0.602238
O7    O     O_R   0.321610 0.288370 0.513180 -0.600840
O8    O     O_R   0.610750 0.261430 0.491820 -0.605837
O9    O     O_R   0.355390 0.513480 0.329760 -0.627063
O10   O     O_R   0.644530 0.486530 0.308400 -0.535911
O11   O     O_2   0.909408 0.418762 0.143624 -0.303038
S1    S     S_3+6 0.782977 0.287484 0.110725 0.070603
Zn1   Zn    Zn3+2 0.306940 0.517990 0.514260 1.054826
Zn2   Zn    Zn3+2 0.693060 0.482010 0.485740 1.070018

loop_
_geom_bond_atom_site_label_1
_geom_bond_atom_site_label_2
_ccdc_geom_bond_type
C4    O6    A    
C1    O1    A    
C8    H1    S    
C3    Cl2   S    
C5    O8    A    
C9    C10   D    
N1    N2    D    
O3    S1    S    
H5    N2    S    
C2    C3    D    
O8    Zn2   S    
C7    C8    D    
O7    Zn1   S    
C2    H3    S    
C9    Cl1   S    
O2    S1    D    
H4    N1    S    
N2    Zn1   S    
C6    O10   A    
C4    O5    A    
O1    Zn1   S    
O10   Zn2   S    
C4    C10   S    
H6    O3    S    
O9    Zn1   S    
C6    O9    A    
C1    O4    A    
C1    C2    S    
C10   H2    S    
C7    C9    S    
C6    C8    S    
C7    S1    S    
C5    O7    A    
O6    Zn2   S    
O4    Zn2   S    
O11   S1    D    
O5    Zn1   S    
C3    C5    S    
N1    Zn2   S    
