data_mof_unit_19864.cif
_audit_creation_date              2012-12-10T17:51:33-0500
_audit_creation_method            fapswitch 2.2
_symmetry_space_group_name_H-M    P1
_symmetry_Int_Tables_number       1
_space_group_crystal_system       triclinic
_cell_length_a                    9.964688
_cell_length_b                    10.613619
_cell_length_c                    16.920912
_cell_angle_alpha                 91.90554
_cell_angle_beta                  85.11609
_cell_angle_gamma                 88.54957
_cell_volume                      1781.38399461

loop_
_atom_site_label
_atom_site_type_symbol
_atom_type_description
_atom_site_fract_x
_atom_site_fract_y
_atom_site_fract_z
_atom_type_partial_charge
C1    C     C_R   0.498860 0.739208 0.498157 0.851134
C2    C     C_R   0.529648 0.535636 0.264515 -0.020587
C3    C     C_R   0.385876 0.865586 0.368129 -0.182633
C4    C     C_R   0.481556 0.496689 0.652429 0.851481
C5    C     C_R   0.335216 0.929384 0.305865 -0.128214
C6    C     C_R   0.340742 0.060103 0.304215 -0.137760
C7    C     C_R   0.396671 0.127363 0.364915 -0.183842
C8    C     C_R   0.446866 0.064035 0.429095 0.099044
C9    C     C_R   0.441908 0.932337 0.430558 0.093965
C10   C     C_R   0.497208 0.871602 0.493732 -0.093986
C11   C     C_R   0.559078 0.937098 0.552615 -0.212658
C12   C     C_R   0.360868 0.560665 0.779595 -0.226545
C13   C     C_R   0.563106 0.065586 0.551456 -0.194535
C14   C     C_R   0.505331 0.128099 0.491372 -0.101356
C15   C     C_R   0.836300 0.628399 0.621292 -0.139452
C16   C     C_R   0.501800 0.260734 0.497509 0.867083
C17   C     C_R   0.887249 0.655523 0.693694 0.183155
C18   C     C_R   0.025677 0.647077 0.697703 -0.212915
C19   C     C_R   0.109603 0.632411 0.626742 0.174209
C20   C     C_R   0.060027 0.564387 0.561135 0.139685
C21   C     C_R   0.916268 0.563524 0.560060 0.094734
C22   C     C_R   0.938891 0.439029 0.442199 -0.101348
C23   C     C_R   0.427824 0.626836 0.154879 -0.163803
C24   C     C_R   0.081604 0.439072 0.442173 -0.113856
C25   C     C_R   0.518756 0.504856 0.347664 0.827428
C26   C     C_R   0.470528 0.495779 0.738583 -0.093340
C27   C     C_R   0.570139 0.436663 0.780458 -0.067065
C28   C     C_R   0.562006 0.451121 0.863391 -0.009484
C29   C     C_R   0.454699 0.524312 0.902723 0.132968
C30   C     C_R   0.352456 0.574274 0.861176 -0.179360
C31   C     C_1   0.678710 0.360062 0.739217 0.202942
C32   C     C_3   0.796976 0.705083 0.764071 -0.909444
C33   C     C_3   0.193952 0.746716 0.613797 -0.800342
C34   C     C_R   0.417689 0.590283 0.232614 -0.229802
C35   C     C_1   0.661394 0.389261 0.907923 0.151075
C36   C     C_R   0.653555 0.522442 0.218609 -0.192365
C37   C     C_R   0.662623 0.556122 0.139702 -0.157748
C38   C     C_R   0.548225 0.603604 0.107113 0.202675
C39   C     C_2   0.446124 0.550773 0.987514 -0.226590
C40   C     C_2   0.547967 0.604170 0.021333 -0.224698
H1    H     H_    0.756005 0.537822 0.102970 0.134903
H2    H     H_    0.322050 0.605042 0.267587 0.152823
H3    H     H_    0.065430 0.685755 0.750768 0.152132
H4    H     H_    0.143038 0.388729 0.394957 0.142843
H5    H     H_    0.741842 0.483019 0.242964 0.148910
H6    H     H_    0.639061 0.628479 0.985699 0.156596
H7    H     H_    0.268756 0.628373 0.891749 0.140971
H8    H     H_    0.339483 0.666564 0.130708 0.127379
H9    H     H_    0.284328 0.605624 0.748282 0.162705
H10   H     H_    0.355662 0.522716 0.022205 0.156272
H11   H     H_    0.689566 0.708382 0.750998 0.237961
H12   H     H_    0.602490 0.888461 0.600191 0.144660
H13   H     H_    0.806816 0.642764 0.814815 0.246692
H14   H     H_    0.826242 0.801838 0.781135 0.243157
H15   H     H_    0.297484 0.729117 0.630556 0.243320
H16   H     H_    0.187673 0.780021 0.552735 0.253948
H17   H     H_    0.154381 0.829192 0.651955 0.205113
H18   H     H_    0.381919 0.764158 0.366284 0.153368
H19   H     H_    0.292734 0.877128 0.258403 0.135014
H20   H     H_    0.302699 0.109472 0.255427 0.135971
H21   H     H_    0.402116 0.228498 0.360248 0.141957
H22   H     H_    0.608032 0.116779 0.598619 0.163439
H23   H     H_    0.893923 0.388728 0.394934 0.138443
H24   H     H_    0.736147 0.660937 0.613731 0.197528
N1    N     N_R   0.857140 0.501200 0.500750 -0.107147
N2    N     N_R   0.142740 0.501280 0.500770 -0.107584
N3    N     N_1   0.765359 0.299097 0.706339 -0.196328
N4    N     N_1   0.740668 0.339978 0.943431 -0.209908
O1    O     O_R   0.385310 0.683220 0.500000 -0.630079
O2    O     O_R   0.614640 0.683250 0.500010 -0.626265
O3    O     O_R   0.371780 0.500010 0.615800 -0.603171
O4    O     O_R   0.601110 0.500030 0.615800 -0.628803
O5    O     O_R   0.385360 0.316750 0.499990 -0.608858
O6    O     O_R   0.614690 0.316780 0.500000 -0.603864
O7    O     O_R   0.398890 0.499970 0.384200 -0.637332
O8    O     O_R   0.628220 0.499990 0.384200 -0.616891
Zn1   Zn    Zn3+2 0.346870 0.499980 0.499990 0.941916
Zn2   Zn    Zn3+2 0.653130 0.500020 0.500010 0.950361

loop_
_geom_bond_atom_site_label_1
_geom_bond_atom_site_label_2
_ccdc_geom_bond_type
C33   H15   S    
O2    Zn2   S    
O1    Zn1   S    
C19   C20   A    
C34   H2    S    
C4    O4    A    
C12   H9    S    
C7    C8    A    
C22   N1    A    
C31   N3    T    
C26   C27   A    
C29   C30   A    
C16   O6    A    
C20   N2    A    
C36   C37   A    
O8    Zn2   S    
C5    C6    A    
C18   C19   A    
C7    H21   S    
O4    Zn2   S    
C11   H12   S    
C22   H23   S    
C13   H22   S    
C28   C35   S    
C8    C9    A    
C33   H17   S    
C15   H24   S    
N1    Zn2   S    
C9    C10   A    
C24   N2    A    
C12   C30   A    
C2    C34   A    
C33   H16   S    
C13   C14   A    
C32   H14   S    
C5    H19   S    
C27   C31   S    
C16   O5    A    
C6    H20   S    
C30   H7    S    
C19   C33   S    
C39   C40   D    
C1    O1    A    
C12   C26   A    
C25   O7    A    
C40   H6    S    
C32   H11   S    
C37   C38   A    
C3    C9    A    
C23   C34   A    
C29   C39   S    
C17   C18   A    
C36   H5    S    
O7    Zn1   S    
C24   H4    S    
C14   C16   S    
C32   H13   S    
O3    Zn1   S    
C2    C36   A    
C15   C17   A    
N2    Zn1   S    
C28   C29   A    
C8    C14   A    
C23   H8    S    
C21   N1    A    
C1    C10   S    
C3    C5    A    
C4    C26   S    
C6    C7    A    
C23   C38   A    
C1    O2    A    
C25   O8    A    
C18   H3    S    
C38   C40   S    
C11   C13   A    
C35   N4    T    
C2    C25   S    
C22   C24   A    
C37   H1    S    
C10   C11   A    
C3    H18   S    
C15   C21   A    
C39   H10   S    
C20   C21   A    
O6    Zn2   S    
C27   C28   A    
C17   C32   S    
O5    Zn1   S    
C4    O3    A    
