data_mof_unit_60475.cif
_audit_creation_date              2012-12-10T17:13:13-0500
_audit_creation_method            fapswitch 2.2
_symmetry_space_group_name_H-M    P1
_symmetry_Int_Tables_number       1
_space_group_crystal_system       monoclinic
_cell_length_a                    30.381794
_cell_length_b                    30.86143
_cell_length_c                    24.383248
_cell_angle_alpha                 90.0
_cell_angle_beta                  127.329915
_cell_angle_gamma                 90.0
_cell_volume                      18179.1632684

loop_
_atom_site_label
_atom_site_type_symbol
_atom_type_description
_atom_site_fract_x
_atom_site_fract_y
_atom_site_fract_z
_atom_type_partial_charge
C1    C     C_R   0.690516 0.190173 0.501811 0.931447
C2    C     C_R   0.526524 0.240666 0.069825 0.290288
C3    C     C_R   0.609186 0.828826 0.633327 -0.034085
C4    C     C_R   0.912565 0.361548 0.415969 -0.323657
C5    C     C_R   0.086386 0.361257 0.582987 -0.323459
C6    C     C_R   0.413614 0.861257 0.417012 -0.323459
C7    C     C_R   0.587434 0.861548 0.584031 -0.323657
C8    C     C_R   0.892908 0.368261 0.454922 0.022107
C9    C     C_R   0.106668 0.368068 0.544761 0.022580
C10   C     C_R   0.393332 0.868068 0.455239 0.022580
C11   C     C_R   0.607092 0.868261 0.545078 0.022106
C12   C     C_R   0.853524 0.339664 0.447349 0.008345
C13   C     C_R   0.973476 0.740666 0.930174 0.290288
C14   C     C_R   0.145947 0.339272 0.552400 0.007978
C15   C     C_R   0.354053 0.839272 0.447600 0.007978
C16   C     C_R   0.646476 0.839664 0.552651 0.008345
C17   C     C_R   0.841835 0.342661 0.495640 -0.123243
C18   C     C_R   0.158346 0.342634 0.504781 -0.120462
C19   C     C_R   0.341654 0.842634 0.495219 -0.120463
C20   C     C_R   0.658165 0.842661 0.504360 -0.123242
C21   C     C_R   0.865519 0.375428 0.546233 -0.055384
C22   C     C_R   0.135335 0.375782 0.454795 -0.053681
C23   C     C_R   0.364665 0.875782 0.545205 -0.053681
C24   C     C_R   0.039103 0.745930 0.069441 0.290587
C25   C     C_R   0.634481 0.875428 0.453767 -0.055384
C26   C     C_R   0.899079 0.405998 0.547517 -0.222780
C27   C     C_R   0.101731 0.406343 0.453391 -0.223958
C28   C     C_R   0.398269 0.906343 0.546609 -0.223958
C29   C     C_R   0.600921 0.905998 0.452483 -0.222780
C30   C     C_R   0.911802 0.403044 0.501660 -0.072526
C31   C     C_R   0.088346 0.403101 0.498533 -0.071007
C32   C     C_R   0.411654 0.903101 0.501467 -0.071007
C33   C     C_R   0.588198 0.903045 0.498340 -0.072526
C34   C     C_R   0.058336 0.438542 0.499519 0.849452
C35   C     C_R   0.654319 0.198201 0.588569 -0.164883
C36   C     C_R   0.941695 0.438523 0.500510 0.849209
C37   C     C_R   0.558305 0.938523 0.499490 0.849209
C38   C     C_R   0.441664 0.938542 0.500480 0.849451
C39   C     C_R   0.816427 0.249653 0.634747 0.833345
C40   C     C_R   0.183572 0.249652 0.365255 0.833848
C41   C     C_R   0.316428 0.749652 0.634745 0.833849
C42   C     C_R   0.683573 0.749653 0.365253 0.833344
C43   C     C_R   0.559301 0.060363 0.499504 0.866662
C44   C     C_R   0.440695 0.060354 0.500494 0.866856
C45   C     C_R   0.059305 0.560354 0.499506 0.866857
C46   C     C_R   0.346020 0.198324 0.411731 -0.166713
C47   C     C_R   0.940699 0.560363 0.500496 0.866662
C48   C     C_R   0.656717 0.230278 0.250974 -0.186468
C49   C     C_R   0.368315 0.211134 0.745316 -0.188560
C50   C     C_R   0.131685 0.711134 0.254684 -0.188560
C51   C     C_R   0.843283 0.730278 0.749026 -0.186469
C52   C     C_R   0.619128 0.228015 0.179541 -0.154072
C53   C     C_R   0.403951 0.210147 0.816906 -0.150139
C54   C     C_R   0.096049 0.710147 0.183094 -0.150139
C55   C     C_R   0.880872 0.728015 0.820459 -0.154071
C56   C     C_R   0.563532 0.239169 0.145633 0.025441
C57   C     C_R   0.153982 0.698323 0.588270 -0.166713
C58   C     C_R   0.424829 0.248680 0.854887 0.025735
C59   C     C_R   0.075171 0.748680 0.145113 0.025735
C60   C     C_R   0.936468 0.739169 0.854367 0.025441
C61   C     C_R   0.544813 0.250340 0.184556 -0.026216
C62   C     C_R   0.410082 0.288936 0.820087 -0.030426
C63   C     C_R   0.089918 0.788936 0.179913 -0.030425
C64   C     C_R   0.955187 0.750340 0.815444 -0.026216
C65   C     C_R   0.582891 0.252703 0.256967 -0.061728
C66   C     C_R   0.373997 0.289902 0.747464 -0.066132
C67   C     C_R   0.126003 0.789902 0.252536 -0.066132
C68   C     C_R   0.845683 0.698201 0.411432 -0.164883
C69   C     C_R   0.917109 0.752703 0.743033 -0.061727
C70   C     C_1   0.856773 0.378127 0.598287 0.205241
C71   C     C_1   0.144669 0.378850 0.403297 0.207820
C72   C     C_1   0.355331 0.878850 0.596703 0.207820
C73   C     C_1   0.643227 0.878127 0.401712 0.205240
C74   C     C_1   0.913444 0.322074 0.329682 0.294603
C75   C     C_1   0.083680 0.321182 0.667388 0.296614
C76   C     C_1   0.416319 0.821182 0.332612 0.296615
C77   C     C_1   0.586556 0.822074 0.670318 0.294604
C78   C     C_1   0.486431 0.257901 0.150781 0.199382
C79   C     C_R   0.630979 0.204854 0.622485 -0.248151
C80   C     C_1   0.433136 0.329134 0.858252 0.196649
C81   C     C_1   0.066864 0.829134 0.141748 0.196649
C82   C     C_1   0.013569 0.757901 0.849219 0.199382
C83   C     C_1   0.562849 0.262066 0.296698 0.216964
C84   C     C_1   0.356512 0.331201 0.711644 0.225549
C85   C     C_1   0.143487 0.831201 0.288356 0.225550
C86   C     C_1   0.937151 0.762065 0.703301 0.216964
C87   C     C_R   0.369557 0.205033 0.378061 -0.247263
C88   C     C_R   0.130445 0.705032 0.621941 -0.247265
C89   C     C_R   0.309462 0.190170 0.498139 0.935220
C90   C     C_R   0.869023 0.704855 0.377518 -0.248150
C91   C     C_R   0.590658 0.176359 0.611869 0.508374
C92   C     C_R   0.409876 0.176513 0.388730 0.508713
C93   C     C_R   0.090126 0.676513 0.611273 0.508715
C94   C     C_R   0.909345 0.676359 0.388134 0.508375
C95   C     C_R   0.576299 0.140311 0.569651 -0.119473
C96   C     C_R   0.424024 0.140384 0.430731 -0.119709
C97   C     C_R   0.075977 0.640384 0.569271 -0.119708
C98   C     C_R   0.923702 0.640312 0.430350 -0.119473
C99   C     C_R   0.601267 0.132342 0.536798 -0.032331
C100  C     C_R   0.190538 0.690170 0.501861 0.935220
C101  C     C_R   0.398879 0.132374 0.463358 -0.032253
C102  C     C_R   0.101122 0.632373 0.536643 -0.032253
C103  C     C_R   0.898734 0.632342 0.463203 -0.032331
C104  C     C_R   0.637784 0.163080 0.542541 0.024614
C105  C     C_R   0.362357 0.163125 0.457579 0.023429
C106  C     C_R   0.137643 0.663124 0.542422 0.023429
C107  C     C_R   0.862217 0.663080 0.457460 0.024614
C108  C     C_R   0.656885 0.157536 0.502442 -0.229243
C109  C     C_R   0.343078 0.157518 0.497481 -0.230684
C110  C     C_R   0.156922 0.657518 0.502519 -0.230683
C111  C     C_R   0.809484 0.690173 0.498189 0.931446
C112  C     C_R   0.843115 0.657536 0.497558 -0.229245
C113  C     C_R   0.642093 0.121201 0.459699 0.426349
C114  C     C_R   0.357699 0.121103 0.540042 0.427950
C115  C     C_R   0.142300 0.621103 0.459958 0.427948
C116  C     C_R   0.857907 0.621201 0.540301 0.426351
C117  C     C_R   0.681330 0.248353 0.365454 0.940131
C118  C     C_R   0.316869 0.250076 0.634565 0.939893
C119  C     C_R   0.183131 0.750076 0.365435 0.939893
C120  C     C_R   0.818670 0.748353 0.634546 0.940131
C121  C     C_R   0.611745 0.088013 0.461060 0.335034
C122  C     C_R   0.639703 0.244116 0.290163 -0.093231
C123  C     C_R   0.388062 0.087923 0.538697 0.335698
C124  C     C_R   0.111938 0.587923 0.461303 0.335699
C125  C     C_R   0.888254 0.588013 0.538939 0.335034
C126  C     C_R   0.590815 0.094242 0.498657 -0.229062
C127  C     C_R   0.409171 0.094221 0.501322 -0.229066
C128  C     C_R   0.090829 0.594221 0.498678 -0.229066
C129  C     C_R   0.909185 0.594242 0.501343 -0.229062
C130  C     C_R   0.907790 0.235196 0.745386 -0.224424
C131  C     C_R   0.092166 0.235301 0.254623 -0.224465
C132  C     C_R   0.407833 0.735299 0.745377 -0.224466
C133  C     C_R   0.353449 0.250631 0.710141 -0.097447
C134  C     C_R   0.592209 0.735197 0.254614 -0.224423
C135  C     C_R   0.944684 0.236483 0.816990 -0.149358
C136  C     C_R   0.055276 0.236591 0.183019 -0.149719
C137  C     C_R   0.444723 0.736589 0.816981 -0.149719
C138  C     C_R   0.555316 0.736484 0.183010 -0.149357
C139  C     C_R   0.927445 0.252244 0.855014 -0.013476
C140  C     C_R   0.072562 0.252243 0.144992 -0.013586
C141  C     C_R   0.427437 0.752242 0.855008 -0.013586
C142  C     C_R   0.572555 0.752245 0.144986 -0.013476
C143  C     C_R   0.873270 0.267228 0.820800 -0.145060
C144  C     C_R   0.146551 0.750631 0.289859 -0.097447
C145  C     C_R   0.126784 0.267112 0.179204 -0.144420
C146  C     C_R   0.373216 0.767113 0.820796 -0.144420
C147  C     C_R   0.626730 0.767227 0.179200 -0.145060
C148  C     C_R   0.835660 0.265620 0.749325 0.448020
C149  C     C_R   0.164388 0.265500 0.250679 0.448121
C150  C     C_R   0.335612 0.765501 0.749321 0.448120
C151  C     C_R   0.664340 0.765619 0.250675 0.448021
C152  C     C_R   0.853122 0.249798 0.710556 -0.148744
C153  C     C_R   0.146877 0.249793 0.289448 -0.149027
C154  C     C_R   0.353123 0.749793 0.710552 -0.149028
C155  C     C_R   0.860297 0.744116 0.709837 -0.093231
C156  C     C_R   0.646877 0.749799 0.289444 -0.148744
C157  C     C_R   0.034754 0.252318 0.069648 0.315431
C158  C     C_R   0.965253 0.252319 0.930358 0.315387
C159  C     C_R   0.534747 0.752319 0.069642 0.315386
C160  C     C_R   0.465246 0.752318 0.930352 0.315430
C161  C     C_R   0.826063 0.310349 0.390596 0.317048
C162  C     C_R   0.172347 0.309254 0.608315 0.319710
C163  C     C_R   0.327653 0.809254 0.391685 0.319709
C164  C     C_R   0.673937 0.810349 0.609403 0.317048
C165  C     C_R   0.809397 0.309879 0.498217 0.984401
C166  C     C_R   0.460897 0.245930 0.930559 0.290588
C167  C     C_R   0.190738 0.309871 0.502068 0.978302
C168  C     C_R   0.309262 0.809871 0.497932 0.978301
C169  C     C_R   0.690603 0.809880 0.501783 0.984402
C170  C     C_R   0.847230 0.303168 0.352951 0.356069
C171  C     C_R   0.150236 0.301883 0.644851 0.354648
C172  C     C_R   0.349764 0.801883 0.355149 0.354646
C173  C     C_R   0.652770 0.803168 0.647049 0.356070
C174  C     C_R   0.890814 0.328826 0.366673 -0.034086
C175  C     C_R   0.107105 0.328051 0.631350 -0.034653
C176  C     C_R   0.392895 0.828051 0.368650 -0.034653
H1    H     H_    0.699597 0.222148 0.275516 0.167575
H2    H     H_    0.013439 0.224909 0.157431 0.169211
H3    H     H_    0.486560 0.724907 0.842569 0.169211
H4    H     H_    0.513514 0.724716 0.157421 0.169634
H5    H     H_    0.859516 0.279628 0.849696 0.178512
H6    H     H_    0.140577 0.279424 0.150307 0.179025
H7    H     H_    0.359424 0.779426 0.849693 0.179025
H8    H     H_    0.640484 0.779626 0.150304 0.178512
H9    H     H_    0.946199 0.380824 0.425037 0.175665
H10   H     H_    0.052947 0.380802 0.573945 0.175167
H11   H     H_    0.447053 0.880802 0.426055 0.175168
H12   H     H_    0.352798 0.180844 0.717182 0.177508
H13   H     H_    0.553801 0.880825 0.574963 0.175665
H14   H     H_    0.633996 0.218841 0.150495 0.165139
H15   H     H_    0.414658 0.179097 0.842818 0.164080
H16   H     H_    0.085342 0.679097 0.157182 0.164080
H17   H     H_    0.866004 0.718841 0.849505 0.165139
H18   H     H_    0.915099 0.432562 0.584144 0.174117
H19   H     H_    0.086156 0.433123 0.417192 0.173264
H20   H     H_    0.413844 0.933123 0.582808 0.173264
H21   H     H_    0.584901 0.932562 0.415856 0.174117
H22   H     H_    0.685677 0.220717 0.599595 0.154747
H23   H     H_    0.147202 0.680844 0.282818 0.177508
H24   H     H_    0.314680 0.220870 0.400670 0.155200
H25   H     H_    0.185322 0.720869 0.599332 0.155197
H26   H     H_    0.814325 0.720718 0.400407 0.154749
H27   H     H_    0.644123 0.232439 0.656587 0.155458
H28   H     H_    0.356570 0.232683 0.344111 0.156653
H29   H     H_    0.143433 0.732682 0.655892 0.156653
H30   H     H_    0.855880 0.732440 0.343416 0.155459
H31   H     H_    0.545117 0.118923 0.562761 0.154944
H32   H     H_    0.455194 0.118966 0.437650 0.154784
H33   H     H_    0.044807 0.618966 0.562352 0.154785
H34   H     H_    0.800403 0.722148 0.724484 0.167575
H35   H     H_    0.954884 0.618923 0.437241 0.154943
H36   H     H_    0.599515 0.025399 0.448154 0.337590
H37   H     H_    0.400293 0.025297 0.551495 0.337631
H38   H     H_    0.099707 0.525298 0.448504 0.337630
H39   H     H_    0.900484 0.525399 0.551845 0.337590
H40   H     H_    0.756961 0.260146 0.680720 0.326408
H41   H     H_    0.243065 0.259914 0.319346 0.326408
H42   H     H_    0.256935 0.759916 0.680654 0.326409
H43   H     H_    0.743039 0.760144 0.319281 0.326407
H44   H     H_    0.752738 0.288835 0.318331 0.331454
H45   H     H_    0.922339 0.223208 0.717189 0.183126
H46   H     H_    0.244095 0.284129 0.679860 0.338338
H47   H     H_    0.255905 0.784129 0.320140 0.338338
H48   H     H_    0.747263 0.788835 0.681669 0.331453
H49   H     H_    0.808281 0.248748 0.312157 0.342740
H50   H     H_    0.185893 0.246090 0.682516 0.347697
H51   H     H_    0.314107 0.746089 0.317484 0.347697
H52   H     H_    0.691719 0.748748 0.687844 0.342739
H53   H     H_    0.641984 0.093541 0.386981 0.388412
H54   H     H_    0.357575 0.093330 0.612522 0.385845
H55   H     H_    0.142423 0.593331 0.387477 0.385845
H56   H     H_    0.077585 0.223400 0.282826 0.182850
H57   H     H_    0.858014 0.593540 0.613017 0.388412
H58   H     H_    0.579871 0.209244 0.670735 0.337592
H59   H     H_    0.421035 0.209531 0.330302 0.340155
H60   H     H_    0.078968 0.709530 0.669702 0.340155
H61   H     H_    0.920133 0.709245 0.329269 0.337592
H62   H     H_    0.422414 0.723397 0.717174 0.182851
H63   H     H_    0.577660 0.723210 0.282812 0.183125
H64   H     H_    0.986485 0.224714 0.842580 0.169634
N1    N     N_R   0.488278 0.272609 0.036391 -0.147956
N2    N     N_R   0.054919 0.252272 0.032946 -0.167561
N3    N     N_R   0.445080 0.752274 0.967054 -0.167561
N4    N     N_R   0.554912 0.752387 0.032940 -0.168486
N5    N     N_R   0.979236 0.252248 0.035544 -0.161481
N6    N     N_R   0.020771 0.252132 0.964462 -0.160616
N7    N     N_R   0.479229 0.752134 0.035538 -0.160615
N8    N     N_R   0.520764 0.752246 0.964456 -0.161482
N9    N     N_1   0.849832 0.380243 0.639934 -0.156378
N10   N     N_1   0.152073 0.381265 0.362094 -0.156584
N11   N     N_1   0.347927 0.881265 0.637906 -0.156583
N12   N     N_R   0.455899 0.275081 0.968039 -0.146099
N13   N     N_1   0.650167 0.880243 0.360066 -0.156379
N14   N     N_1   0.931662 0.316683 0.300084 -0.185485
N15   N     N_1   0.064823 0.315700 0.696214 -0.184207
N16   N     N_1   0.435177 0.815700 0.303786 -0.184207
N17   N     N_1   0.568338 0.816683 0.699916 -0.185485
N18   N     N_1   0.439893 0.263905 0.123949 -0.156641
N19   N     N_1   0.451508 0.361236 0.888595 -0.160970
N20   N     N_1   0.048492 0.861236 0.111405 -0.160970
N21   N     N_1   0.060107 0.763905 0.876050 -0.156641
N22   N     N_1   0.546780 0.269456 0.328290 -0.160631
N23   N     N_R   0.044101 0.775081 0.031961 -0.146099
N24   N     N_1   0.342478 0.364127 0.683067 -0.163179
N25   N     N_1   0.157522 0.864127 0.316933 -0.163179
N26   N     N_1   0.953220 0.769455 0.671710 -0.160631
N27   N     N_R   0.011722 0.772609 0.963609 -0.147956
N28   N     N_R   0.499040 0.213826 0.963875 -0.160225
N29   N     N_R   0.531562 0.211395 0.032397 -0.160224
N30   N     N_R   0.968438 0.711394 0.967603 -0.160224
N31   N     N_R   0.000960 0.713826 0.036125 -0.160226
N32   N     N_R   0.945088 0.252389 0.967060 -0.168486
O1    O     O_R   0.678340 0.230070 0.500020 -0.641423
O2    O     O_R   0.482930 0.045810 0.557520 -0.596164
O3    O     O_R   0.017070 0.545810 0.442480 -0.596163
O4    O     O_R   0.982930 0.545810 0.557520 -0.595450
O5    O     O_R   0.574570 0.045820 0.557490 -0.619274
O6    O     O_R   0.425430 0.045820 0.442510 -0.618525
O7    O     O_R   0.074570 0.545820 0.557490 -0.618526
O8    O     O_R   0.925430 0.545820 0.442510 -0.619273
O9    O     O_R   0.730080 0.178340 0.500000 -0.565918
O10   O     O_R   0.269920 0.178340 0.500000 -0.565648
O11   O     O_R   0.230080 0.678340 0.500000 -0.565649
O12   O     O_R   0.321660 0.230070 0.499980 -0.642005
O13   O     O_R   0.769920 0.678340 0.500000 -0.565916
O14   O     O_R   0.673200 0.275870 0.398140 -0.615507
O15   O     O_R   0.326800 0.275870 0.601860 -0.616340
O16   O     O_R   0.173200 0.775870 0.398140 -0.616340
O17   O     O_R   0.826800 0.775870 0.601860 -0.615507
O18   O     O_R   0.724950 0.224150 0.398130 -0.583575
O19   O     O_R   0.275050 0.224150 0.601870 -0.584736
O20   O     O_R   0.224950 0.724150 0.398130 -0.584737
O21   O     O_R   0.775050 0.724150 0.601870 -0.583575
O22   O     O_R   0.769940 0.321680 0.500000 -0.615474
O23   O     O_R   0.178340 0.730070 0.500020 -0.642004
O24   O     O_R   0.230060 0.321680 0.500000 -0.615207
O25   O     O_R   0.269940 0.821680 0.500000 -0.615206
O26   O     O_R   0.730060 0.821680 0.500000 -0.615474
O27   O     O_R   0.821690 0.269960 0.499980 -0.594234
O28   O     O_R   0.178310 0.269960 0.500020 -0.593334
O29   O     O_R   0.321690 0.769960 0.499980 -0.593334
O30   O     O_R   0.678310 0.769960 0.500020 -0.594234
O31   O     O_R   0.775070 0.275880 0.601870 -0.606652
O32   O     O_R   0.224930 0.275880 0.398130 -0.606494
O33   O     O_R   0.275070 0.775880 0.601870 -0.606494
O34   O     O_R   0.821660 0.730070 0.499980 -0.641424
O35   O     O_R   0.724930 0.775880 0.398130 -0.606652
O36   O     O_R   0.826820 0.224150 0.601850 -0.628845
O37   O     O_R   0.173180 0.224150 0.398150 -0.628414
O38   O     O_R   0.326820 0.724150 0.601850 -0.628414
O39   O     O_R   0.673180 0.724150 0.398150 -0.628845
O40   O     O_R   0.017100 0.454190 0.442490 -0.630668
O41   O     O_R   0.982900 0.454190 0.557510 -0.630489
O42   O     O_R   0.517100 0.954190 0.442490 -0.630489
O43   O     O_R   0.482900 0.954190 0.557510 -0.630667
O44   O     O_3   0.603822 0.050047 0.425810 -0.761548
O45   O     O_R   0.074600 0.454200 0.557500 -0.611043
O46   O     O_3   0.395836 0.049902 0.573764 -0.762559
O47   O     O_3   0.104163 0.549903 0.426234 -0.762559
O48   O     O_3   0.896176 0.550046 0.574188 -0.761548
O49   O     O_3   0.782568 0.279298 0.720145 -0.746301
O50   O     O_3   0.217528 0.279046 0.279859 -0.745686
O51   O     O_3   0.282473 0.779049 0.720141 -0.745685
O52   O     O_3   0.717433 0.779295 0.279855 -0.746302
O53   O     O_3   0.776495 0.292161 0.369115 -0.788212
O54   O     O_3   0.221617 0.290357 0.629824 -0.787884
O55   O     O_3   0.278383 0.790357 0.370175 -0.787884
O56   O     O_R   0.925400 0.454200 0.442500 -0.611832
O57   O     O_3   0.723505 0.792161 0.630885 -0.788212
O58   O     O_3   0.826660 0.271167 0.303380 -0.760111
O59   O     O_3   0.169373 0.269165 0.693046 -0.755134
O60   O     O_3   0.330627 0.769165 0.306954 -0.755134
O61   O     O_3   0.673340 0.771168 0.696620 -0.760111
O62   O     O_3   0.658867 0.118920 0.418056 -0.737325
O63   O     O_3   0.340775 0.118749 0.581522 -0.744942
O64   O     O_3   0.159223 0.618750 0.418477 -0.744943
O65   O     O_3   0.841132 0.618920 0.581942 -0.737325
O66   O     O_3   0.565219 0.182373 0.642715 -0.755325
O67   O     O_R   0.574600 0.954200 0.557500 -0.611832
O68   O     O_3   0.435522 0.182586 0.358150 -0.752440
O69   O     O_3   0.064481 0.682586 0.641853 -0.752440
O70   O     O_3   0.934785 0.682374 0.357288 -0.755325
O71   O     O_R   0.425400 0.954200 0.442500 -0.611043
O72   O     O_R   0.517070 0.045810 0.442480 -0.595448
Zn1   Zn    Zn3+2 0.715460 0.284550 0.500010 1.023712
Zn2   Zn    Zn3+2 0.038380 0.500000 0.576800 1.005760
Zn3   Zn    Zn3+2 0.461620 0.000000 0.423200 1.005761
Zn4   Zn    Zn3+2 0.538380 0.000000 0.576800 1.003376
Zn5   Zn    Zn3+2 0.284540 0.284550 0.499990 1.021943
Zn6   Zn    Zn3+2 0.215460 0.784550 0.500010 1.021944
Zn7   Zn    Zn3+2 0.784540 0.784550 0.499990 1.023712
Zn8   Zn    Zn3+2 0.784560 0.215470 0.499990 1.032974
Zn9   Zn    Zn3+2 0.215440 0.215470 0.500010 1.031929
Zn10  Zn    Zn3+2 0.284560 0.715470 0.499990 1.031929
Zn11  Zn    Zn3+2 0.715440 0.715470 0.500010 1.032975
Zn12  Zn    Zn3+2 0.961620 0.500000 0.423200 1.003376

loop_
_geom_bond_atom_site_label_1
_geom_bond_atom_site_label_2
_ccdc_geom_bond_type
C131  H56   S    
C111  O34   A    
C44   O2    A    
C21   C26   A    
C117  O18   A    
C107  C112  A    
C159  N4    A    
O16   Zn6   S    
H49   O58   S    
C136  C140  A    
C13   C60   S    
C135  C139  A    
O67   Zn4   S    
O22   Zn1   S    
C146  H7    S    
C15   C163  A    
O29   Zn10  S    
C170  C174  A    
C95   C99   A    
C96   H32   S    
C164  O57   S    
H58   O66   S    
C46   C105  A    
C29   C33   A    
C149  C153  A    
C12   C161  A    
C146  C150  A    
C162  C171  A    
C68   C90   A    
C149  O50   S    
C88   H29   S    
O31   Zn1   S    
C5    H10   S    
C160  N8    A    
C100  O23   A    
C25   C29   A    
C67   C85   S    
C68   H26   S    
C28   C32   A    
C114  O63   S    
C35   C104  A    
C172  O60   S    
O13   Zn11  S    
C132  C137  A    
O15   Zn5   S    
O4    Zn2   S    
C120  C155  S    
C17   C21   A    
O12   Zn5   S    
C108  C113  A    
C42   C156  S    
C137  H3    S    
C161  O53   S    
C16   C20   A    
C82   N21   T    
C164  C173  A    
C50   C54   A    
C65   C122  A    
C163  C172  A    
C70   N9    T    
C118  O15   A    
C74   N14   T    
C22   C27   A    
C130  C152  A    
C118  O19   A    
C86   N26   T    
C93   O69   S    
H44   O53   S    
C3    C77   S    
C87   H28   S    
O21   Zn11  S    
O56   Zn12  S    
C2    N29   A    
C49   C133  A    
C23   C72   S    
C130  H45   S    
C140  C145  A    
O3    Zn12  S    
C98   H35   S    
C59   C63   A    
C30   C36   S    
C42   O35   A    
C60   C64   A    
C1    O9    A    
C49   H12   S    
C49   C53   A    
C39   C152  S    
C51   C55   A    
O43   Zn4   S    
C20   C169  S    
C125  C129  A    
H50   O59   S    
C48   C52   A    
O9    Zn8   S    
O38   Zn10  S    
C103  C107  A    
H37   O46   S    
H39   O48   S    
O11   Zn10  S    
C53   C58   A    
O71   Zn3   S    
C111  C112  S    
O24   Zn5   S    
C157  N2    A    
H57   O65   S    
C16   C164  A    
C5    C9    A    
C51   C155  A    
C89   O10   A    
C54   H16   S    
C47   C129  S    
C62   C80   S    
C74   C174  S    
C125  O48   S    
C75   N15   T    
H51   O60   S    
C150  O51   S    
C94   O70   S    
C92   C96   A    
C132  H62   S    
C173  O61   S    
C139  C143  A    
C44   O6    A    
C45   O7    A    
C132  C154  A    
O6    Zn3   S    
N23   N27   A    
C79   C91   A    
C38   O71   A    
C57   C106  A    
C77   N17   T    
O14   Zn1   S    
O17   Zn7   S    
C50   C144  A    
C99   C126  A    
C54   C59   A    
C143  C148  A    
O41   Zn2   S    
C62   C66   A    
C11   C33   A    
C131  C136  A    
C47   O4    A    
O37   Zn9   S    
C64   C69   A    
C147  C151  A    
C117  C122  S    
O23   Zn6   S    
C34   O40   A    
C61   C65   A    
O28   Zn9   S    
C123  C127  A    
O25   Zn6   S    
C43   O5    A    
C8    C12   A    
C159  N7    A    
C31   C34   S    
C80   N19   T    
C23   C28   A    
H38   O47   S    
C109  C114  A    
C114  C123  A    
C26   C30   A    
C116  C125  A    
O33   Zn6   S    
C40   C153  S    
C43   O72   A    
C93   C97   A    
C148  O49   S    
C112  C116  A    
C46   C87   A    
O42   Zn3   S    
C167  O24   A    
C105  C109  A    
C89   O12   A    
C18   C22   A    
H40   O49   S    
C84   N24   T    
C148  C152  A    
C165  O27   A    
C50   H23   S    
H54   O63   S    
C29   H21   S    
C37   O42   A    
C39   O36   A    
C2    C56   S    
C24   C59   S    
C24   N23   A    
C35   C79   A    
C101  C127  A    
O36   Zn8   S    
C25   C73   S    
C72   N11   T    
C58   C166  S    
C145  C149  A    
C91   C95   A    
C113  C121  A    
H55   O64   S    
C57   H25   S    
C55   C60   A    
C157  N5    A    
C34   O45   A    
C172  C176  A    
H46   O54   S    
O5    Zn4   S    
C147  H8    S    
C58   C62   A    
C44   C127  S    
C100  C110  S    
C167  O28   A    
C119  C144  S    
C42   O39   A    
C134  H63   S    
C130  C135  A    
C142  C159  S    
C121  O44   S    
C15   C19   A    
N2    N6    A    
C91   O66   S    
C120  O17   A    
O18   Zn8   S    
C3    C7    A    
C20   C25   A    
C94   C98   A    
C45   C128  S    
C98   C103  A    
C158  N32   A    
C135  H64   S    
C90   H30   S    
C134  C156  A    
C12   C17   A    
C116  O65   S    
C68   C107  A    
C169  O26   A    
C97   C102  A    
C124  C128  A    
C99   C104  A    
C4    C174  A    
C96   C101  A    
H43   O52   S    
C5    C175  A    
C67   C144  A    
C142  C147  A    
C90   C94   A    
C95   H31   S    
C41   O38   A    
C75   C175  S    
C38   O43   A    
C76   C176  S    
N5    N32   A    
O1    Zn1   S    
H47   O55   S    
C40   O37   A    
C138  C142  A    
C45   O3    A    
C27   C31   A    
C6    H11   S    
C33   C37   S    
O26   Zn7   S    
C119  O20   A    
C14   C162  A    
C9    C14   A    
C11   C16   A    
C162  O54   S    
O72   Zn3   S    
C18   C167  S    
O27   Zn8   S    
C78   N18   T    
C52   H14   S    
C151  C156  A    
C103  C129  A    
C97   H33   S    
C141  C146  A    
C73   N13   T    
H61   O70   S    
N3    N7    A    
C168  O29   A    
C170  O58   S    
C27   H19   S    
C19   C168  S    
C104  C108  A    
C47   O8    A    
C137  C141  A    
C81   N20   T    
C115  C124  A    
O8    Zn12  S    
C124  O47   S    
C6    C10   A    
H52   O61   S    
C102  C128  A    
C8    C30   A    
C17   C165  S    
C51   H34   S    
H41   O50   S    
C100  O11   A    
C41   O33   A    
O34   Zn7   S    
C166  N12   A    
H53   O62   S    
N4    N8    A    
N28   N29   A    
C36   O41   A    
O39   Zn11  S    
C56   C61   A    
C7    H13   S    
C110  C115  A    
N30   N31   A    
O35   Zn7   S    
C4    H9    S    
O30   Zn11  S    
C136  H2    S    
C14   C18   A    
C19   C23   A    
C4    C8    A    
C138  H4    S    
C113  O62   S    
H48   O57   S    
C115  O64   S    
C7    C11   A    
C69   C155  A    
C63   C81   S    
C143  H5    S    
C120  O21   A    
C10   C15   A    
C48   C122  A    
C65   C83   S    
C89   C109  S    
C39   O31   A    
C40   O32   A    
C28   H20   S    
C3    C173  A    
C139  C158  S    
C32   C38   S    
C71   N10   T    
C1    O1    A    
C123  O46   S    
N1    N12   A    
C76   N16   T    
C13   N27   A    
C43   C126  S    
C48   H1    S    
C101  C105  A    
C63   C67   A    
O32   Zn5   S    
C24   N31   A    
C85   N25   T    
C131  C153  A    
C37   O67   A    
O10   Zn9   S    
C171  C175  A    
C145  H6    S    
C36   O56   A    
C169  O30   A    
C140  C157  S    
C66   C133  A    
C53   H15   S    
C141  C160  S    
C46   H24   S    
C61   C78   S    
C111  O13   A    
O7    Zn2   S    
C163  O55   S    
C64   C82   S    
C118  C133  S    
C161  C170  A    
C55   H17   S    
C79   H27   S    
H36   O44   S    
C22   C71   S    
C87   C92   A    
O45   Zn2   S    
C41   C154  S    
C106  C110  A    
C88   C93   A    
C166  N28   A    
H42   O51   S    
C151  O52   S    
C134  C138  A    
C165  O22   A    
H60   O69   S    
C57   C88   A    
C21   C70   S    
O2    Zn4   S    
C121  C126  A    
O19   Zn9   S    
C13   N30   A    
C171  O59   S    
C6    C176  A    
C168  O25   A    
C102  C106  A    
C160  N3    A    
C2    N1    A    
C92   O68   S    
C9    C31   A    
C1    C108  S    
C66   C84   S    
C10   C32   A    
C150  C154  A    
O40   Zn12  S    
C83   N22   T    
O20   Zn10  S    
H59   O68   S    
C158  N6    A    
C117  O14   A    
C69   C86   S    
C52   C56   A    
C35   H22   S    
C119  O16   A    
C26   H18   S    
