data_mof_unit_26388.cif
_audit_creation_date              2012-10-26T21:10:46-0400
_audit_creation_method            fapswitch 2.2
_symmetry_space_group_name_H-M    P1
_symmetry_Int_Tables_number       1
_space_group_crystal_system       triclinic
_cell_length_a                    10.828714
_cell_length_b                    14.904534
_cell_length_c                    14.942967
_cell_angle_alpha                 63.595878
_cell_angle_beta                  107.889642
_cell_angle_gamma                 103.240742
_cell_volume                      2043.58693897

loop_
_atom_site_label
_atom_site_type_symbol
_atom_type_description
_atom_site_fract_x
_atom_site_fract_y
_atom_site_fract_z
_atom_type_partial_charge
C1    C     C_R   0.477344 0.119398 0.312271 0.543515
C2    C     C_R   0.658069 0.773432 0.973561 -0.148516
C3    C     C_R   0.373443 0.156516 0.127549 -0.142856
C4    C     C_R   0.626547 0.843483 0.872453 -0.142862
C5    C     C_R   0.514438 0.286330 0.176643 -0.132588
C6    C     C_R   0.485571 0.713666 0.823354 -0.132586
C7    C     C_R   0.478440 0.360112 0.076706 0.024191
C8    C     C_R   0.521560 0.639886 0.923294 0.024192
C9    C     C_R   0.390477 0.328376 0.001170 0.048357
C10   C     C_R   0.609514 0.671622 0.998832 0.048354
C11   C     C_R   0.523270 0.464327 0.050806 0.025352
C12   C     C_R   0.522657 0.880601 0.687729 0.543521
C13   C     C_R   0.476727 0.535671 0.949194 0.025351
C14   C     C_R   0.389266 0.500150 0.876430 -0.149644
C15   C     C_R   0.610722 0.499848 0.123573 -0.149635
C16   C     C_R   0.263046 0.998605 0.501011 0.544024
C17   C     C_R   0.736953 0.001398 0.498981 0.544032
C18   C     C_R   0.349390 0.398509 0.901716 -0.144908
C19   C     C_R   0.650592 0.601489 0.098289 -0.144909
C20   C     C_R   0.752650 0.298409 0.642400 -0.033585
C21   C     C_R   0.247341 0.701608 0.357587 -0.033598
C22   C     C_R   0.698481 0.208532 0.629905 0.030432
C23   C     C_R   0.871763 0.002309 0.499864 -0.002581
C24   C     C_R   0.301506 0.791471 0.370110 0.030435
C25   C     C_R   0.506271 0.283795 0.513659 0.130778
C26   C     C_R   0.493726 0.716207 0.486326 0.130767
C27   C     C_R   0.547580 0.370041 0.538936 0.004144
C28   C     C_R   0.452413 0.629970 0.461034 0.004149
C29   C     C_R   0.680824 0.383027 0.586876 0.035119
C30   C     C_R   0.319170 0.616991 0.413087 0.035123
C31   C     C_R   0.469308 0.450677 0.506208 0.010099
C32   C     C_R   0.530684 0.549337 0.493751 0.010104
C33   C     C_R   0.667583 0.563574 0.512502 -0.151458
C34   C     C_R   0.128234 0.997696 0.500123 -0.002580
C35   C     C_R   0.332407 0.436446 0.487445 -0.151458
C36   C     C_R   0.740750 0.481709 0.569059 -0.144039
C37   C     C_R   0.259245 0.518314 0.430880 -0.144033
C38   C     C_R   0.262657 0.801245 0.861212 -0.116203
C39   C     C_R   0.737303 0.198718 0.138767 -0.116189
C40   C     C_R   0.185672 0.833211 0.760700 -0.109824
C41   C     C_R   0.814304 0.166767 0.239273 -0.109812
C42   C     C_R   0.195313 0.935505 0.693342 0.040578
C43   C     C_R   0.804673 0.064478 0.306648 0.040566
C44   C     C_R   0.290647 0.003682 0.725434 -0.063938
C45   C     C_R   0.903885 0.027802 0.406037 -0.032641
C46   C     C_R   0.709334 0.996290 0.274576 -0.063960
C47   C     C_R   0.368406 0.971210 0.825700 -0.111775
C48   C     C_R   0.631560 0.028745 0.174315 -0.111783
C49   C     C_R   0.352494 0.870501 0.894153 -0.098939
C50   C     C_R   0.647461 0.129450 0.105847 -0.098939
C51   C     C_R   0.967152 0.976330 0.594080 -0.040195
C52   C     C_R   0.032846 0.023675 0.405904 -0.040186
C53   C     C_3   0.610816 0.711016 0.577758 -0.207474
C54   C     C_3   0.594144 0.620303 0.678609 -0.308052
C55   C     C_3   0.709120 0.621645 0.768361 -0.458977
C56   C     C_R   0.096110 0.972197 0.593949 -0.032646
C57   C     C_3   0.389180 0.288977 0.422229 -0.207461
C58   C     C_3   0.405844 0.379681 0.321371 -0.308050
C59   C     C_3   0.290863 0.378330 0.231626 -0.458975
C60   C     C_3   0.882699 0.300228 0.718180 -0.273318
C61   C     C_3   0.864178 0.308013 0.812244 -0.294884
C62   C     C_3   0.993156 0.306762 0.891300 -0.455047
C63   C     C_3   0.117300 0.699809 0.281792 -0.273281
C64   C     C_3   0.135856 0.692085 0.187696 -0.294838
C65   C     C_3   0.006920 0.693444 0.108565 -0.454959
C66   C     C_3   0.932652 0.953764 0.694749 -0.236043
C67   C     C_R   0.456479 0.187199 0.203448 0.010757
C68   C     C_3   0.987327 0.040840 0.729520 -0.285042
C69   C     C_3   0.965876 0.014784 0.835032 -0.465006
C70   C     C_3   0.067358 0.046263 0.305230 -0.236055
C71   C     C_3   0.012658 0.959220 0.270410 -0.285101
C72   C     C_3   0.034204 0.985273 0.164934 -0.465101
C73   C     C_R   0.543522 0.812799 0.796552 0.010755
C74   C     C_R   0.341920 0.226566 0.026441 -0.148515
Cu1   Cu    Cu3+1 0.466270 0.918260 0.475690 0.892575
Cu2   Cu    Cu3+1 0.533730 0.081740 0.524310 0.892577
H1    H     H_    0.411468 0.845741 0.972185 0.109630
H2    H     H_    0.750060 0.142576 0.671206 0.119563
H3    H     H_    0.719337 0.637455 0.482855 0.102766
H4    H     H_    0.280646 0.362568 0.517090 0.102769
H5    H     H_    0.252147 0.722900 0.913774 0.109077
H6    H     H_    0.747804 0.277058 0.086193 0.109079
H7    H     H_    0.113877 0.779352 0.736910 0.096236
H8    H     H_    0.886099 0.220636 0.263048 0.096230
H9    H     H_    0.299514 0.082896 0.674915 0.116369
H10   H     H_    0.700478 0.917079 0.325107 0.116385
H11   H     H_    0.439380 0.024480 0.850903 0.095424
H12   H     H_    0.588474 0.154196 0.027819 0.109626
H13   H     H_    0.560584 0.975466 0.149129 0.095426
H14   H     H_    0.283112 0.374877 0.843223 0.100041
H15   H     H_    0.716857 0.625122 0.156785 0.100015
H16   H     H_    0.414412 0.696612 0.763334 0.117991
H17   H     H_    0.585612 0.303380 0.236660 0.117982
H18   H     H_    0.667275 0.921123 0.853470 0.115516
H19   H     H_    0.332707 0.078877 0.146533 0.115529
H20   H     H_    0.800741 0.614894 0.754132 0.143592
H21   H     H_    0.720338 0.692600 0.778770 0.155184
H22   H     H_    0.692293 0.557108 0.840241 0.157617
H23   H     H_    0.276382 0.201714 0.968633 0.095843
H24   H     H_    0.502644 0.622500 0.695415 0.165940
H25   H     H_    0.586293 0.547457 0.673353 0.175384
H26   H     H_    0.704450 0.715303 0.561057 0.098364
H27   H     H_    0.629457 0.775873 0.595667 0.218837
H28   H     H_    0.279644 0.307371 0.221224 0.155178
H29   H     H_    0.199243 0.385082 0.245857 0.143591
H30   H     H_    0.307683 0.442863 0.159741 0.157619
H31   H     H_    0.413698 0.452533 0.326618 0.175387
H32   H     H_    0.497341 0.377480 0.304565 0.165945
H33   H     H_    0.370534 0.224116 0.404327 0.218837
H34   H     H_    0.723605 0.798284 0.031371 0.095870
H35   H     H_    0.295546 0.284687 0.438932 0.098352
H36   H     H_    0.037950 0.236816 0.916685 0.145033
H37   H     H_    0.061251 0.373435 0.857776 0.154216
H38   H     H_    0.975649 0.309461 0.959440 0.141982
H39   H     H_    0.822073 0.378857 0.788325 0.167573
H40   H     H_    0.795370 0.243407 0.849049 0.159127
H41   H     H_    0.927709 0.230164 0.744849 0.129611
H42   H     H_    0.952735 0.362947 0.680930 0.133613
H43   H     H_    0.938650 0.626878 0.142084 0.154220
H44   H     H_    0.962320 0.763517 0.083070 0.145010
H45   H     H_    0.347979 0.548457 0.798623 0.094775
H46   H     H_    0.024435 0.690580 0.040493 0.141958
H47   H     H_    0.204736 0.756679 0.150960 0.159110
H48   H     H_    0.177894 0.621221 0.211581 0.167552
H49   H     H_    0.047248 0.637066 0.319020 0.133557
H50   H     H_    0.072289 0.769870 0.255156 0.129621
H51   H     H_    0.860845 0.010649 0.829980 0.138689
H52   H     H_    0.002904 0.941721 0.891721 0.158787
H53   H     H_    0.019255 0.074066 0.862840 0.129565
H54   H     H_    0.092988 0.059773 0.734551 0.165147
H55   H     H_    0.941326 0.109621 0.671702 0.155528
H56   H     H_    0.652002 0.451542 0.201382 0.094777
H57   H     H_    0.825990 0.939421 0.688738 0.146144
H58   H     H_    0.969674 0.882604 0.755658 0.137998
H59   H     H_    0.997336 0.058372 0.108273 0.158827
H60   H     H_    0.139208 0.989298 0.170055 0.138696
H61   H     H_    0.980767 0.926058 0.137052 0.129577
H62   H     H_    0.058570 0.890408 0.328232 0.155516
H63   H     H_    0.906988 0.940350 0.265304 0.165206
H64   H     H_    0.030367 0.117443 0.244340 0.137971
H65   H     H_    0.174023 0.060585 0.311256 0.146164
H66   H     H_    0.845510 0.497425 0.590964 0.108378
H67   H     H_    0.154487 0.502601 0.408959 0.108374
H68   H     H_    0.249915 0.857419 0.328843 0.119598
N1    N     N_R   0.584450 0.204570 0.560790 -0.241258
N2    N     N_R   0.415550 0.795430 0.439210 -0.241269
O1    O     O_R   0.455540 0.022090 0.338120 -0.497070
O2    O     O_R   0.544460 0.977910 0.661880 -0.497069
O3    O     O_R   0.512510 0.160150 0.379180 -0.522574
O4    O     O_R   0.487490 0.839850 0.620820 -0.522569
O5    O     O_R   0.291160 0.930970 0.479480 -0.498066
O6    O     O_R   0.708840 0.069030 0.520520 -0.498063
O7    O     O_R   0.348130 0.069020 0.520540 -0.532977
O8    O     O_R   0.651870 0.930980 0.479460 -0.532975

loop_
_geom_bond_atom_site_label_1
_geom_bond_atom_site_label_2
_ccdc_geom_bond_type
C66   C68   S    
C15   C19   A    
C70   H64   S    
C8    C13   A    
C23   C45   A    
C27   C29   A    
C14   C18   A    
C54   H25   S    
Cu2   O7    S    
C5    C67   A    
C47   C49   A    
C38   C49   A    
C53   C54   S    
C7    C11   A    
C29   C36   A    
C59   H29   S    
C25   C57   S    
C6    C8    A    
C59   H28   S    
C35   C37   A    
C24   H68   S    
C62   H38   S    
C72   H60   S    
Cu2   O6    S    
Cu1   O4    S    
C35   H4    S    
C33   C36   A    
C51   C56   A    
C26   N2    A    
C3    C74   A    
C36   H66   S    
C16   C34   S    
C66   H58   S    
C11   C15   A    
C57   H33   S    
C15   H56   S    
C69   H52   S    
Cu1   O5    S    
C68   C69   S    
C61   H39   S    
C60   H42   S    
C70   C71   S    
C20   C60   S    
C53   H26   S    
C44   C47   A    
C50   H12   S    
C34   C56   A    
C42   C56   S    
C40   C42   A    
C14   H45   S    
C13   C14   A    
C41   C43   A    
C40   H7    S    
C54   H24   S    
C42   C44   A    
C17   O8    A    
C71   H62   S    
C20   C29   A    
Cu1   N2    S    
C46   C48   A    
C59   H30   S    
C27   C31   A    
C18   H14   S    
C12   O4    A    
C28   C32   A    
C52   C70   S    
C22   H2    S    
C62   H37   S    
C39   C41   A    
C5    C7    A    
C33   H3    S    
C72   H59   S    
C71   H63   S    
C45   C52   A    
Cu1   O1    S    
C58   C59   S    
C64   H48   S    
C41   H8    S    
C30   C37   A    
C60   C61   S    
C51   C66   S    
C47   H11   S    
C68   H55   S    
C2    C4    A    
Cu1   Cu2   S    
C66   H57   S    
C23   C51   A    
C31   C32   A    
C22   N1    A    
C10   C19   A    
C55   H21   S    
C61   H40   S    
C65   H43   S    
C60   H41   S    
C17   C23   S    
C65   H46   S    
C1    O3    A    
C43   C45   S    
Cu2   O2    S    
C4    C73   A    
C63   H49   S    
C4    H18   S    
C8    C10   A    
C72   H61   S    
C20   C22   A    
Cu2   N1    S    
C48   H13   S    
C38   H5    S    
C31   C35   A    
C1    O1    A    
C17   O6    A    
C9    C74   A    
C44   H9    S    
C2    C10   A    
C26   C53   S    
C58   H31   S    
C3    H19   S    
C6    C73   A    
C7    C9    A    
C54   C55   S    
C2    H34   S    
C70   H65   S    
C37   H67   S    
C34   C52   A    
C3    C67   A    
C39   H6    S    
C55   H20   S    
C5    H17   S    
C74   H23   S    
C25   C27   A    
C64   H47   S    
C21   C30   A    
C26   C28   A    
C64   C65   S    
C12   O2    A    
C28   C30   A    
C71   C72   S    
C24   N2    A    
C32   C33   A    
C38   C40   A    
C11   C13   A    
Cu1   O8    S    
C57   C58   S    
C57   H35   S    
Cu2   O3    S    
C53   H27   S    
C6    H16   S    
C55   H22   S    
C48   C50   A    
C1    C67   S    
C65   H44   S    
C49   H1    S    
C16   O5    A    
C58   H32   S    
C61   C62   S    
C43   C46   A    
C21   C63   S    
C63   H50   S    
C19   H15   S    
C63   C64   S    
C9    C18   A    
C39   C50   A    
C62   H36   S    
C69   H51   S    
C69   H53   S    
C21   C24   A    
C16   O7    A    
C68   H54   S    
C25   N1    A    
C12   C73   S    
C46   H10   S    
