data_mof_unit_66770.cif
_audit_creation_date              2013-03-05T15:40:48-0500
_audit_creation_method            fapswitch 2.2
_symmetry_space_group_name_H-M    P1
_symmetry_Int_Tables_number       1
_space_group_crystal_system       triclinic
_cell_length_a                    8.314495
_cell_length_b                    12.708317
_cell_length_c                    15.249881
_cell_angle_alpha                 95.073219
_cell_angle_beta                  100.011933
_cell_angle_gamma                 97.763833
_cell_volume                      1561.89154359

loop_
_atom_site_label
_atom_site_type_symbol
_atom_site_description
_atom_site_fract_x
_atom_site_fract_y
_atom_site_fract_z
_atom_type_partial_charge
P1    P     P_3+3 0.998660 0.747790 0.570900 0.452680
O1    O     O_2   0.168170 0.764170 0.543850 -0.351055
O2    O     O_3   0.898670 0.629780 0.545890 -0.406748
O3    O     O_3   0.365980 0.695510 0.380810 -0.383412
O4    O     O_2   0.313429 0.880951 0.457954 -0.365573
O5    O     O_3   0.050059 0.771765 0.688211 -0.602093
O6    O     O_3   0.350161 0.898650 0.296005 -0.547122
H1    H     H_    0.195455 0.762364 0.234858 0.093407
C1    C     C_3   0.202003 0.891399 0.149293 -0.993081
H2    H     H_    0.134249 0.948672 0.181254 0.278503
H3    H     H_    0.295993 0.938248 0.118703 0.249646
P2    P     P_3+3 0.306970 0.411860 0.294270 0.490534
P3    P     P_3+3 0.880498 0.620464 0.219118 0.490100
O7    O     O_2   0.136040 0.444100 0.280280 -0.358178
O8    O     O_3   0.934510 0.640480 0.335500 -0.342834
O9    O     O_2   0.026310 0.577650 0.186546 -0.408044
O10   O     O_3   0.242894 0.273776 0.276503 -0.610852
O11   O     O_3   0.890165 0.744736 0.178071 -0.558699
C2    C     C_3   0.810133 0.813450 0.226602 0.908219
H4    H     H_    0.708542 0.770729 0.254792 0.053637
C3    C     C_3   0.738994 0.889249 0.163733 -0.949747
H5    H     H_    0.838943 0.934821 0.137121 0.226545
H6    H     H_    0.651733 0.843802 0.105190 0.267128
C4    C     C_3   0.867480 0.255407 0.266290 0.230616
H7    H     H_    0.839956 0.329033 0.236308 0.100441
H8    H     H_    0.989502 0.271700 0.310124 0.140235
C5    C     C_3   0.866015 0.166564 0.192025 0.101401
H9    H     H_    0.735776 0.138254 0.158308 0.105919
H10   H     H_    0.919026 0.099962 0.222907 0.129024
Ba1   Ba    Ba6+2 0.153570 0.551840 0.456200 1.572469
C6    C     C_3   0.083599 0.677508 0.724005 0.428812
H11   H     H_    0.180752 0.644923 0.693846 0.092019
H12   H     H_    0.970723 0.616833 0.711545 0.140273
C7    C     C_3   0.142905 0.702284 0.824980 -0.995242
H13   H     H_    0.259693 0.759965 0.839920 0.283736
H14   H     H_    0.163839 0.628234 0.855416 0.221431
H15   H     H_    0.048118 0.736363 0.856401 0.261903
C8    C     C_3   0.376828 0.217348 0.277830 1.030877
H16   H     H_    0.487332 0.263579 0.320742 0.075391
C9    C     C_3   0.408961 0.194522 0.183583 -0.918627
H17   H     H_    0.289150 0.177204 0.136436 0.276748
H18   H     H_    0.471138 0.122942 0.178311 0.236494
H19   H     H_    0.489568 0.262604 0.165349 0.179540
P4    P     P_3+3 0.811620 0.252200 0.429030 0.451069
O12   O     O_2   0.642110 0.235770 0.456130 -0.356876
O13   O     O_3   0.911620 0.370210 0.454030 -0.387466
O14   O     O_3   0.444310 0.304480 0.619110 -0.337184
O15   O     O_3   0.743512 0.223381 0.313250 -0.638254
P5    P     P_3+3 0.930234 0.349683 0.778498 0.486901
O16   O     O_3   0.400800 0.556680 0.607590 -0.405487
O17   O     O_3   0.875770 0.359510 0.664420 -0.369649
O18   O     O_2   0.825050 0.420263 0.825481 -0.314706
O19   O     O_3   0.862413 0.218567 0.796407 -0.507365
Ba2   Ba    Ba6+2 0.656590 0.448150 0.543720 1.576246
P6    P     P_3+3 0.413586 0.836270 0.391441 0.488589
C10   C     C_3   0.286828 0.826320 0.219215 1.204576
H20   H     H_    0.112157 0.838617 0.095715 0.232083
O20   O     O_3   0.409490 0.443300 0.392340 -0.394174
C11   C     C_3   0.555523 0.782689 0.680356 0.378923
H21   H     H_    0.689498 0.805316 0.681153 0.042618
H22   H     H_    0.496930 0.739751 0.613582 0.135354
C12   C     C_3   0.476802 0.882292 0.691486 -0.951520
H23   H     H_    0.528530 0.927713 0.757868 0.256317
H24   H     H_    0.495618 0.932398 0.637055 0.252018
H25   H     H_    0.343826 0.859032 0.690403 0.284989
P7    P     P_3+3 0.498529 0.588110 0.720768 0.453619
O21   O     O_2   0.674250 0.555830 0.719690 -0.348351
O22   O     O_3   0.534441 0.725667 0.753394 -0.573458
H26   H     H_    0.673969 0.945236 0.199519 0.250359
C13   C     C_3   0.939769 0.151298 0.744540 0.393597
H27   H     H_    0.893766 0.155016 0.672235 0.047027
H28   H     H_    0.075939 0.174210 0.760159 -0.064293
C14   C     C_3   0.898740 0.036159 0.762942 0.107103
H29   H     H_    0.969212 0.985602 0.725488 0.064742
H30   H     H_    0.765425 0.010952 0.737287 0.106585
P8    P     P_3+3 0.402964 0.165959 0.617244 0.456587
C15   C     C_3   0.411443 0.138764 0.782609 0.179976
H31   H     H_    0.306532 0.071564 0.765336 0.094182
O23   O     O_2   0.499399 0.119872 0.549154 -0.392746
O24   O     O_3   0.510384 0.134489 0.717639 -0.512400
H32   H     H_    0.364284 0.216574 0.787643 0.051643
C16   C     C_3   0.516987 0.127943 0.873532 0.165642
H33   H     H_    0.568880 0.208213 0.910928 0.103161
H34   H     H_    0.625848 0.090431 0.862727 0.166466
C17   C     C_R   0.079200 0.185760 0.538740 -0.487029
C18   C     C_R   0.726894 0.818008 0.477222 -0.479027
C19   C     C_R   0.693062 0.995809 0.439306 -0.160281
C20   C     C_R   0.629200 0.887970 0.439184 0.239944
C21   C     C_R   0.888545 0.853378 0.520644 0.311173
C22   C     C_R   0.953815 0.965553 0.527624 -0.008026
C23   C     C_R   0.854591 0.037870 0.484632 -0.029250
C24   C     C_R   0.920188 0.149377 0.488986 0.238226
C25   C     C_R   0.179072 0.115580 0.577805 0.137435
C26   C     C_R   0.115685 0.006982 0.573152 -0.263592
H35   H     H_    0.614207 0.045652 0.404632 0.209305
H36   H     H_    0.195124 0.955525 0.603798 0.182910
H37   H     H_    0.130886 0.269093 0.541565 0.176717
H38   H     H_    0.674478 0.734774 0.474547 0.165682
C27   C     C_R   0.241325 0.448197 0.761082 -0.442639
C28   C     C_R   0.153957 0.394237 0.817427 0.191547
C29   C     C_R   0.234908 0.382871 0.903906 -0.330020
C30   C     C_R   0.381596 0.452709 0.945596 0.180925
C31   C     C_R   0.450647 0.522970 0.889269 -0.198783
C32   C     C_R   0.392961 0.510581 0.796238 0.287842
C33   C     C_R   0.621829 0.507135 0.080982 0.271365
C34   C     C_R   0.678114 0.537860 0.173568 0.158790
C35   C     C_R   0.414859 0.462372 0.205268 0.176541
C36   C     C_R   0.353391 0.432146 0.111894 0.353433
C37   C     C_R   0.453078 0.461456 0.046690 -0.207232
C38   C     C_R   0.573341 0.518028 0.233721 -0.561719
H39   H     H_    0.180054 0.319561 0.935867 0.172974
H40   H     H_    0.544470 0.590525 0.916006 0.186504
H41   H     H_    0.618809 0.542251 0.304562 0.201691
H42   H     H_    0.185765 0.448535 0.691469 0.151977
O25   O     O_3   0.960817 0.205597 0.130643 -0.585724
C39   C     C_3   0.940000 0.129117 0.055246 -0.130432
H43   H     H_    0.807550 0.104750 0.023315 0.146066
H44   H     H_    0.998484 0.058518 0.073245 0.122660
H45   H     H_    0.003276 0.165541 0.004604 0.197232
O26   O     O_3   0.342010 0.117019 0.309340 -0.639567
C40   C     C_3   0.254765 0.124449 0.379967 0.051498
H46   H     H_    0.303746 0.197817 0.427502 0.102705
H47   H     H_    0.265620 0.054020 0.416157 0.217246
H48   H     H_    0.121596 0.122219 0.353361 0.096356
O27   O     O_3   0.418629 0.784151 0.189003 -0.676915
C41   C     C_3   0.361210 0.706688 0.114078 -0.411822
H49   H     H_    0.301053 0.740819 0.054628 0.191854
H50   H     H_    0.278555 0.638858 0.130575 0.185823
H51   H     H_    0.469357 0.676523 0.094244 0.186858
O28   O     O_3   0.941039 0.028506 0.855554 -0.613924
C42   C     C_3   0.875462 0.926656 0.874694 -0.180767
H52   H     H_    0.882172 0.861464 0.822465 0.164872
H53   H     H_    0.745506 0.925609 0.883290 0.159633
H54   H     H_    0.947783 0.910054 0.938882 0.156990
O29   O     O_3   0.428401 0.061163 0.923760 -0.612930
C43   C     C_3   0.316820 0.117114 0.960867 -0.183293
H55   H     H_    0.221061 0.137632 0.907870 0.165011
H56   H     H_    0.381683 0.191362 0.003241 0.151745
H57   H     H_    0.253363 0.064444 0.002495 0.179030
Cl1   Cl    Cl    0.957472 0.889812 0.315647 -0.724309
Cl2   Cl    Cl    0.770118 0.520570 0.011417 -0.690941
O30   O     O_3   0.212840 0.356948 0.087274 -0.647380
C44   C     C_3   0.072176 0.406737 0.065970 0.103343
H58   H     H_    0.098914 0.488935 0.046631 0.126875
H59   H     H_    0.002694 0.403582 0.121141 0.211171
H60   H     H_    0.985887 0.358494 0.008409 0.150797

loop_
_geom_bond_atom_site_label_1
_geom_bond_atom_site_label_2
_geom_bond_distance
_ccdc_geom_bond_type
C44   H60   1.108216 S    
P7    O22   1.745318 S    
C19   C20   1.400958 A    
C41   H49   1.109380 S    
C19   C23   1.408949 A    
C5    H10   1.109764 S    
C7    H15   1.106843 S    
C14   H29   1.111549 S    
C2    H4    1.112063 S    
P8    O23   1.540445 D    
O6    P6    1.753516 S    
C42   H54   1.109237 S    
H1    C10   1.106871 S    
C27   H42   1.082225 S    
C36   O30   1.379166 S    
O29   C43   1.405734 S    
C15   H31   1.112937 S    
C39   H43   1.113781 S    
Ba1   Ba2   4.620587 S    
C25   C26   1.400221 A    
P3    O11   1.746564 S    
C2    C3    1.522178 S    
C4    H8    1.096355 S    
O14   P8    1.744164 S    
O11   C2    1.402496 S    
C34   C38   1.386839 A    
C8    H16   1.093018 S    
C7    H13   1.110570 S    
O2    Ba2   2.843992 S    
C18   C20   1.381764 A    
O25   C39   1.408666 S    
C16   O29   1.411275 S    
C36   C37   1.443302 A    
P1    O1    1.529036 D    
P6    C20   1.821799 S    
C28   C29   1.401585 A    
C40   H48   1.106646 S    
C12   H24   1.109350 S    
C17   C25   1.400693 A    
C9    H19   1.107137 S    
C6    H11   1.105159 S    
C2    Cl1   1.775892 S    
P5    O17   1.739798 S    
C19   H35   1.077769 S    
P2    O10   1.746355 S    
C41   H50   1.103201 S    
C35   C36   1.426026 A    
C4    C5    1.524097 S    
C13   H27   1.109862 S    
C1    H2    1.108233 S    
C7    H14   1.106660 S    
P4    C24   1.897713 S    
C8    O26   1.413283 S    
C9    H18   1.108955 S    
C27   C32   1.387542 A    
Ba1   O16   2.801760 S    
C11   H21   1.109870 S    
C3    H5    1.104317 S    
C14   H30   1.102471 S    
O6    C10   1.399274 S    
O7    Ba1   2.872911 S    
C43   H57   1.107072 S    
O19   C13   1.405693 S    
C17   C24   1.400510 A    
P4    O13   1.592967 S    
C22   C26   1.410533 A    
C11   H22   1.108804 S    
P1    O5    1.754566 S    
C4    O15   1.391313 S    
C29   C30   1.420403 A    
P7    C32   1.839544 S    
P7    O21   1.572337 D    
C4    H7    1.110872 S    
C43   H56   1.110063 S    
C23   C24   1.439413 A    
C11   O22   1.404538 S    
C43   H55   1.106668 S    
Ba2   O21   2.873101 S    
C41   H51   1.101890 S    
C3    H26   1.110948 S    
C31   H40   1.076279 S    
P1    O2    1.592949 S    
O2    Ba1   2.946021 S    
C12   H23   1.105048 S    
P8    C25   1.859456 S    
C1    H3    1.110392 S    
C27   C28   1.386683 A    
C15   H32   1.113208 S    
P5    O18   1.548834 D    
O13   Ba2   2.946933 S    
C13   C14   1.518949 S    
C6    H12   1.108163 S    
C6    C7    1.523733 S    
C1    C10   1.539632 S    
O16   Ba2   2.940971 S    
C10   O27   1.410994 S    
C26   H36   1.070373 S    
O16   P7    1.761096 S    
C38   H41   1.082821 S    
C40   H46   1.111715 S    
O14   Ba2   2.824308 S    
C9    H17   1.105201 S    
P2    O7    1.516754 D    
O12   Ba2   2.881309 S    
C16   H34   1.108240 S    
P3    O8    1.740251 S    
O3    P6    1.765771 S    
O27   C41   1.409604 S    
C35   C38   1.385636 A    
C42   H52   1.111362 S    
C5    H9    1.111235 S    
O26   C40   1.402620 S    
O8    Ba1   2.780232 S    
Ba2   O20   2.800999 S    
C15   O24   1.395466 S    
C44   H59   1.100877 S    
C33   C37   1.431866 A    
C14   O28   1.410197 S    
C11   C12   1.511264 S    
P1    C21   1.869746 S    
C12   H25   1.102066 S    
P2    Ba1   3.438099 S    
O4    P6    1.537642 D    
P4    O12   1.529394 D    
P8    O24   1.740966 S    
P3    C34   1.844835 S    
C42   H53   1.109300 S    
C18   C21   1.386242 A    
P2    C35   1.865686 S    
C29   H39   1.067887 S    
C33   C34   1.410089 A    
C39   H45   1.107324 S    
Ba1   O13   2.843349 S    
O1    Ba1   2.880919 S    
O17   Ba2   2.780827 S    
C3    H6    1.107875 S    
O28   C42   1.410418 S    
P2    O20   1.575424 S    
P4    O15   1.747627 S    
P5    C28   1.845319 S    
C8    C9    1.517214 S    
C22   C23   1.441679 A    
C15   C16   1.534525 S    
P5    O19   1.746193 S    
Ba1   O20   2.941889 S    
P1    Ba1   3.434989 S    
C39   H44   1.109852 S    
O5    C6    1.401258 S    
C1    H20   1.109518 S    
O10   C8    1.401869 S    
C30   C31   1.425965 A    
C18   H38   1.082633 S    
C33   Cl2   1.762012 S    
C40   H47   1.098038 S    
C17   H37   1.081941 S    
P4    Ba2   3.435469 S    
C16   H33   1.115628 S    
P3    O9    1.533745 D    
C31   C32   1.403955 A    
O30   C44   1.406388 S    
C30   C37   1.541288 S    
C13   H28   1.108268 S    
C21   C22   1.442953 A    
O3    Ba1   2.824964 S    
C44   H58   1.114504 S    
C5    O25   1.405924 S    
