data_mof_unit_42593.cif
_audit_creation_date              2012-12-10T20:49:45-0500
_audit_creation_method            fapswitch 2.2
_symmetry_space_group_name_H-M    P1
_symmetry_Int_Tables_number       1
_space_group_crystal_system       triclinic
_cell_length_a                    8.099102
_cell_length_b                    8.937475
_cell_length_c                    16.599219
_cell_angle_alpha                 89.983641
_cell_angle_beta                  84.43083
_cell_angle_gamma                 89.975956
_cell_volume                      1195.87141742

loop_
_atom_site_label
_atom_site_type_symbol
_atom_type_description
_atom_site_fract_x
_atom_site_fract_y
_atom_site_fract_z
_atom_type_partial_charge
C1    C     C_R   0.499993 0.782066 0.499928 0.923447
C2    C     C_R   0.500028 0.217938 0.499939 0.959693
C3    C     C_1   0.499986 0.934839 0.499874 -0.167410
C4    C     C_1   0.500039 0.065181 0.499875 -0.157411
C5    C     C_R   0.475839 0.498789 0.654632 0.935144
C6    C     C_R   0.524085 0.495732 0.345853 0.887138
C7    C     C_R   0.460786 0.473497 0.742445 -0.221086
C8    C     C_R   0.544353 0.451014 0.261022 -0.211513
C9    C     C_R   0.595485 0.512487 0.785984 0.415895
C10   C     C_R   0.450515 0.328323 0.237191 0.413321
C11   C     C_R   0.602362 0.456015 0.864080 -0.252011
C12   C     C_R   0.484010 0.269724 0.159259 -0.271190
C13   C     C_R   0.478193 0.359856 0.898649 0.052556
C14   C     C_R   0.609160 0.331719 0.105674 0.041433
C15   C     C_R   0.339668 0.330021 0.857622 -0.175504
C16   C     C_R   0.707124 0.448147 0.130675 -0.156905
C17   C     C_R   0.327111 0.388777 0.780887 0.350819
C18   C     C_R   0.674408 0.510939 0.207237 0.379578
C19   C     C_2   0.478381 0.308139 0.982388 -0.161637
C20   C     C_2   0.618038 0.298912 0.019232 -0.165547
N1    N     N_1   0.926360 0.500000 0.499990 -0.007693
N2    N     N_1   0.073640 0.500000 0.500010 -0.007748
O1    O     O_R   0.363150 0.714660 0.500000 -0.620429
O2    O     O_R   0.636850 0.285340 0.500000 -0.622710
O3    O     O_R   0.636850 0.714660 0.500000 -0.611022
O4    O     O_R   0.363150 0.285340 0.500000 -0.586080
O5    O     O_R   0.346950 0.500000 0.615800 -0.630399
O6    O     O_R   0.653050 0.500000 0.384200 -0.616932
O7    O     O_R   0.620700 0.500000 0.615800 -0.557861
O8    O     O_R   0.379300 0.500000 0.384200 -0.555553
Zn1   Zn    Zn3+2 0.317220 0.500000 0.500010 1.045859
Zn2   Zn    Zn3+2 0.682780 0.500000 0.499990 1.042207
H1    H     H_    0.239141 0.262263 0.885872 0.165905
H2    H     H_    0.802146 0.497786 0.088445 0.162279
H3    H     H_    0.409971 0.178190 0.139552 0.148948
H4    H     H_    0.703565 0.490072 0.897941 0.137533
O9    O     O_3   0.718735 0.605640 0.751064 -0.742436
H5    H     H_    0.804402 0.620128 0.789173 0.333444
O10   O     O_3   0.329880 0.265328 0.291491 -0.739874
H6    H     H_    0.277563 0.180190 0.265307 0.334213
O11   O     O_3   0.769467 0.632079 0.225935 -0.742852
H7    H     H_    0.712237 0.686769 0.272397 0.330253
O12   O     O_3   0.186262 0.355466 0.744334 -0.738060
H8    H     H_    0.145207 0.450695 0.723153 0.354181
H9    H     H_    0.738460 0.306279 0.984472 0.152794
H10   H     H_    0.358206 0.301252 0.017603 0.153223

loop_
_geom_bond_atom_site_label_1
_geom_bond_atom_site_label_2
_ccdc_geom_bond_type
C1    C3    S    
C2    C4    S    
O12   H8    S    
C17   O12   S    
C15   C17   A    
O9    H5    S    
C14   C20   S    
C8    C18   A    
C11   C13   A    
O11   H7    S    
C19   C20   D    
O3    Zn2   S    
O2    Zn2   S    
C19   H10   S    
O4    Zn1   S    
C2    O4    A    
N1    N2    T    
C12   H3    S    
C1    O3    A    
C9    C11   A    
C10   C12   A    
C9    O9    S    
C11   H4    S    
C6    O8    A    
C12   C14   A    
C1    O1    A    
O7    Zn2   S    
C5    O7    A    
C13   C15   A    
C2    O2    A    
O8    Zn1   S    
N1    Zn2   S    
C14   C16   A    
N2    Zn1   S    
C13   C19   S    
O5    Zn1   S    
C3    C4    T    
C7    C9    A    
O6    Zn2   S    
C16   C18   A    
C18   O11   S    
O10   H6    S    
C5    C7    S    
C6    C8    S    
C16   H2    S    
C5    O5    A    
C15   H1    S    
C8    C10   A    
C6    O6    A    
C20   H9    S    
C10   O10   S    
C7    C17   A    
O1    Zn1   S    
