data_mof_unit_56612.cif
_audit_creation_date              2013-03-05T16:13:32-0500
_audit_creation_method            fapswitch 2.2
_symmetry_space_group_name_H-M    P1
_symmetry_Int_Tables_number       1
_space_group_crystal_system       triclinic
_cell_length_a                    10.623001
_cell_length_b                    9.940383
_cell_length_c                    10.802801
_cell_angle_alpha                 89.675576
_cell_angle_beta                  89.611241
_cell_angle_gamma                 89.916322
_cell_volume                      1140.69442238

loop_
_atom_site_label
_atom_site_type_symbol
_atom_site_description
_atom_site_fract_x
_atom_site_fract_y
_atom_site_fract_z
_atom_type_partial_charge
O1    O     O_R   0.316770 0.614620 0.499990 -0.572454
O2    O     O_R   0.683230 0.614620 0.500010 -0.578549
O3    O     O_R   0.316800 0.385290 0.500000 -0.624661
O4    O     O_R   0.683200 0.385290 0.500000 -0.617112
C1    C     C_R   0.260631 0.499967 0.502308 0.951564
C2    C     C_R   0.739489 0.499626 0.501223 0.919900
O5    O     O_R   0.500000 0.614690 0.316780 -0.590834
O6    O     O_R   0.500000 0.614690 0.683220 -0.588611
O7    O     O_R   0.500020 0.385360 0.316780 -0.584705
O8    O     O_R   0.499980 0.385360 0.683220 -0.567140
C3    C     C_R   0.506621 0.499748 0.260969 0.938339
C4    C     C_R   0.501466 0.498845 0.739438 0.997643
Zn1   Zn    Zn3+2 0.500000 0.653120 0.500000 1.116162
Zn2   Zn    Zn3+2 0.500000 0.346880 0.500000 1.094313
C5    C     C_R   0.503792 0.613202 0.061522 -0.040935
C6    C     C_R   0.499980 0.611770 0.937506 -0.042426
C7    C     C_R   0.519439 0.496718 0.129873 -0.217245
C8    C     C_R   0.509235 0.494031 0.870950 -0.180891
C9    C     C_R   0.540523 0.374355 0.065755 0.228433
C10   C     C_R   0.530854 0.371917 0.936825 0.245167
C11   C     C_3   0.476742 0.759912 0.925548 0.207524
C12   C     C_3   0.479909 0.762035 0.070174 0.222274
C13   C     C_R   0.064709 0.422197 0.597180 0.214044
C14   C     C_R   0.934095 0.421202 0.595536 0.226245
C15   C     C_R   0.872069 0.498298 0.505284 -0.169915
C16   C     C_R   0.128211 0.499931 0.507490 -0.176914
C17   C     C_R   0.936653 0.573287 0.416463 -0.107185
C18   C     C_R   0.065313 0.574896 0.418075 -0.097356
H1    H     H_    0.887610 0.627866 0.344540 0.217100
H2    H     H_    0.115978 0.632034 0.348158 0.233106
C19   C     C_R   0.608455 0.072717 0.482518 0.000483
C20   C     C_R   0.391396 0.072923 0.516657 -0.026563
H3    H     H_    0.695370 0.126907 0.466839 0.198343
H4    H     H_    0.304159 0.127259 0.530173 0.198709
C21   C     C_R   0.609102 0.930250 0.481393 0.349935
C22   C     C_R   0.390413 0.930455 0.516656 0.334551
N1    N     N_R   0.500000 0.857200 0.500000 -0.192992
N2    N     N_R   0.500000 0.142810 0.500000 -0.135136
N3    N     N_R   0.569177 0.251379 0.129474 0.239979
O9    O     O_R   0.678492 0.234813 0.181007 -0.344616
O10   O     O_R   0.483805 0.158469 0.140539 -0.321638
N4    N     N_R   0.541454 0.244694 0.875865 0.251502
O11   O     O_R   0.439702 0.181418 0.843848 -0.291025
O12   O     O_R   0.648215 0.180506 0.876865 -0.231244
N5    N     N_R   0.580629 0.829972 0.861706 0.244414
O13   O     O_R   0.556433 0.924974 0.782089 -0.303860
O14   O     O_R   0.695947 0.786641 0.871040 -0.320085
N6    N     N_R   0.359338 0.796232 0.129579 0.229311
O15   O     O_R   0.325851 0.921597 0.139656 -0.288389
O16   O     O_R   0.283147 0.702944 0.169580 -0.386062
N7    N     N_3   0.353818 0.790072 0.870771 -0.336386
H5    H     H_    0.284052 0.728255 0.909380 0.239146
H6    H     H_    0.330268 0.889659 0.891356 0.276608
N8    N     N_3   0.585248 0.834987 0.125367 -0.349808
H7    H     H_    0.670923 0.789210 0.102499 0.246748
H8    H     H_    0.587171 0.932305 0.088548 0.278089
N9    N     N_R   0.131929 0.352594 0.693274 0.229783
O17   O     O_R   0.212320 0.416897 0.761233 -0.376519
O18   O     O_R   0.111789 0.225475 0.714461 -0.261329
N10   N     N_R   0.864792 0.351125 0.689986 0.240319
O19   O     O_R   0.850098 0.221509 0.683211 -0.252228
O20   O     O_R   0.804938 0.418554 0.774823 -0.356506
N11   N     N_R   0.725299 0.865444 0.454306 0.225741
O21   O     O_R   0.749764 0.832520 0.340417 -0.393912
O22   O     O_R   0.817631 0.875097 0.532298 -0.272456
N12   N     N_R   0.271579 0.866057 0.531235 0.233571
O23   O     O_R   0.236444 0.824975 0.640503 -0.320655
O24   O     O_R   0.186791 0.882600 0.446156 -0.310697

loop_
_geom_bond_atom_site_label_1
_geom_bond_atom_site_label_2
_geom_bond_distance
_ccdc_geom_bond_type
N12   O24   1.300810 A    
O7    Zn2   2.013782 S    
C19   H3    1.081489 S    
C6    C11   1.497793 S    
C20   N2    1.357984 A    
C17   H1    1.081359 S    
N7    H6    1.045471 S    
C22   N12   1.423619 S    
C16   C18   1.390654 A    
C9    C10   1.397630 A    
C19   N2    1.358199 A    
O6    C4    1.298953 A    
C14   N10   1.432325 S    
C17   C18   1.367098 A    
N11   O22   1.301349 A    
C13   N9    1.437612 S    
N6    O16   1.301786 A    
N12   O23   1.299405 A    
C12   N8    1.466254 S    
C6    C8    1.380080 A    
C11   C12   1.563211 S    
O5    C3    1.296499 A    
C10   N4    1.433072 S    
O7    C3    1.285779 A    
N9    O17   1.300875 A    
O2    C2    1.289157 A    
O3    Zn2   1.982686 S    
N4    O12   1.300545 A    
N10   O19   1.300614 A    
O1    C1    1.287104 A    
C5    C6    1.340754 A    
C9    N3    1.432837 S    
C19   C21   1.416304 A    
C18   H2    1.083176 S    
N6    O15   1.300405 A    
C21   N1    1.381520 A    
C12   N6    1.468997 S    
C11   N5    1.471408 S    
N5    O14   1.302304 A    
O4    Zn2   1.983781 S    
O8    C4    1.284369 A    
N8    H8    1.044047 S    
N9    O18   1.300659 A    
C2    C15   1.409415 S    
C15   C17   1.389775 A    
N4    O11   1.301215 A    
C13   C14   1.387796 A    
Zn2   N2    2.028535 S    
N7    H5    1.046449 S    
O6    Zn1   2.013692 S    
C20   C22   1.416232 A    
O5    Zn1   2.017940 S    
C11   N7    1.467157 S    
O1    Zn1   1.984269 S    
C14   C15   1.403859 A    
N3    O10   1.299799 A    
C8    C10   1.422760 A    
N10   O20   1.300489 A    
O4    C2    1.285200 A    
O8    Zn2   2.018035 S    
C13   C16   1.405370 A    
C4    C8    1.424175 S    
N3    O9    1.301037 A    
C5    C7    1.380214 A    
O2    Zn1   1.983171 S    
N8    H7    1.045679 S    
C22   N1    1.383484 A    
C21   N11   1.420977 S    
C7    C9    1.419871 A    
N5    O13   1.300278 A    
Zn1   N1    2.028633 S    
C5    C12   1.504007 S    
C3    C7    1.422298 S    
C1    C16   1.407434 S    
N11   O21   1.299350 A    
O3    C1    1.286175 A    
C20   H4    1.081421 S    
