data_mof_unit_29335.cif
_audit_creation_date              2012-12-10T17:11:04-0500
_audit_creation_method            fapswitch 2.2
_symmetry_space_group_name_H-M    P1
_symmetry_Int_Tables_number       1
_space_group_crystal_system       triclinic
_cell_length_a                    18.232385
_cell_length_b                    18.259052
_cell_length_c                    18.272768
_cell_angle_alpha                 90.167758
_cell_angle_beta                  119.752835
_cell_angle_gamma                 119.924856
_cell_volume                      4316.02584675

loop_
_atom_site_label
_atom_site_type_symbol
_atom_type_description
_atom_site_fract_x
_atom_site_fract_y
_atom_site_fract_z
_atom_type_partial_charge
C1    C     C_R   0.001361 0.861223 0.641264 0.534084
C2    C     C_R   0.194972 0.382460 0.273336 -0.083608
C3    C     C_R   0.101384 0.318197 0.262789 -0.019888
C4    C     C_R   0.001839 0.140124 0.360164 0.491308
C5    C     C_R   0.101846 0.264152 0.318285 0.012379
C6    C     C_R   0.006965 0.196505 0.304303 0.036663
C7    C     C_R   0.913950 0.180882 0.234641 -0.147464
C8    C     C_R   0.913686 0.234116 0.180972 -0.147411
C9    C     C_R   0.006404 0.303772 0.195733 0.028388
C10   C     C_R   0.604370 0.906527 0.400546 -0.094945
C11   C     C_R   0.548077 0.923588 0.420025 0.264372
C12   C     C_3   0.976292 0.262445 0.654099 -0.281146
C13   C     C_R   0.440885 0.872832 0.361574 -0.121652
C14   C     C_R   0.389237 0.802590 0.286195 -0.158887
C15   C     C_R   0.443739 0.779018 0.269173 0.009388
C16   C     C_R   0.279980 0.139955 0.638891 0.483266
C17   C     C_R   0.553285 0.832825 0.326073 -0.022781
C18   C     C_R   0.607611 0.812139 0.304956 0.024063
C19   C     C_R   0.553894 0.741352 0.228431 -0.143954
C20   C     C_R   0.447185 0.687766 0.174545 -0.150841
C21   C     C_R   0.391790 0.704463 0.195357 0.026256
C22   C     C_R   0.034053 0.919131 0.810297 -0.103227
C23   C     C_3   0.000533 0.198645 0.700075 0.086646
C24   C     C_R   0.046758 0.945207 0.889769 -0.128706
C25   C     C_R   0.045980 0.891459 0.943444 -0.117141
C26   C     C_R   0.033067 0.811548 0.918255 -0.082019
C27   C     C_R   0.018387 0.782864 0.837176 0.008921
C28   C     C_R   0.719945 0.862663 0.360346 0.494618
C29   C     C_R   0.018465 0.837249 0.782104 -0.022728
C30   C     C_R   0.007333 0.810056 0.702365 0.033453
C31   C     C_R   0.005740 0.734696 0.681843 0.244573
C32   C     C_R   0.001010 0.679773 0.734446 -0.141158
C33   C     C_R   0.006739 0.702743 0.810766 -0.018547
C34   C     C_3   0.000754 0.300677 0.801762 0.033306
C35   C     C_R   0.933931 0.677759 0.363825 -0.094572
C36   C     C_R   0.904318 0.591563 0.365889 -0.123106
C37   C     C_R   0.905474 0.538259 0.312508 -0.126889
C38   C     C_R   0.935776 0.570712 0.256442 -0.096801
C39   C     C_R   0.967189 0.658383 0.253972 -0.017851
C40   C     C_R   0.999029 0.858189 0.359354 0.491801
C41   C     C_R   0.966642 0.712535 0.308606 0.005657
C42   C     C_R   0.995300 0.798889 0.303879 -0.019572
C43   C     C_R   0.020803 0.830269 0.244978 -0.125174
C44   C     C_R   0.024935 0.778980 0.193339 0.247620
C45   C     C_3   0.108686 0.317966 0.850242 -0.181553
C46   C     C_R   0.996711 0.692828 0.196759 0.029591
C47   C     C_R   0.392787 0.127329 0.574029 -0.106512
C48   C     C_R   0.447307 0.122381 0.543579 -0.129569
C49   C     C_R   0.554824 0.176997 0.596868 -0.134327
C50   C     C_R   0.608664 0.236188 0.681403 -0.106611
C51   C     C_R   0.555150 0.242128 0.713989 0.029540
C52   C     C_R   0.999819 0.141212 0.641332 0.512294
C53   C     C_R   0.445570 0.187094 0.659364 0.027665
C54   C     C_R   0.392091 0.195998 0.690411 0.028380
C55   C     C_R   0.446093 0.260599 0.771780 -0.151944
C56   C     C_3   0.973449 0.320587 0.712807 -0.257048
C57   C     C_R   0.553065 0.314127 0.825219 -0.149485
C58   C     C_R   0.607876 0.304077 0.798149 0.028152
C59   C     C_R   0.279900 0.641876 0.139756 0.491429
C60   C     C_R   0.719999 0.360055 0.858773 0.489739
C61   C     C_R   0.001326 0.359997 0.139851 0.488608
C62   C     C_R   0.001818 0.641831 0.861853 0.491829
C63   C     C_R   0.999499 0.640324 0.140716 0.517040
C64   C     C_3   0.916562 0.140498 0.717028 -0.214940
C65   C     C_R   0.000422 0.358618 0.859017 0.494749
C66   C     C_3   0.920217 0.200124 0.779886 -0.231165
C67   C     C_R   0.196244 0.276746 0.383303 -0.152597
C68   C     C_3   0.108493 0.255933 0.791659 0.166363
C69   C     C_3   0.440777 0.535677 0.418402 0.001406
C70   C     C_3   0.413504 0.602117 0.388724 -0.256018
C71   C     C_3   0.489273 0.692384 0.463268 -0.477994
C72   C     C_3   0.606931 0.959250 0.566128 -0.003645
C73   C     C_3   0.613483 0.018154 0.631767 -0.257977
C74   C     C_3   0.645497 0.998149 0.719393 -0.478482
C75   C     C_3   0.074601 0.699981 0.620671 -0.002589
C76   C     C_3   0.151473 0.778049 0.609158 -0.233629
C77   C     C_3   0.227559 0.762728 0.611709 -0.491316
C78   C     C_R   0.288022 0.342134 0.393999 -0.112273
C79   C     C_3   0.161195 0.858184 0.181564 0.000918
C80   C     C_3   0.215983 0.959028 0.221328 -0.275337
C81   C     C_3   0.328756 0.012476 0.253060 -0.477201
C82   C     C_3   0.212156 0.201438 0.844492 0.006198
C83   C     C_3   0.316827 0.279135 0.926643 -0.263348
C84   C     C_3   0.326007 0.269892 0.013332 -0.395699
C85   C     C_R   0.288032 0.396059 0.339937 0.276653
H1    H     H_    0.927911 0.090877 0.746876 0.165737
H2    H     H_    0.594913 0.725689 0.211670 0.135702
H3    H     H_    0.838792 0.102301 0.652451 0.131066
H4    H     H_    0.687492 0.952016 0.444420 0.149542
H5    H     H_    0.397396 0.887717 0.375062 0.113143
H6    H     H_    0.306502 0.768146 0.241526 0.138623
H7    H     H_    0.407505 0.631358 0.117399 0.130682
H8    H     H_    0.039253 0.965075 0.772942 0.134458
H9    H     H_    0.058636 0.008022 0.910343 0.128520
H10   H     H_    0.056706 0.912316 0.005441 0.141012
H11   H     H_    0.036674 0.773842 0.963839 0.154038
H12   H     H_    0.029132 0.392640 0.726369 0.134341
H13   H     H_    0.842578 0.186299 0.747873 0.127947
H14   H     H_    0.990881 0.617594 0.714612 0.122023
H15   H     H_    0.040109 0.895986 0.240782 0.128474
H16   H     H_    0.929514 0.716090 0.404809 0.145524
H17   H     H_    0.879303 0.565677 0.408345 0.128876
H18   H     H_    0.881642 0.471088 0.313749 0.110485
H19   H     H_    0.933022 0.526058 0.214593 0.125562
H20   H     H_    0.405050 0.268337 0.794834 0.109136
H21   H     H_    0.309337 0.085432 0.529242 0.124444
H22   H     H_    0.405939 0.076778 0.477865 0.114118
H23   H     H_    0.167556 0.300624 0.778991 0.096792
H24   H     H_    0.940283 0.183188 0.842555 0.141820
H25   H     H_    0.596719 0.173991 0.572250 0.124605
H26   H     H_    0.692138 0.278414 0.719693 0.122781
H27   H     H_    0.593459 0.362577 0.888992 0.123061
H28   H     H_    0.130914 0.306861 0.915730 0.141388
H29   H     H_    0.036088 0.306796 0.642500 0.126718
H30   H     H_    0.900490 0.222903 0.587653 0.127114
H31   H     H_    0.895043 0.306460 0.676030 0.120290
H32   H     H_    0.521995 0.566383 0.441559 0.163954
H33   H     H_    0.437918 0.523617 0.477100 0.120839
H34   H     H_    0.167930 0.389240 0.865007 0.090412
H35   H     H_    0.415295 0.612229 0.329556 0.190721
H36   H     H_    0.334252 0.574587 0.369492 0.170806
H37   H     H_    0.490930 0.683728 0.524093 0.142496
H38   H     H_    0.464522 0.737271 0.441076 0.157071
H39   H     H_    0.568190 0.724288 0.479664 0.162504
H40   H     H_    0.678144 0.960721 0.600125 0.139260
H41   H     H_    0.539574 0.889065 0.544301 0.120591
H42   H     H_    0.670149 0.089686 0.645801 0.169885
H43   H     H_    0.536771 0.006287 0.600937 0.169751
H44   H     H_    0.588811 0.926917 0.706816 0.147736
H45   H     H_    0.841196 0.128354 0.223061 0.127195
H46   H     H_    0.648286 0.041526 0.764824 0.162529
H47   H     H_    0.723414 0.012053 0.752599 0.145702
H48   H     H_    0.037615 0.636357 0.570973 0.142744
H49   H     H_    0.118499 0.695881 0.688020 0.114814
H50   H     H_    0.109144 0.786138 0.544281 0.210094
H51   H     H_    0.195294 0.840866 0.663648 0.180575
H52   H     H_    0.271849 0.755208 0.676452 0.146536
H53   H     H_    0.282731 0.821016 0.604191 0.153112
H54   H     H_    0.185651 0.701595 0.556085 0.154511
H55   H     H_    0.175109 0.847228 0.131170 0.139260
H56   H     H_    0.200117 0.235026 0.424938 0.139078
H57   H     H_    0.195922 0.832371 0.234401 0.111670
H58   H     H_    0.175754 0.982614 0.170176 0.171855
H59   H     H_    0.213506 0.972235 0.279140 0.144944
H60   H     H_    0.371801 0.992826 0.306908 0.155838
H61   H     H_    0.365216 0.085060 0.279979 0.151692
H62   H     H_    0.334105 0.001012 0.196667 0.151534
H63   H     H_    0.202605 0.137460 0.851819 0.138363
H64   H     H_    0.211172 0.205303 0.783229 0.118475
H65   H     H_    0.379373 0.280008 0.929022 0.112065
H66   H     H_    0.327804 0.343926 0.921137 0.146672
H67   H     H_    0.359190 0.349834 0.443367 0.123853
H68   H     H_    0.266676 0.272051 0.014281 0.182400
H69   H     H_    0.403626 0.326099 0.071147 0.132067
H70   H     H_    0.316145 0.205752 0.020373 0.142945
H71   H     H_    0.197221 0.421802 0.229405 0.141982
H72   H     H_    0.840797 0.222171 0.128761 0.125441
O1    O     O_3   1.000000 0.000000 0.500000 -0.434420
O2    O     O_R   0.939290 0.616110 0.884440 -0.538353
O3    O     O_R   0.060700 0.616880 0.177520 -0.568383
O4    O     O_R   0.939250 0.884470 0.616070 -0.552753
O5    O     O_R   0.060740 0.443890 0.883140 -0.548769
O6    O     O_R   0.939270 0.616890 0.056080 -0.512449
O7    O     O_R   0.939290 0.322450 0.883140 -0.551960
O8    O     O_R   0.939260 0.323230 0.054780 -0.539066
O9    O     O_R   0.060750 0.615550 0.883900 -0.547221
O10   O     O_R   0.231610 0.616100 0.176760 -0.559278
O11   O     O_R   0.768390 0.445230 0.884440 -0.538010
O12   O     O_R   0.231620 0.176800 0.616070 -0.550807
O13   O     O_R   0.060740 0.176800 0.445190 -0.547881
O14   O     O_R   0.231610 0.054800 0.615530 -0.554414
O15   O     O_R   0.768390 0.883920 0.323210 -0.537411
O16   O     O_R   0.060730 0.883140 0.443890 -0.564829
O17   O     O_R   0.939260 0.056140 0.616830 -0.555566
O18   O     O_R   0.939300 0.883140 0.322450 -0.534194
O19   O     O_R   0.060710 0.177580 0.616830 -0.562247
O20   O     O_3   0.377183 0.456130 0.345534 -0.574714
O21   O     O_3   0.598054 0.992902 0.494713 -0.584410
O22   O     O_3   0.995341 0.709449 0.603604 -0.568013
O23   O     O_R   0.768380 0.884480 0.445190 -0.556883
O24   O     O_3   0.052912 0.812051 0.136684 -0.569960
O25   O     O_3   0.129536 0.198474 0.837058 -0.581084
O26   O     O_R   0.060710 0.883920 0.615530 -0.529224
O27   O     O_R   0.939300 0.054810 0.323210 -0.539994
O28   O     O_3   0.000000 0.500030 0.999970 -0.436503
O29   O     O_R   0.231620 0.615550 0.054780 -0.541944
O30   O     O_R   0.768380 0.323230 0.883900 -0.549575
O31   O     O_R   0.060700 0.445220 0.176760 -0.554831
Zn1   Zn    Zn3+2 0.086760 0.130530 0.543760 0.906591
Zn2   Zn    Zn3+2 0.086760 0.956230 0.542990 0.907355
Zn3   Zn    Zn3+2 0.913250 0.956230 0.369490 0.936029
Zn4   Zn    Zn3+2 0.913230 0.957020 0.543760 0.916546
Zn5   Zn    Zn3+2 0.913240 0.369500 0.956210 0.917043
Zn6   Zn    Zn3+2 0.086750 0.543800 0.130490 0.902207
Zn7   Zn    Zn3+2 0.913240 0.543800 0.956980 0.944426
Zn8   Zn    Zn3+2 0.086770 0.543010 0.956210 0.916965

loop_
_geom_bond_atom_site_label_1
_geom_bond_atom_site_label_2
_ccdc_geom_bond_type
C34   C56   S    
C22   C29   A    
C74   H47   S    
C13   H5    S    
C27   C29   A    
C41   C42   A    
O16   Zn2   S    
C71   H37   S    
C35   C36   A    
C16   O14   A    
O12   Zn1   S    
O28   Zn6   S    
C5    C67   A    
C34   C66   S    
C1    O26   A    
C75   H49   S    
C78   H67   S    
C7    C8    A    
C39   C41   A    
C53   C54   A    
C27   C33   A    
C63   O6    A    
C20   H7    S    
O13   Zn1   S    
C68   O25   S    
C26   C27   A    
C29   C30   A    
C4    O13   A    
C43   H15   S    
C55   H20   S    
C9    C61   S    
C63   O3    A    
O29   Zn8   S    
C36   C37   A    
O9    Zn8   S    
C21   C59   S    
C19   H2    S    
O1    Zn2   S    
O18   Zn3   S    
C30   C31   A    
C84   H70   S    
C57   H27   S    
C10   C17   A    
C58   C60   S    
C69   H33   S    
C59   O29   A    
C36   H17   S    
C18   C19   A    
C73   C74   S    
C49   C50   A    
C83   H65   S    
C40   O16   A    
C1    C30   S    
C7    H45   S    
C38   H19   S    
C69   O20   S    
C84   H69   S    
C16   O12   A    
C28   O15   A    
C83   C84   S    
C10   H4    S    
C70   H35   S    
C8    C9    A    
C80   H59   S    
O11   Zn7   S    
C65   O5    A    
C70   C71   S    
C72   O21   S    
C75   O22   S    
C52   O19   A    
C12   H29   S    
C77   H53   S    
C47   C53   A    
C12   H30   S    
C80   H58   S    
C40   C42   S    
C79   H55   S    
O2    Zn7   S    
C1    O4    A    
C13   C14   A    
O30   Zn5   S    
C67   C78   A    
C56   H12   S    
O28   Zn7   S    
O4    Zn4   S    
C8    H72   S    
C34   C65   S    
C64   H1    S    
C76   H50   S    
C44   C46   A    
C50   C51   A    
C83   H66   S    
O15   Zn3   S    
C26   H11   S    
C38   C39   A    
C71   H39   S    
C18   C28   S    
C24   C25   A    
C72   C73   S    
C4    C6    S    
O23   Zn4   S    
O1    Zn1   S    
O28   Zn5   S    
C37   H18   S    
O7    Zn5   S    
C33   C62   S    
C2    C85   A    
C81   H62   S    
C25   C26   A    
C73   H42   S    
C61   O31   A    
C4    O27   A    
C79   O24   S    
O14   Zn2   S    
C72   H41   S    
C51   C53   A    
C64   C66   S    
C23   C68   S    
C23   C52   S    
C75   C76   S    
C48   H22   S    
C37   C38   A    
C3    C9    A    
C24   H9    S    
C84   H68   S    
C47   C48   A    
C12   C23   S    
O6    Zn7   S    
O1    Zn4   S    
C47   H21   S    
C3    C5    A    
C45   C68   S    
C17   C18   A    
C56   H31   S    
O27   Zn3   S    
C51   C58   A    
C60   O11   A    
C76   C77   S    
C28   O23   A    
C12   C56   S    
C34   C45   S    
C39   C46   A    
C78   C85   A    
C48   C49   A    
C62   O9    A    
C82   C83   S    
C60   O30   A    
C81   H60   S    
C55   C57   A    
C43   C44   A    
O10   Zn6   S    
C22   C24   A    
C42   C43   A    
O28   Zn8   S    
C67   H56   S    
O26   Zn2   S    
C52   O17   A    
C59   O10   A    
O3    Zn6   S    
C71   H38   S    
C15   C17   A    
C54   C55   A    
C23   C64   S    
C2    H71   S    
C62   O2    A    
C31   C32   A    
C77   H54   S    
C77   H52   S    
C80   C81   S    
C35   H16   S    
O8    Zn5   S    
C40   O18   A    
C82   H63   S    
C75   H48   S    
C25   H10   S    
C6    C7    A    
C73   H43   S    
C82   O25   S    
C32   H14   S    
C31   O22   S    
C72   H40   S    
C32   C33   A    
C66   H13   S    
C19   C20   A    
C2    C3    A    
O1    Zn3   S    
C11   C13   A    
C70   H36   S    
C45   H34   S    
O19   Zn1   S    
C5    C6    A    
C46   C63   S    
C65   O7    A    
C69   H32   S    
C50   H26   S    
C22   H8    S    
C61   O8    A    
C66   H24   S    
C69   C70   S    
C35   C41   A    
C16   C54   S    
C14   H6    S    
C82   H64   S    
C10   C11   A    
O31   Zn6   S    
C79   C80   S    
C79   H57   S    
C45   H28   S    
C15   C21   A    
C20   C21   A    
C85   O20   S    
C81   H61   S    
C74   H44   S    
O5    Zn8   S    
C14   C15   A    
C76   H51   S    
C68   H23   S    
C57   C58   A    
C74   H46   S    
C11   O21   S    
C44   O24   S    
C64   H3    S    
O17   Zn4   S    
C49   H25   S    
