data_mof_unit_15757.cif
_audit_creation_date              2012-12-10T18:29:40-0500
_audit_creation_method            fapswitch 2.2
_symmetry_space_group_name_H-M    P1
_symmetry_Int_Tables_number       1
_space_group_crystal_system       triclinic
_cell_length_a                    11.484316
_cell_length_b                    15.188178
_cell_length_c                    15.474992
_cell_angle_alpha                 81.053792
_cell_angle_beta                  92.257893
_cell_angle_gamma                 103.46179
_cell_volume                      2593.12886294

loop_
_atom_site_label
_atom_site_type_symbol
_atom_type_description
_atom_site_fract_x
_atom_site_fract_y
_atom_site_fract_z
_atom_type_partial_charge
C1    C     C_R   0.479453 0.441687 0.661615 0.850200
C2    C     C_R   0.519684 0.558408 0.338320 0.848781
C3    C     C_R   0.494795 0.357661 0.933502 0.066389
C4    C     C_R   0.502129 0.646228 0.066303 0.049016
C5    C     C_R   0.473177 0.509869 0.957272 -0.106689
C6    C     C_R   0.528832 0.496646 0.039802 -0.072702
C7    C     C_R   0.579454 0.418674 0.063540 0.166818
C8    C     C_R   0.423533 0.588365 0.932813 0.152226
C9    C     C_R   0.549287 0.344859 0.015992 0.128634
C10   C     C_R   0.450663 0.660735 0.982728 0.153672
C11   C     C_R   0.673621 0.838032 0.643965 -0.367996
C12   C     C_R   0.327542 0.161749 0.355895 -0.363512
C13   C     C_R   0.653777 0.753986 0.614030 0.109705
C14   C     C_R   0.346923 0.245850 0.385645 0.110576
C15   C     C_R   0.502354 0.794178 0.516368 0.029867
C16   C     C_R   0.497401 0.205885 0.484392 0.029571
C17   C     C_R   0.539389 0.886337 0.532187 -0.038601
C18   C     C_R   0.461519 0.113727 0.468135 -0.040159
C19   C     C_R   0.615212 0.904679 0.604640 0.093441
C20   C     C_R   0.386182 0.095320 0.395388 0.093290
C21   C     C_R   0.495663 0.958966 0.483033 0.060423
C22   C     C_R   0.505478 0.041107 0.517246 0.059515
C23   C     C_R   0.717398 0.500991 0.499885 0.907069
C24   C     C_R   0.282607 0.499053 0.499995 0.903378
C25   C     C_R   0.555418 0.047246 0.600781 -0.265408
C26   C     C_R   0.445720 0.952558 0.399555 -0.264757
C27   C     C_R   0.622247 0.986170 0.639789 0.009779
C28   C     C_R   0.379590 0.013915 0.360153 0.009922
C29   C     C_1   0.838739 0.502669 0.499501 -0.169423
C30   C     C_1   0.161289 0.497531 0.499936 -0.171735
C31   C     C_1   0.940952 0.501555 0.499392 -0.028637
C32   C     C_1   0.059095 0.498740 0.499764 -0.028890
C33   C     C_R   0.462404 0.405575 0.754677 -0.068343
C34   C     C_R   0.534246 0.595323 0.245242 -0.065697
C35   C     C_R   0.476554 0.290207 0.878064 -0.200055
C36   C     C_R   0.515552 0.711576 0.123686 -0.199074
C37   C     C_R   0.459332 0.314197 0.788705 -0.206821
C38   C     C_R   0.533921 0.686446 0.212627 -0.206523
C39   C     C_R   0.456912 0.466658 0.811403 -0.199187
C40   C     C_R   0.540812 0.535727 0.187338 -0.185914
C41   C     C_R   0.469198 0.443815 0.901398 0.076704
C42   C     C_R   0.529524 0.560534 0.097199 0.068184
H1    H     H_    0.544192 0.100311 0.635959 0.142418
H2    H     H_    0.456206 0.898859 0.364834 0.142263
H3    H     H_    0.543461 0.466681 0.214426 0.175500
H4    H     H_    0.456033 0.535585 0.783638 0.192685
H5    H     H_    0.540479 0.736931 0.255520 0.141474
H6    H     H_    0.450903 0.262663 0.746697 0.140975
H7    H     H_    0.482968 0.220637 0.901748 0.140400
H8    H     H_    0.504548 0.780335 0.102023 0.141902
H9    H     H_    0.733766 0.849708 0.698771 0.164181
H10   H     H_    0.267724 0.149913 0.300935 0.165331
N1    N     N_R   0.566020 0.731700 0.552730 -0.131240
N2    N     N_R   0.433980 0.268300 0.447270 -0.131238
O1    O     O_R   0.466720 0.383110 0.605620 -0.628903
O2    O     O_R   0.533280 0.616890 0.394380 -0.629158
O3    O     O_R   0.509090 0.531900 0.639510 -0.612210
O4    O     O_R   0.490910 0.468100 0.360490 -0.611233
O5    O     O_R   0.644370 0.425610 0.483050 -0.598174
O6    O     O_R   0.355630 0.574390 0.516950 -0.600378
O7    O     O_R   0.686740 0.574390 0.516930 -0.612361
O8    O     O_R   0.313260 0.425610 0.483070 -0.612628
Zn1   Zn    Zn3+2 0.471710 0.400660 0.477370 0.940995
Zn2   Zn    Zn3+2 0.528290 0.599340 0.522630 0.938317
N3    N     N_2   0.591600 0.264298 0.046021 -0.318529
H11   H     H_    0.630344 0.238661 0.999449 0.221441
C43   C     C_3   0.510071 0.195221 0.103560 -0.824845
H12   H     H_    0.427454 0.167357 0.067537 0.248897
H13   H     H_    0.486017 0.224375 0.160136 0.248002
H14   H     H_    0.554090 0.138622 0.128967 0.237757
N4    N     N_2   0.407758 0.741242 0.954275 -0.299544
H15   H     H_    0.357118 0.758812 0.999569 0.214243
C44   C     C_3   0.496263 0.817970 0.911346 -0.799185
H16   H     H_    0.566328 0.844289 0.958406 0.234990
H17   H     H_    0.451672 0.873644 0.883924 0.231246
H18   H     H_    0.539592 0.797809 0.856982 0.253365
N5    N     N_2   0.671249 0.418831 0.128677 -0.311883
H19   H     H_    0.677409 0.355648 0.161611 0.252976
C45   C     C_3   0.786463 0.476901 0.101392 -0.793571
H20   H     H_    0.850230 0.476512 0.157217 0.231337
H21   H     H_    0.778755 0.548592 0.079858 0.253269
H22   H     H_    0.822267 0.451254 0.046920 0.235742
N6    N     N_2   0.325102 0.583402 0.872638 -0.306054
H23   H     H_    0.242232 0.560264 0.901888 0.222556
C46   C     C_3   0.329818 0.655458 0.798478 -0.766666
H24   H     H_    0.282451 0.625380 0.742256 0.233200
H25   H     H_    0.423354 0.688213 0.778218 0.239421
H26   H     H_    0.284025 0.707813 0.814139 0.254333
C47   C     C_R   0.695082 0.009676 0.717852 0.138457
C48   C     C_R   0.820311 0.023373 0.715911 -0.157357
C49   C     C_R   0.889413 0.049963 0.787903 -0.143072
C50   C     C_R   0.834281 0.064249 0.861792 -0.110120
C51   C     C_R   0.710009 0.052517 0.863598 -0.147047
C52   C     C_R   0.640652 0.025926 0.791745 -0.170385
H27   H     H_    0.864284 0.014041 0.658462 0.128231
H28   H     H_    0.985791 0.060028 0.786200 0.126716
H29   H     H_    0.887925 0.085019 0.917388 0.121757
H30   H     H_    0.667434 0.064460 0.920489 0.122201
H31   H     H_    0.544629 0.018310 0.793504 0.116849
C53   C     C_R   0.307997 0.990818 0.281478 0.139636
C54   C     C_R   0.363921 0.976187 0.207517 -0.170226
C55   C     C_R   0.295782 0.949865 0.135058 -0.151115
C56   C     C_R   0.171297 0.936876 0.136294 -0.111541
C57   C     C_R   0.114745 0.949662 0.210199 -0.142206
C58   C     C_R   0.182619 0.975958 0.282806 -0.157225
H32   H     H_    0.460150 0.984826 0.206178 0.117762
H33   H     H_    0.339458 0.939082 0.078145 0.123678
H34   H     H_    0.118598 0.916309 0.080231 0.121280
H35   H     H_    0.018225 0.938655 0.211433 0.126985
H36   H     H_    0.137604 0.984144 0.340247 0.128335
C59   C     C_R   0.621468 0.238778 0.516411 0.172269
C60   C     C_R   0.644803 0.263748 0.600134 -0.108292
C61   C     C_R   0.761929 0.284078 0.632291 -0.148439
C62   C     C_R   0.857152 0.279454 0.581111 -0.094720
C63   C     C_R   0.835360 0.255495 0.497437 -0.147913
C64   C     C_R   0.718323 0.235555 0.465035 -0.139311
H37   H     H_    0.572097 0.261710 0.642242 0.122906
H38   H     H_    0.778539 0.301692 0.697507 0.133635
H39   H     H_    0.947754 0.294303 0.606288 0.128662
H40   H     H_    0.908946 0.251050 0.458133 0.121429
H41   H     H_    0.702714 0.215289 0.400699 0.120723
C65   C     C_R   0.376978 0.761706 0.486703 0.174246
C66   C     C_R   0.282578 0.766988 0.539461 -0.148383
C67   C     C_R   0.164577 0.748645 0.508853 -0.152140
C68   C     C_R   0.139227 0.723827 0.425772 -0.094482
C69   C     C_R   0.231935 0.716950 0.373315 -0.146196
C70   C     C_R   0.350113 0.735957 0.403583 -0.108422
H42   H     H_    0.300945 0.787972 0.603353 0.123956
H43   H     H_    0.093111 0.755268 0.549010 0.122354
H44   H     H_    0.047849 0.710135 0.402015 0.127780
H45   H     H_    0.212577 0.698543 0.308589 0.132765
H46   H     H_    0.420895 0.735681 0.360712 0.123076
C71   C     C_R   0.279803 0.311313 0.340342 0.189666
C72   C     C_R   0.311855 0.354145 0.254777 -0.148690
C73   C     C_R   0.243077 0.410201 0.207701 -0.141491
C74   C     C_R   0.138893 0.420758 0.244394 -0.124281
C75   C     C_R   0.102069 0.373555 0.327253 -0.158647
C76   C     C_R   0.171031 0.317541 0.374498 -0.125273
H47   H     H_    0.388945 0.342568 0.224205 0.114758
H48   H     H_    0.269600 0.444317 0.142345 0.136617
H49   H     H_    0.085405 0.463959 0.207928 0.124467
H50   H     H_    0.019777 0.380123 0.354554 0.139426
H51   H     H_    0.140551 0.279936 0.437983 0.117725
C77   C     C_R   0.721917 0.688661 0.658449 0.190910
C78   C     C_R   0.691397 0.645331 0.744134 -0.149913
C79   C     C_R   0.760916 0.589244 0.790162 -0.142285
C80   C     C_R   0.864642 0.579288 0.752401 -0.126340
C81   C     C_R   0.900260 0.627153 0.669572 -0.159772
C82   C     C_R   0.830467 0.683172 0.623341 -0.125328
H52   H     H_    0.615213 0.656640 0.775826 0.115167
H53   H     H_    0.735383 0.554725 0.855577 0.142083
H54   H     H_    0.918763 0.536077 0.788035 0.127698
H55   H     H_    0.982188 0.620931 0.641487 0.140444
H56   H     H_    0.859993 0.721181 0.559809 0.117510

loop_
_geom_bond_atom_site_label_1
_geom_bond_atom_site_label_2
_ccdc_geom_bond_type
C21   C26   A    
C4    C36   A    
C54   C55   A    
C15   C65   S    
C8    N6    S    
C44   H16   S    
C59   C60   A    
C58   H36   S    
C25   H1    S    
C78   C79   A    
C48   C49   A    
C26   H2    S    
C73   C74   A    
C39   C41   A    
N5    H19   S    
C23   O5    A    
C11   C19   A    
C53   C58   A    
C33   C39   A    
C34   C40   A    
C5    C6    A    
C15   N1    A    
C61   H38   S    
C35   C37   A    
C61   C62   A    
C76   H51   S    
C57   H35   S    
N1    Zn2   S    
N2    Zn1   S    
C63   C64   A    
C65   C70   A    
C69   H45   S    
C15   C17   A    
C13   C77   S    
C47   C52   A    
C70   H46   S    
C60   C61   A    
C49   H28   S    
C68   H44   S    
C80   C81   A    
N3    C43   S    
C22   C25   A    
O1    Zn1   S    
C35   H7    S    
O2    Zn2   S    
C59   C64   A    
C19   C27   A    
C78   H52   S    
C7    N5    S    
C10   N4    S    
C2    C34   S    
C40   C42   A    
C71   C76   A    
C34   C38   A    
C21   C22   A    
C44   H17   S    
C73   H48   S    
C57   C58   A    
C12   H10   S    
C50   H29   S    
C62   C63   A    
C13   N1    A    
N5    C45   S    
C40   H3    S    
C75   H50   S    
C64   H41   S    
C46   H25   S    
C1    C33   S    
C43   H12   S    
C66   C67   A    
C81   C82   A    
C49   C50   A    
N4    C44   S    
C77   C78   A    
C20   C28   A    
C46   H24   S    
C33   C37   A    
C45   H20   S    
C43   H13   S    
O7    Zn2   S    
C82   H56   S    
C74   H49   S    
C3    C9    A    
C1    O3    A    
C5    C8    A    
N6    H23   S    
C3    C35   A    
C24   O6    A    
C12   C20   A    
O8    Zn1   S    
C55   H33   S    
C51   C52   A    
C37   H6    S    
C38   H5    S    
C56   H34   S    
C39   H4    S    
C16   C18   A    
N6    C46   S    
C12   C14   A    
N3    H11   S    
C71   C72   A    
C44   H18   S    
C24   C30   S    
C81   H55   S    
C4    C10   A    
C23   C29   S    
C72   H47   S    
C36   H8    S    
O3    Zn2   S    
C45   H21   S    
C79   C80   A    
C46   H26   S    
C54   H32   S    
C7    C9    A    
C5    C41   A    
C3    C41   A    
C24   O8    A    
C77   C82   A    
C14   N2    A    
C18   C22   A    
C26   C28   A    
C31   C32   S    
O4    Zn1   S    
C74   C75   A    
C48   H27   S    
C45   H22   S    
C2    O4    A    
C6    C7    A    
C14   C71   S    
C25   C27   A    
C75   C76   A    
C72   C73   A    
O5    Zn1   S    
C60   H37   S    
O6    Zn2   S    
C43   H14   S    
C16   N2    A    
C36   C38   A    
C80   H54   S    
C1    O1    A    
N4    H15   S    
C29   C31   T    
C2    O2    A    
C30   C32   T    
C11   C13   A    
C28   C53   S    
C66   H42   S    
C68   C69   A    
C62   H39   S    
C4    C42   A    
C52   H31   S    
C69   C70   A    
C50   C51   A    
C17   C19   A    
C67   H43   S    
C27   C47   S    
C18   C20   A    
C55   C56   A    
C9    N3    S    
C11   H9    S    
C79   H53   S    
C23   O7    A    
C8    C10   A    
C63   H40   S    
C6    C42   A    
C56   C57   A    
C65   C66   A    
C53   C54   A    
C47   C48   A    
C51   H30   S    
C16   C59   S    
C67   C68   A    
C17   C21   A    
