data_mof_unit_35402.cif
_audit_creation_date              2012-12-10T17:00:43-0500
_audit_creation_method            fapswitch 2.2
_symmetry_space_group_name_H-M    P1
_symmetry_Int_Tables_number       1
_space_group_crystal_system       triclinic
_cell_length_a                    27.789139
_cell_length_b                    10.893801
_cell_length_c                    9.698966
_cell_angle_alpha                 89.385641
_cell_angle_beta                  89.877217
_cell_angle_gamma                 90.070498
_cell_volume                      2935.98383772

loop_
_atom_site_label
_atom_site_type_symbol
_atom_type_description
_atom_site_fract_x
_atom_site_fract_y
_atom_site_fract_z
_atom_type_partial_charge
C1    C     C_R   0.498437 0.265203 0.500970 0.862847
C2    C     C_R   0.281273 0.429118 0.393872 -0.165492
C3    C     C_R   0.253504 0.495034 0.487038 0.268761
C4    C     C_R   0.101924 0.487460 0.481095 -0.043429
C5    C     C_R   0.127559 0.407523 0.568835 -0.097263
C6    C     C_R   0.102494 0.333523 0.663099 -0.143005
C7    C     C_R   0.127438 0.567124 0.391746 -0.010344
C8    C     C_R   0.354349 0.504916 0.500216 -0.097155
C9    C     C_R   0.645587 0.498806 0.498647 -0.054345
C10   C     C_R   0.974704 0.396809 0.556884 0.058177
C11   C     C_R   0.974919 0.585555 0.415006 0.048847
C12   C     C_R   0.407485 0.503401 0.500377 0.785263
C13   C     C_R   0.949542 0.491993 0.487189 0.072895
C14   C     C_R   0.948207 0.293885 0.603542 -0.123226
C15   C     C_R   0.898152 0.293387 0.601689 -0.140904
C16   C     C_R   0.872856 0.393984 0.548136 -0.026386
C17   C     C_R   0.898490 0.492492 0.488042 -0.045991
C18   C     C_R   0.873062 0.590944 0.427856 -0.020219
C19   C     C_R   0.822575 0.590971 0.432824 0.542863
C20   C     C_R   0.822351 0.396813 0.549118 0.547080
C21   C     C_R   0.721809 0.502946 0.620719 -0.097275
C22   C     C_R   0.671596 0.504233 0.622609 -0.190464
C23   C     C_R   0.498008 0.734693 0.498950 0.826732
C24   C     C_R   0.670744 0.491933 0.373018 -0.197504
C25   C     C_R   0.720885 0.490388 0.371446 -0.093261
C26   C     C_R   0.746645 0.496029 0.495143 0.343031
C27   C     C_R   0.025542 0.404543 0.570302 -0.046614
C28   C     C_R   0.050889 0.489125 0.484153 0.035814
C29   C     C_R   0.025679 0.577137 0.402894 0.066652
C30   C     C_R   0.052371 0.334301 0.668230 0.343898
C31   C     C_R   0.102127 0.648084 0.305999 -0.114526
C32   C     C_R   0.948482 0.684115 0.357062 -0.193911
C33   C     C_R   0.898500 0.687060 0.364526 -0.129684
C34   C     C_R   0.592553 0.499824 0.499791 0.812791
C35   C     C_R   0.052205 0.653578 0.311764 -0.181342
C36   C     C_2   0.474190 0.935685 0.399576 0.120667
C37   C     C_2   0.497740 0.867504 0.495642 -0.322183
C38   C     C_2   0.483520 0.068596 0.392545 -0.167819
C39   C     C_2   0.492156 0.133374 0.506210 -0.354720
C40   C     C_2   0.462091 0.482047 0.925050 0.025487
C41   C     C_2   0.461408 0.507521 0.077120 -0.039800
C42   C     C_R   0.178079 0.408924 0.566098 0.627986
C43   C     C_R   0.177947 0.565307 0.392099 0.597317
C44   C     C_R   0.275595 0.568536 0.586989 0.388508
C45   C     C_R   0.326461 0.574166 0.595722 -0.019569
C46   C     C_R   0.331115 0.434526 0.399842 -0.252866
Cu1   Cu    Cu3+1 0.500010 0.500020 0.638630 1.027728
Cu2   Cu    Cu3+1 0.499990 0.499980 0.361370 0.963950
H1    H     H_    0.351753 0.381540 0.326599 0.165945
H2    H     H_    0.120860 0.708874 0.234832 0.196522
H3    H     H_    0.965616 0.762324 0.308615 0.149959
H4    H     H_    0.651745 0.487349 0.275838 0.175763
H5    H     H_    0.879842 0.764767 0.319091 0.192423
H6    H     H_    0.739801 0.484489 0.274013 0.151446
H7    H     H_    0.035167 0.716704 0.240808 0.151040
H8    H     H_    0.521047 0.909961 0.570991 0.151055
H9    H     H_    0.480665 0.114397 0.292804 0.172443
H10   H     H_    0.264050 0.373186 0.316590 0.168008
H11   H     H_    0.491104 0.090628 0.607793 0.155957
H12   H     H_    0.429086 0.448947 0.879128 0.094080
H13   H     H_    0.427118 0.528357 0.124737 0.140605
H14   H     H_    0.528940 0.457078 0.109386 0.252604
H15   H     H_    0.121921 0.278423 0.738140 0.222569
H16   H     H_    0.653213 0.509736 0.720910 0.191133
H17   H     H_    0.741472 0.507744 0.716783 0.152804
H18   H     H_    0.879393 0.213221 0.641389 0.195882
H19   H     H_    0.965689 0.210162 0.636045 0.198883
N1    N     N_R   0.202058 0.487893 0.479562 -0.448432
N2    N     N_R   0.798305 0.494853 0.492972 -0.468518
N3    N     N_2   0.499480 0.498660 0.846910 -0.002090
N4    N     N_2   0.499460 0.498630 0.153040 -0.250897
O1    O     O_R   0.500010 0.321960 0.617040 -0.579350
O2    O     O_2   0.797454 0.302004 0.604764 -0.526797
O3    O     O_2   0.202817 0.641599 0.307605 -0.517121
O4    O     O_2   0.797917 0.686574 0.378675 -0.526601
O5    O     O_R   0.499990 0.321920 0.382900 -0.582374
O6    O     O_R   0.430270 0.500040 0.617060 -0.599112
O7    O     O_R   0.430260 0.500000 0.382910 -0.601171
O8    O     O_R   0.500010 0.678080 0.617100 -0.529852
O9    O     O_R   0.499990 0.678040 0.382960 -0.564594
O10   O     O_R   0.569740 0.500000 0.617090 -0.529857
O11   O     O_R   0.569730 0.499960 0.382940 -0.578662
O12   O     O_2   0.203116 0.333273 0.650430 -0.515165
Cl1   Cl    Cl    0.238006 0.655804 0.696152 -0.590194
C47   C     C_3   0.439178 0.882719 0.294937 -0.365007
C48   C     C_3   0.391157 0.952530 0.293957 -0.404427
C49   C     C_3   0.353819 0.887771 0.205139 -0.779043
H20   H     H_    0.367200 0.879141 0.097668 0.249766
H21   H     H_    0.345855 0.794911 0.248000 0.258798
H22   H     H_    0.319978 0.941848 0.203779 0.262265
H23   H     H_    0.376968 0.959579 0.400753 0.233329
H24   H     H_    0.396606 0.046993 0.252366 0.224751
H25   H     H_    0.455805 0.888429 0.190733 0.210206
H26   H     H_    0.430644 0.785206 0.317081 0.210562
Cl2   Cl    Cl    0.543951 0.599298 0.902363 -0.523239
Cl3   Cl    Cl    0.027189 0.266494 0.818259 -0.606720
C50   C     C_3   0.350000 0.657871 0.701031 -0.354677
C51   C     C_3   0.370044 0.774261 0.631718 -0.334718
C52   C     C_3   0.395939 0.855482 0.735186 -0.817357
H27   H     H_    0.370764 0.884227 0.817839 0.256471
H28   H     H_    0.426710 0.805296 0.782063 0.271621
H29   H     H_    0.409906 0.938880 0.681712 0.242359
H30   H     H_    0.395664 0.749798 0.548778 0.202132
H31   H     H_    0.339945 0.826989 0.584588 0.243844
H32   H     H_    0.324379 0.686020 0.782338 0.246535
H33   H     H_    0.378272 0.608640 0.759371 0.206214

loop_
_geom_bond_atom_site_label_1
_geom_bond_atom_site_label_2
_ccdc_geom_bond_type
C10   C27   A    
C24   H4    S    
C21   C26   A    
C40   H12   S    
Cu2   O5    S    
C3    N1    S    
C41   H13   S    
C49   H20   S    
C50   C51   S    
C32   H3    S    
C47   C48   S    
C2    C46   A    
C46   H1    S    
C40   N3    D    
C28   C29   A    
C48   H23   S    
C5    C6    A    
C9    C22   A    
C15   C16   A    
C18   C19   A    
Cu2   O7    S    
C8    C45   A    
C30   Cl3   S    
C37   H8    S    
C47   H25   S    
Cu1   Cu2   S    
C43   N1    A    
C12   O7    A    
C20   O2    S    
C14   H19   S    
C34   O10   A    
C7    C43   A    
C23   O9    A    
C8    C12   S    
C41   N4    D    
C50   H32   S    
C43   O3    S    
C21   C22   A    
C27   C30   A    
C42   N1    A    
C4    C7    A    
C4    C28   A    
C33   H5    S    
C3    C44   A    
C1    O1    A    
C7    C31   A    
C35   H7    S    
C25   H6    S    
C10   C14   A    
C48   C49   S    
C16   C17   A    
C25   C26   A    
C23   C37   S    
C15   H18   S    
C6    H15   S    
Cu1   N3    S    
C38   H9    S    
C47   H26   S    
C52   H27   S    
C16   C20   A    
C39   H11   S    
C12   O6    A    
C17   C18   A    
C24   C25   A    
C50   H33   S    
C40   C41   S    
C6    C30   A    
C11   C32   A    
C49   H21   S    
C9    C34   S    
C31   C35   A    
C20   N2    A    
C19   N2    A    
Cu1   O6    S    
C31   H2    S    
C44   C45   A    
C5    C42   A    
C36   C37   D    
C21   H17   S    
C1    O5    A    
C42   O12   S    
C4    C5    A    
C44   Cl1   S    
C10   C13   A    
C2    H10   S    
C9    C24   A    
C36   C47   S    
C29   C35   A    
C13   C17   A    
C32   C33   A    
Cu2   O9    S    
C36   C38   S    
C2    C3    A    
C45   C50   S    
Cu1   O8    S    
C11   C13   A    
C38   C39   D    
C51   H31   S    
C19   O4    S    
Cu2   O11   S    
H14   N4    S    
N3    Cl2   S    
Cu1   O10   S    
C18   C33   A    
C8    C46   A    
Cu1   O1    S    
C1    C39   S    
C22   H16   S    
C52   H29   S    
Cu2   N4    S    
C11   C29   A    
C51   C52   S    
C49   H22   S    
C27   C28   A    
C26   N2    S    
C14   C15   A    
C48   H24   S    
C34   O11   A    
C23   O8    A    
C52   H28   S    
C51   H30   S    
