data_mof_unit_10592.cif
_audit_creation_date              2012-12-10T17:35:49-0500
_audit_creation_method            fapswitch 2.2
_symmetry_space_group_name_H-M    P1
_symmetry_Int_Tables_number       1
_space_group_crystal_system       triclinic
_cell_length_a                    10.490685
_cell_length_b                    12.125277
_cell_length_c                    12.77297
_cell_angle_alpha                 95.400778
_cell_angle_beta                  91.041689
_cell_angle_gamma                 87.011055
_cell_volume                      1615.19601856

loop_
_atom_site_label
_atom_site_type_symbol
_atom_type_description
_atom_site_fract_x
_atom_site_fract_y
_atom_site_fract_z
_atom_type_partial_charge
C1    C     C_R   0.497853 0.523491 0.699929 0.897396
C2    C     C_R   0.593895 0.169280 0.598784 -0.003996
C3    C     C_R   0.537139 0.862762 0.553166 0.059185
C4    C     C_R   0.462860 0.137238 0.446834 0.059184
C5    C     C_R   0.536374 0.979254 0.542192 -0.030786
C6    C     C_R   0.463626 0.020746 0.457808 -0.030786
C7    C     C_R   0.742048 0.500891 0.500655 0.917669
C8    C     C_R   0.257952 0.499109 0.499346 0.917666
C9    C     C_3   0.963643 0.449650 0.581534 -0.000722
C10   C     C_3   0.036357 0.550350 0.418467 -0.000720
C11   C     C_3   0.042641 0.553555 0.590367 -0.232011
C12   C     C_R   0.502147 0.476509 0.300071 0.897395
C13   C     C_3   0.957359 0.446445 0.409633 -0.232010
C14   C     C_3   0.123008 0.497972 0.499193 -0.086319
C15   C     C_3   0.876992 0.502028 0.500807 -0.086319
C16   C     C_3   0.046125 0.393307 0.491423 -0.124618
C17   C     C_3   0.953875 0.606694 0.508577 -0.124617
C18   C     C_R   0.498108 0.460181 0.188070 -0.072145
C19   C     C_R   0.501891 0.539819 0.811929 -0.072146
C20   C     C_R   0.631089 0.587268 0.964490 -0.191222
C21   C     C_R   0.368911 0.412732 0.035510 -0.191222
C22   C     C_R   0.605340 0.593235 0.858989 -0.187127
C23   C     C_R   0.418631 0.483333 0.869741 -0.078149
C24   C     C_R   0.394659 0.406766 0.141011 -0.187129
C25   C     C_2   0.918427 0.394187 0.673009 0.932130
C26   C     C_2   0.081573 0.605813 0.326992 0.932133
C27   C     C_1   0.692079 0.566545 0.181697 0.152488
C28   C     C_1   0.307924 0.433450 0.818302 0.152488
C29   C     C_2   0.409128 0.182638 0.352114 0.943732
C30   C     C_2   0.590870 0.817363 0.647887 0.943731
C31   C     C_1   0.304793 0.975271 0.308442 0.223270
C32   C     C_1   0.695210 0.024728 0.691555 0.223269
C33   C     C_R   0.581370 0.516665 0.130259 -0.078148
C34   C     C_R   0.445910 0.474031 0.976137 0.117553
C35   C     C_R   0.554091 0.525968 0.023863 0.117552
C36   C     C_R   0.394361 0.943959 0.389105 -0.098586
C37   C     C_R   0.605640 0.056041 0.610894 -0.098585
C38   C     C_R   0.406105 0.830720 0.401215 -0.003996
H1    H     H_    0.081725 0.595862 0.664011 0.175550
H2    H     H_    0.355808 0.772180 0.348313 0.162170
H3    H     H_    0.818280 0.408846 0.807126 0.346547
H4    H     H_    0.181721 0.591154 0.192876 0.346547
H5    H     H_    0.423069 0.185612 0.195006 0.341430
H6    H     H_    0.576929 0.814388 0.804994 0.341429
H7    H     H_    0.918275 0.404138 0.335989 0.175551
H8    H     H_    0.087160 0.306701 0.485149 0.211835
H9    H     H_    0.912840 0.693299 0.514851 0.211834
H10   H     H_    0.328763 0.366519 0.187493 0.206706
H11   H     H_    0.671234 0.633483 0.812507 0.206706
H12   H     H_    0.713745 0.628096 0.998019 0.174692
H13   H     H_    0.286254 0.371905 0.001981 0.174692
H14   H     H_    0.644194 0.227819 0.651686 0.162170
N1    N     N_R   0.523490 0.207800 0.519350 -0.151676
N2    N     N_R   0.476510 0.792200 0.480650 -0.151676
N3    N     N_1   0.779994 0.606230 0.222819 -0.166330
N4    N     N_1   0.220011 0.393763 0.777180 -0.166326
N5    N     N_1   0.232599 0.999265 0.243760 -0.138158
N6    N     N_1   0.767405 0.000733 0.756236 -0.138157
O1    O     O_R   0.506270 0.421700 0.658830 -0.623301
O2    O     O_R   0.844053 0.455252 0.749729 -0.820006
O3    O     O_2   0.053662 0.704008 0.320124 -0.613283
O4    O     O_R   0.155945 0.544748 0.250271 -0.820007
O5    O     O_2   0.307014 0.235975 0.355534 -0.630441
O6    O     O_R   0.473082 0.158615 0.256968 -0.793728
O7    O     O_2   0.692983 0.764025 0.644467 -0.630441
O8    O     O_R   0.526917 0.841387 0.743031 -0.793728
O9    O     O_R   0.493730 0.578300 0.341170 -0.623301
O10   O     O_R   0.491200 0.609310 0.646410 -0.605335
O11   O     O_R   0.508800 0.390690 0.353590 -0.605334
O12   O     O_R   0.693580 0.406210 0.506230 -0.631809
O13   O     O_R   0.306420 0.593790 0.493770 -0.631809
O14   O     O_R   0.678510 0.593830 0.493810 -0.584489
O15   O     O_R   0.321490 0.406170 0.506190 -0.584489
O16   O     O_2   0.946341 0.295993 0.679878 -0.613282
Zn1   Zn    Zn3+2 0.510060 0.374730 0.508290 1.001882
Zn2   Zn    Zn3+2 0.489940 0.625270 0.491710 1.001882

loop_
_geom_bond_atom_site_label_1
_geom_bond_atom_site_label_2
_ccdc_geom_bond_type
C13   H7    S    
C12   O11   A    
C29   O5    D    
C5    C37   A    
C4    N1    A    
H6    O8    S    
C32   N6    T    
O14   Zn2   S    
C7    O14   A    
C7    O12   A    
C28   N4    T    
C9    C25   S    
C27   C33   S    
C18   C24   A    
C9    C16   S    
C25   O16   D    
C1    O1    A    
C5    C6    A    
C3    N2    A    
C27   N3    T    
C10   C17   S    
C1    O10   A    
C34   C35   A    
C20   H12   S    
C20   C35   A    
C25   O2    S    
H4    O4    S    
C4    C29   S    
C10   C26   S    
C7    C15   S    
C29   O6    S    
O15   Zn1   S    
N1    Zn1   S    
H5    O6    S    
C12   O9    A    
C1    C19   S    
C24   H10   S    
C19   C22   A    
C4    C6    A    
C10   C14   S    
C16   H8    S    
C11   C14   S    
C21   C34   A    
C32   C37   S    
C2    N1    A    
C3    C30   S    
C19   C23   A    
C38   N2    A    
C23   C34   A    
C23   C28   S    
C11   H1    S    
C9    C11   S    
C30   O8    S    
C2    H14   S    
C22   H11   S    
N2    Zn2   S    
C20   C22   A    
C13   C15   S    
C14   C16   S    
C13   C16   S    
O1    Zn1   S    
C21   H13   S    
C15   C17   S    
C11   C17   S    
C8    O13   A    
C8    C14   S    
C26   O3    D    
C17   H9    S    
H3    O2    S    
C3    C5    A    
C10   C13   S    
O10   Zn2   S    
C31   N5    T    
C36   C38   A    
C26   O4    S    
C38   H2    S    
C2    C37   A    
O13   Zn2   S    
C8    O15   A    
C33   C35   A    
C6    C36   A    
O11   Zn1   S    
C9    C15   S    
C18   C33   A    
C30   O7    D    
C21   C24   A    
C12   C18   S    
O12   Zn1   S    
C31   C36   S    
O9    Zn2   S    
