data_mof_unit_46787.cif
_audit_creation_date              2012-12-11T17:14:02-0500
_audit_creation_method            fapswitch 2.2
_symmetry_space_group_name_H-M    P1
_symmetry_Int_Tables_number       1
_space_group_crystal_system       triclinic
_cell_length_a                    18.222087
_cell_length_b                    7.092598
_cell_length_c                    13.012312
_cell_angle_alpha                 90.291817
_cell_angle_beta                  72.013304
_cell_angle_gamma                 89.931712
_cell_volume                      1599.51950293

loop_
_atom_site_label
_atom_site_type_symbol
_atom_type_description
_atom_site_fract_x
_atom_site_fract_y
_atom_site_fract_z
_atom_type_partial_charge
O1    O     O_R   0.453880 0.506200 0.150010 -0.538346
O2    O     O_R   0.546120 0.006200 0.849990 -0.537998
O3    O     O_R   0.604080 0.177770 0.007280 -0.539816
O4    O     O_R   0.395920 0.677770 0.992720 -0.540125
C1    C     C_R   0.635980 0.344440 0.001767 0.730909
C2    C     C_R   0.364018 0.844577 0.998223 0.730969
O5    O     O_R   0.458010 0.176640 0.159130 -0.541129
O6    O     O_R   0.541990 0.676640 0.840870 -0.541432
O7    O     O_R   0.399010 0.004010 0.002930 -0.535665
O8    O     O_R   0.600990 0.504010 0.997070 -0.535985
C3    C     C_R   0.443091 0.345908 0.201743 0.690176
C4    C     C_R   0.556932 0.844556 0.798205 0.690508
O9    O     O_3   0.480810 0.338440 0.948570 -0.374529
O10   O     O_3   0.519190 0.838440 0.051430 -0.375062
V1    V     V_3+5 0.503560 0.064490 0.009540 1.426235
V2    V     V_3+5 0.496440 0.564490 0.990460 1.425003
C5    C     C_R   0.583881 0.821573 0.500900 -0.164217
C6    C     C_R   0.415556 0.413025 0.497323 -0.163748
H1    H     H_    0.486329 0.814016 0.644392 0.106012
H2    H     H_    0.513179 0.409549 0.353765 0.106858
H3    H     H_    0.663326 0.811659 0.292791 0.123579
H4    H     H_    0.335874 0.443028 0.704770 0.123007
H5    H     H_    0.548245 0.805012 0.448406 0.120965
H6    H     H_    0.450977 0.441014 0.549010 0.120901
C7    C     C_R   0.593061 0.849575 0.681358 -0.029272
C8    C     C_R   0.406799 0.357602 0.318436 -0.029399
C9    C     C_R   0.955885 0.879071 0.385408 0.194369
C10   C     C_R   0.044352 0.324914 0.615589 0.192752
C11   C     C_R   0.923021 0.885589 0.497625 -0.156268
C12   C     C_R   0.077266 0.309605 0.503644 -0.162289
C13   C     C_R   0.843358 0.877491 0.544829 -0.199983
C14   C     C_R   0.156799 0.321547 0.456040 -0.204169
C15   C     C_R   0.793158 0.861655 0.481099 0.079147
C16   C     C_R   0.206792 0.350832 0.519029 0.078567
C17   C     C_R   0.826446 0.853112 0.366654 0.017394
C18   C     C_R   0.173388 0.370150 0.633031 0.016595
C19   C     C_R   0.711078 0.853911 0.527083 0.083672
C20   C     C_R   0.288756 0.362330 0.472679 0.083450
C21   C     C_R   0.664489 0.834253 0.457790 0.138164
C22   C     C_R   0.335072 0.397209 0.540976 0.137875
C23   C     C_R   0.698515 0.826110 0.346040 -0.203730
C24   C     C_R   0.300902 0.416765 0.652256 -0.202938
C25   C     C_R   0.778024 0.836150 0.301053 -0.185979
C26   C     C_R   0.221540 0.402594 0.697733 -0.185981
C27   C     C_R   0.673317 0.863616 0.639646 -0.212929
C28   C     C_R   0.326669 0.340954 0.360694 -0.214340
C29   C     C_R   0.548460 0.827451 0.612168 -0.178810
C30   C     C_R   0.451138 0.394599 0.386505 -0.178660
C31   C     C_R   0.907673 0.863326 0.319653 -0.093243
C32   C     C_R   0.092309 0.355939 0.680507 -0.089785
H7    H     H_    0.704311 0.878788 0.697551 0.098112
H8    H     H_    0.295914 0.312990 0.303632 0.098003
H9    H     H_    0.823195 0.883621 0.631722 0.124165
H10   H     H_    0.177017 0.307953 0.369401 0.127852
H11   H     H_    0.959352 0.897761 0.549361 0.128291
H12   H     H_    0.041097 0.286912 0.452481 0.141101
H13   H     H_    0.801174 0.829420 0.213851 0.120618
H14   H     H_    0.198274 0.418309 0.784569 0.120421
C33   C     C_1   0.216290 0.858638 0.000373 -0.180245
C34   C     C_1   0.783708 0.358848 0.999624 -0.178382
C35   C     C_1   0.283589 0.852648 0.999160 -0.187323
C36   C     C_1   0.716412 0.352491 0.000839 -0.186741
O11   O     O_R   0.899030 0.205490 0.002790 -0.538617
O12   O     O_R   0.100970 0.705490 0.997210 -0.540073
O13   O     O_R   0.042000 0.536370 0.840840 -0.537902
O14   O     O_R   0.958000 0.036370 0.159160 -0.533242
C37   C     C_R   0.057201 0.367525 0.798204 0.725573
C38   C     C_R   0.942660 0.868840 0.201829 0.725595
O15   O     O_R   0.895930 0.535070 0.992690 -0.538726
O16   O     O_R   0.104070 0.035070 0.007310 -0.536038
O17   O     O_R   0.953870 0.707520 0.150040 -0.546101
O18   O     O_R   0.046130 0.207520 0.849960 -0.545324
C39   C     C_R   0.864144 0.366818 0.998648 0.742384
C40   C     C_R   0.135859 0.866662 0.001357 0.740795
O19   O     O_3   0.019200 0.374340 0.051340 -0.375830
O20   O     O_3   0.980800 0.874340 0.948660 -0.378020
V3    V     V_3+5 0.996440 0.648350 0.990470 1.432123
V4    V     V_3+5 0.003560 0.148350 0.009530 1.441041
N1    N     N_3   0.038216 0.890060 0.337309 -0.684315
H15   H     H_    0.065199 0.910541 0.396696 0.231145
H16   H     H_    0.057243 0.759324 0.301377 0.219008
N2    N     N_3   0.962148 0.310708 0.664073 -0.682489
H17   H     H_    0.934701 0.301178 0.604531 0.233634
H18   H     H_    0.951025 0.184139 0.706894 0.218225

loop_
_geom_bond_atom_site_label_1
_geom_bond_atom_site_label_2
_ccdc_geom_bond_type
O14   C38   A    
C31   C38   S    
C9    C11   A    
O12   V3    S    
O15   V3    S    
O1    C3    A    
O2    C4    A    
C2    O7    A    
C18   C32   A    
C21   C23   A    
O5    C3    A    
C5    H5    S    
C6    H6    S    
C2    C35   S    
O20   V4    S    
C9    N1    S    
H1    C29   S    
O16   V4    S    
C27   H7    S    
C28   H8    S    
C34   C39   S    
C34   C36   T    
C37   O18   A    
C5    C21   A    
C6    C22   A    
O18   V4    S    
C10   C32   A    
C26   H14   S    
O13   C37   A    
C17   C31   A    
C13   C15   A    
O15   C39   A    
C12   C14   A    
C17   C25   A    
C32   C37   S    
C7    C29   A    
C8    C30   A    
C22   C24   A    
O6    V2    S    
C23   C25   A    
C24   C26   A    
C14   H10   S    
O14   V4    S    
C33   C35   T    
O13   V3    S    
C10   N2    S    
O20   V3    S    
O4    C2    A    
N1    H16   S    
C8    C28   A    
O11   C39   A    
C3    C8    S    
C12   H12   S    
C15   C19   A    
C14   C16   A    
O4    V2    S    
O16   C40   A    
O6    C4    A    
O1    V2    S    
C13   H9    S    
O2    V1    S    
O19   V3    S    
C33   C40   S    
H2    C30   S    
H3    C23   S    
N2    H18   S    
C18   C26   A    
C19   C27   A    
C7    C27   A    
O17   V3    S    
O3    V1    S    
C16   C20   A    
C5    C29   A    
O3    C1    A    
C6    C30   A    
C11   H11   S    
C4    C7    S    
C10   C12   A    
O7    V1    S    
C1    O8    A    
C19   C21   A    
O8    V2    S    
C20   C22   A    
H4    C24   S    
C38   O17   A    
O5    V1    S    
C15   C17   A    
C1    C36   S    
C16   C18   A    
O19   V4    S    
C20   C28   A    
C25   H13   S    
N1    H15   S    
C11   C13   A    
N2    H17   S    
O9    V2    S    
O12   C40   A    
O10   V1    S    
C9    C31   A    
O11   V4    S    
