data_mof_unit_32538.cif
_audit_creation_date              2012-10-26T19:15:05-0400
_audit_creation_method            fapswitch 2.2
_symmetry_space_group_name_H-M    P1
_symmetry_Int_Tables_number       1
_space_group_crystal_system       triclinic
_cell_length_a                    10.807373
_cell_length_b                    10.826019
_cell_length_c                    9.540838
_cell_angle_alpha                 89.790432
_cell_angle_beta                  90.037229
_cell_angle_gamma                 90.086934
_cell_volume                      1116.27693775

loop_
_atom_site_label
_atom_site_type_symbol
_atom_type_description
_atom_site_fract_x
_atom_site_fract_y
_atom_site_fract_z
_atom_type_partial_charge
C1    C     C_R   0.497949 0.262232 0.500288 0.571190
C2    C     C_R   0.488621 0.935326 0.625360 0.005321
C3    C     C_3   0.578372 0.926788 0.743831 -0.219739
C4    C     C_R   0.262463 0.504781 0.499878 0.572734
C5    C     C_3   0.576704 0.067032 0.746682 0.120878
C6    C     C_R   0.566785 0.586198 0.073246 0.162690
C7    C     C_R   0.423689 0.424136 0.074723 0.059599
C8    C     C_R   0.423203 0.424652 0.925736 0.058189
C9    C     C_R   0.566726 0.586218 0.925882 0.152467
C10   C     C_3   0.703065 0.606061 0.919568 -0.264227
C11   C     C_3   0.703338 0.605429 0.078480 -0.270383
C12   C     C_R   0.937231 0.470409 0.617705 0.011795
C13   C     C_R   0.497947 0.737633 0.499697 0.552613
C14   C     C_R   0.737550 0.501751 0.500157 0.584248
C15   C     C_R   0.064286 0.474461 0.618098 -0.050098
C16   C     C_R   0.129255 0.517319 0.501318 0.030943
C17   C     C_R   0.062903 0.575508 0.391491 0.220756
C18   C     C_R   0.933573 0.572315 0.392766 -0.111224
C19   C     C_R   0.870546 0.512032 0.501885 0.006816
C20   C     C_3   0.934678 0.348836 0.693126 0.117314
C21   C     C_3   0.075286 0.354733 0.695342 -0.207919
C22   C     C_R   0.487419 0.062554 0.626695 0.071326
C23   C     C_R   0.486082 0.128982 0.500706 -0.005501
C24   C     C_R   0.467050 0.064830 0.374444 -0.131396
C25   C     C_R   0.466874 0.936036 0.373818 -0.119475
C26   C     C_R   0.486122 0.870606 0.499390 0.003875
Cl1   Cl    Cl    0.135851 0.651939 0.250415 -0.579074
Cl2   Cl    Cl    0.506979 0.125574 0.902191 -0.639430
Cl3   Cl    Cl    0.877584 0.225225 0.587119 -0.617152
Cu1   Cu    Cu3+1 0.499990 0.499980 0.640670 0.996213
Cu2   Cu    Cu3+1 0.500010 0.500020 0.359330 1.018036
H1    H     H_    0.669129 0.888221 0.711021 0.116035
H2    H     H_    0.892007 0.354623 0.798812 0.138635
H3    H     H_    0.113743 0.367661 0.802392 0.123262
H4    H     H_    0.122007 0.282128 0.632460 0.183534
H5    H     H_    0.457953 0.113505 0.275577 0.180404
H6    H     H_    0.457590 0.888428 0.274690 0.173281
H7    H     H_    0.536863 0.881817 0.837666 0.186262
H8    H     H_    0.666635 0.110518 0.719474 0.195040
H9    H     H_    0.364109 0.360641 0.130823 0.139208
H10   H     H_    0.362860 0.361978 0.869954 0.151753
H11   H     H_    0.753507 0.526262 0.874514 0.159609
H12   H     H_    0.727458 0.697370 0.873651 0.132909
H13   H     H_    0.753480 0.524725 0.122893 0.167130
H14   H     H_    0.728295 0.696334 0.124409 0.141561
H15   H     H_    0.882896 0.614628 0.307474 0.145783
N1    N     N_R   0.500790 0.500930 0.147930 -0.231829
N2    N     N_R   0.500790 0.500890 0.852020 -0.234668
O1    O     O_R   0.500000 0.319640 0.618810 -0.471513
O2    O     O_R   0.500010 0.319680 0.381230 -0.506768
O3    O     O_R   0.319650 0.499970 0.618810 -0.518178
O4    O     O_R   0.319660 0.500010 0.381230 -0.457300
O5    O     O_R   0.499990 0.680320 0.618770 -0.506216
O6    O     O_R   0.500000 0.680360 0.381190 -0.498186
O7    O     O_R   0.680340 0.499990 0.618770 -0.502080
O8    O     O_R   0.680350 0.500030 0.381190 -0.509057

loop_
_geom_bond_atom_site_label_1
_geom_bond_atom_site_label_2
_ccdc_geom_bond_type
C2    C22   A    
C14   O8    A    
C23   C24   A    
C8    N2    A    
C4    C16   S    
C21   H4    S    
C1    O2    A    
Cu2   O8    S    
C10   H11   S    
C5    Cl2   S    
C9    C10   S    
Cu1   O3    S    
C13   O5    A    
C12   C15   A    
C15   C21   S    
Cu2   O4    S    
C7    H9    S    
C10   C11   S    
C20   C21   S    
C12   C20   S    
C6    C9    A    
C14   O7    A    
C25   C26   A    
C7    C8    A    
C2    C26   A    
Cu2   N1    S    
C8    H10   S    
Cu1   Cu2   S    
C24   H5    S    
C4    O4    A    
C20   H2    S    
C18   H15   S    
C12   C19   A    
Cu1   N2    S    
Cu1   O1    S    
C1    C23   S    
C2    C3    S    
C20   Cl3   S    
C5    H8    S    
Cu2   O6    S    
C3    H1    S    
Cu1   O5    S    
C13   C26   S    
C11   H14   S    
C6    N1    A    
C4    O3    A    
C15   C16   A    
C17   Cl1   S    
C11   H13   S    
C24   C25   A    
C9    N2    A    
C17   C18   A    
C13   O6    A    
Cu1   O7    S    
C6    C11   S    
C22   C23   A    
C18   C19   A    
C21   H3    S    
Cu2   O2    S    
C25   H6    S    
C10   H12   S    
C1    O1    A    
C14   C19   S    
C5    C22   S    
C3    H7    S    
C16   C17   A    
C3    C5    S    
C7    N1    A    
