data_mof_unit_10438.cif
_audit_creation_date              2013-03-05T15:52:18-0500
_audit_creation_method            fapswitch 2.2
_symmetry_space_group_name_H-M    P1
_symmetry_Int_Tables_number       1
_space_group_crystal_system       triclinic
_cell_length_a                    14.913033
_cell_length_b                    15.321503
_cell_length_c                    9.890596
_cell_angle_alpha                 90.129047
_cell_angle_beta                  88.742964
_cell_angle_gamma                 90.320264
_cell_volume                      2259.31878079

loop_
_atom_site_label
_atom_site_type_symbol
_atom_site_description
_atom_site_fract_x
_atom_site_fract_y
_atom_site_fract_z
_atom_type_partial_charge
O1    O     O_R   0.408390 0.908380 0.614690 -0.666099
O2    O     O_R   0.408390 0.091620 0.614690 -0.664185
O3    O     O_R   0.908390 0.408380 0.614690 -0.646113
O4    O     O_R   0.908390 0.591620 0.614690 -0.669807
O5    O     O_R   0.408370 0.908380 0.385360 -0.630854
O6    O     O_R   0.408370 0.091620 0.385360 -0.627178
O7    O     O_R   0.908370 0.408380 0.385360 -0.622066
O8    O     O_R   0.908370 0.591620 0.385360 -0.636444
C1    C     C_R   0.382231 0.876830 0.501829 0.879055
C2    C     C_R   0.382968 0.123418 0.501941 0.940728
C3    C     C_R   0.881077 0.379520 0.500845 0.861976
C4    C     C_R   0.882771 0.623395 0.502034 0.871824
Zn1   Zn    Zn3+2 0.500010 0.000000 0.653130 0.926321
Zn2   Zn    Zn3+2 0.000010 0.500000 0.653130 0.928909
Zn3   Zn    Zn3+2 0.499980 0.000000 0.346870 1.004642
Zn4   Zn    Zn3+2 0.999980 0.500000 0.346870 1.024575
O9    O     O_R   0.591620 0.091610 0.614640 -0.619852
O10   O     O_R   0.591620 0.908390 0.614640 -0.635209
O11   O     O_R   0.091620 0.591610 0.614640 -0.622778
O12   O     O_R   0.091620 0.408390 0.614640 -0.620316
O13   O     O_R   0.591610 0.091610 0.385310 -0.588070
O14   O     O_R   0.591610 0.908390 0.385310 -0.562414
O15   O     O_R   0.091610 0.591610 0.385310 -0.558640
O16   O     O_R   0.091610 0.408390 0.385310 -0.556432
C5    C     C_R   0.618286 0.120984 0.499074 0.945952
C6    C     C_R   0.610739 0.872454 0.498963 0.882760
C7    C     C_R   0.108908 0.628587 0.499245 0.921533
C8    C     C_R   0.112121 0.373338 0.499126 0.915129
H1    H     H_    0.313521 0.195719 0.287177 0.202071
H2    H     H_    0.308878 0.807513 0.286896 0.203705
H3    H     H_    0.815204 0.697602 0.287710 0.206247
H4    H     H_    0.710648 0.404533 0.483977 0.170223
C9    C     C_R   0.310221 0.206232 0.759833 -0.144970
C10   C     C_R   0.305131 0.797033 0.760165 -0.171431
C11   C     C_R   0.805610 0.702626 0.760739 -0.186339
C12   C     C_R   0.934012 0.198922 0.520475 -0.128595
H5    H     H_    0.380151 0.192508 0.774907 0.185982
H6    H     H_    0.375194 0.810272 0.776189 0.170417
H7    H     H_    0.875231 0.688685 0.777855 0.169087
H8    H     H_    0.986766 0.247069 0.521350 0.111221
C13   C     C_R   0.256614 0.215353 0.876148 -0.090135
C14   C     C_R   0.250948 0.788072 0.876046 -0.082753
C15   C     C_R   0.750566 0.710985 0.875748 -0.090766
C16   C     C_R   0.957758 0.111250 0.529042 -0.128259
H9    H     H_    0.284339 0.202887 0.974424 0.186859
H10   H     H_    0.278595 0.800415 0.974575 0.187179
H11   H     H_    0.777007 0.697666 0.974594 0.185740
H12   H     H_    0.027595 0.093347 0.536829 0.137796
C17   C     C_R   0.661256 0.734160 0.862861 -0.096787
C18   C     C_R   0.891632 0.046821 0.527320 -0.123904
C19   C     C_R   0.167000 0.237894 0.865221 -0.097823
C20   C     C_R   0.161066 0.765501 0.864494 -0.102288
H13   H     H_    0.617163 0.737048 0.950945 0.204316
H14   H     H_    0.910015 0.978708 0.533766 0.143252
H15   H     H_    0.123863 0.241106 0.954297 0.208253
H16   H     H_    0.117750 0.761943 0.953405 0.205169
C21   C     C_R   0.629663 0.757261 0.736631 -0.136469
C22   C     C_R   0.801720 0.070004 0.516746 -0.142508
C23   C     C_R   0.133817 0.260009 0.739565 -0.161062
C24   C     C_R   0.127949 0.743554 0.738424 -0.157167
H17   H     H_    0.560032 0.776096 0.730012 0.154763
H18   H     H_    0.752441 0.017929 0.514809 0.132191
H19   H     H_    0.064022 0.278426 0.735012 0.162624
H20   H     H_    0.058166 0.724266 0.732580 0.148926
C25   C     C_R   0.687156 0.755333 0.620831 0.065942
C26   C     C_R   0.776667 0.158888 0.508243 0.046494
C27   C     C_R   0.189917 0.257408 0.622193 0.050577
C28   C     C_R   0.184345 0.746725 0.621593 0.062427
C29   C     C_R   0.273826 0.217797 0.629721 0.088973
C30   C     C_R   0.269060 0.785632 0.629620 0.095465
C31   C     C_R   0.771053 0.715642 0.629731 0.091291
C32   C     C_R   0.843331 0.223575 0.510702 0.103101
C33   C     C_R   0.316310 0.191207 0.506518 -0.138769
C34   C     C_R   0.312745 0.811023 0.506367 -0.172078
C35   C     C_R   0.815365 0.690690 0.506910 -0.174740
C36   C     C_R   0.817019 0.311380 0.502490 -0.131881
C37   C     C_R   0.282995 0.217091 0.382008 -0.240406
C38   C     C_R   0.278042 0.786429 0.381693 -0.277090
C39   C     C_R   0.783348 0.717784 0.382211 -0.281160
C40   C     C_R   0.728090 0.336047 0.491611 -0.279462
C41   C     C_R   0.708525 0.769080 0.375662 0.325315
C42   C     C_R   0.661793 0.273280 0.487032 0.306925
C43   C     C_R   0.208506 0.268783 0.376262 0.323013
C44   C     C_R   0.202122 0.735902 0.375834 0.330552
C45   C     C_R   0.664458 0.794022 0.496906 -0.248644
C46   C     C_R   0.686648 0.185136 0.496409 -0.228019
C47   C     C_R   0.166033 0.295094 0.497903 -0.268203
C48   C     C_R   0.160139 0.708990 0.497524 -0.258902
H21   H     H_    0.640408 0.998530 0.120874 0.172153
H22   H     H_    0.140418 0.501935 0.120879 0.195235
C49   C     C_R   0.335679 0.000335 0.145061 -0.174212
C50   C     C_R   0.835693 0.498187 0.145025 -0.147502
H23   H     H_    0.329440 0.999602 0.252303 0.201424
H24   H     H_    0.829441 0.499233 0.252272 0.202254
C51   C     C_R   0.255063 0.000993 0.077009 -0.202026
C52   C     C_R   0.755090 0.496204 0.076930 -0.183540
H25   H     H_    0.191980 0.001068 0.133336 0.170073
H26   H     H_    0.692005 0.495685 0.133267 0.179537
C53   C     C_R   0.255345 0.001272 0.937144 -0.188958
C54   C     C_R   0.755377 0.495300 0.937031 -0.175634
H27   H     H_    0.192523 0.001555 0.884298 0.164001
H28   H     H_    0.692546 0.494429 0.884198 0.176827
C55   C     C_R   0.336255 0.000770 0.864574 -0.178830
C56   C     C_R   0.836269 0.497035 0.864461 -0.152501
H29   H     H_    0.331041 0.000294 0.757486 0.213828
H30   H     H_    0.831036 0.498341 0.757399 0.213942
C57   C     C_R   0.419196 0.000443 0.930112 0.137523
C58   C     C_R   0.919206 0.498642 0.930071 0.137835
C59   C     C_R   0.419109 0.000331 0.074827 0.176743
C60   C     C_R   0.919119 0.498922 0.074804 0.166762
N1    N     N_R   0.498810 0.000000 0.142780 -0.121741
N2    N     N_R   0.998810 0.500000 0.142780 -0.124736
C61   C     C_R   0.577306 0.999163 0.068999 -0.028263
C62   C     C_R   0.077315 0.501093 0.069006 0.031913
H31   H     H_    0.640368 0.998275 0.869664 0.162722
H32   H     H_    0.140389 0.502155 0.869709 0.178153
C63   C     C_R   0.577269 0.999066 0.925735 -0.098344
C64   C     C_R   0.077281 0.501195 0.925752 -0.099198
N3    N     N_R   0.498740 0.000000 0.857170 -0.133930
N4    N     N_R   0.998740 0.500000 0.857170 -0.140219
N5    N     N_R   0.676713 0.792633 0.244930 0.208251
O17   O     O_R   0.594804 0.773680 0.212232 -0.408541
O18   O     O_R   0.732070 0.823983 0.153641 -0.448097
N6    N     N_R   0.570045 0.299841 0.473299 0.194442
O19   O     O_R   0.519507 0.262369 0.384460 -0.391958
O20   O     O_R   0.541437 0.370414 0.533270 -0.385119
N7    N     N_R   0.175377 0.291394 0.246023 0.204781
O21   O     O_R   0.093397 0.271466 0.214984 -0.425349
O22   O     O_R   0.229355 0.324321 0.154251 -0.424652
N8    N     N_R   0.168109 0.713530 0.245678 0.205385
O23   O     O_R   0.085067 0.730023 0.217496 -0.426012
O24   O     O_R   0.221413 0.681385 0.152628 -0.436851

loop_
_geom_bond_atom_site_label_1
_geom_bond_atom_site_label_2
_geom_bond_distance
_ccdc_geom_bond_type
C22   H18   1.082134 S    
C43   C47   1.406561 A    
C58   N4    1.374562 A    
N8    O24   1.300654 A    
C25   C45   1.411380 A    
O10   C6    1.295389 A    
C50   C52   1.390832 A    
C32   C36   1.406482 A    
C56   H30   1.063730 S    
O7    C3    1.282851 A    
C18   H14   1.082843 S    
Zn1   O10   1.994415 S    
C26   C46   1.410945 A    
C3    C36   1.411043 S    
C63   N3    1.366262 A    
C2    C33   1.441647 S    
C51   C53   1.383275 A    
C49   H23   1.062804 S    
C37   C43   1.370137 A    
C12   C32   1.411529 A    
C54   C56   1.390287 A    
C17   C21   1.391277 A    
C14   H10   1.082282 S    
C57   N3    1.374845 A    
O2    Zn1   2.007133 S    
C20   C24   1.391054 A    
C23   C27   1.416586 A    
O6    Zn3   1.994524 S    
C22   C26   1.417335 A    
Zn3   O14   2.007128 S    
C26   C32   1.400430 A    
C52   H26   1.082851 S    
H31   C63   1.081833 S    
C10   C14   1.394354 A    
C30   C34   1.423482 A    
C29   C33   1.420921 A    
O15   C7    1.290593 A    
O4    C4    1.283630 A    
O11   C7    1.295548 A    
C10   C30   1.419649 A    
C9    C29   1.419430 A    
C11   C31   1.419835 A    
O8    Zn4   1.994524 S    
C57   C59   1.431299 A    
C42   N6    1.439015 S    
N2    C62   1.365903 A    
Zn1   N3    2.017751 S    
C60   N2    1.378198 A    
H21   C61   1.081753 S    
O5    Zn3   1.984959 S    
C18   C22   1.395225 A    
Zn3   N1    2.019030 S    
C12   H8    1.075638 S    
O1    C1    1.283141 A    
C40   C42   1.376798 A    
C53   C55   1.390408 A    
C43   N7    1.433623 S    
C39   C41   1.371207 A    
C15   C17   1.388956 A    
O12   C8    1.292649 A    
C25   C31   1.398766 A    
C38   C44   1.370188 A    
C9    H5    1.078632 S    
C41   N5    1.434611 S    
C27   C29   1.397324 A    
C44   C48   1.406031 A    
C11   H7    1.078249 S    
N7    O22   1.300711 A    
O5    C1    1.301269 A    
Zn2   O12   1.994415 S    
H4    C40   1.085663 S    
O8    C4    1.301782 A    
C8    C47   1.447053 S    
C50   H24   1.062882 S    
H1    C37   1.084322 S    
N1    C61   1.365901 A    
C21   H17   1.082712 S    
N5    O17   1.301518 A    
C62   C64   1.416884 A    
O3    Zn2   1.995218 S    
C61   C63   1.416970 A    
C28   C30   1.397670 A    
O7    Zn4   1.984959 S    
C53   H27   1.082813 S    
Zn4   O15   1.995211 S    
Zn2   N4    2.017751 S    
C34   C38   1.397887 A    
C28   C48   1.408654 A    
C55   H29   1.063725 S    
C12   C16   1.394309 A    
O1    Zn1   1.995218 S    
C1    C34   1.441844 S    
N7    O21   1.301542 A    
O2    C2    1.283630 A    
C56   C58   1.409350 A    
C11   C15   1.394166 A    
Zn4   N2    2.019030 S    
O16   C8    1.291855 A    
N6    O20   1.301616 A    
C54   H28   1.082828 S    
C16   C18   1.391766 A    
O13   C5    1.281492 A    
C33   C37   1.397110 A    
C10   H6    1.078302 S    
C23   H19   1.081860 S    
Zn2   O11   1.984850 S    
C36   C40   1.387540 A    
C21   C25   1.415923 A    
O6    C2    1.300295 A    
C51   H25   1.082778 S    
H3    C39   1.084336 S    
C27   C47   1.412856 A    
Zn1   O9    1.984850 S    
C24   H20   1.082967 S    
C9    C13   1.393665 A    
C49   C59   1.411605 A    
C59   N1    1.378264 A    
N8    O23   1.301595 A    
O9    C5    1.283573 A    
C42   C46   1.406230 A    
C31   C35   1.422683 A    
C50   C60   1.411504 A    
C58   C60   1.431465 A    
C35   C39   1.397071 A    
C6    C45   1.447837 S    
C17   H13   1.080902 S    
C52   C54   1.383635 A    
C44   N8    1.434121 S    
C5    C46   1.412044 S    
H32   C64   1.081753 S    
C19   H15   1.080613 S    
H22   C62   1.081666 S    
O4    Zn2   2.007133 S    
C7    C48   1.445872 S    
C64   N4    1.366352 A    
N5    O18   1.300877 A    
O3    C3    1.282641 A    
C49   C51   1.390745 A    
H2    C38   1.084292 S    
C20   H16   1.080951 S    
Zn3   O13   1.995211 S    
C19   C23   1.391053 A    
C24   C28   1.414964 A    
Zn4   O16   2.007128 S    
O14   C6    1.291022 A    
C4    C35   1.443990 S    
C13   H9    1.082398 S    
C55   C57   1.409044 A    
C15   H11   1.082414 S    
C13   C19   1.388749 A    
C41   C45   1.407868 A    
C16   H12   1.082888 S    
C14   C20   1.389497 A    
N6    O19   1.300635 A    
