data_mof_unit_61020.cif
_audit_creation_date              2012-12-10T19:30:53-0500
_audit_creation_method            fapswitch 2.2
_symmetry_space_group_name_H-M    P1
_symmetry_Int_Tables_number       1
_space_group_crystal_system       triclinic
_cell_length_a                    17.723275
_cell_length_b                    16.534717
_cell_length_c                    23.545007
_cell_angle_alpha                 90.013159
_cell_angle_beta                  92.131768
_cell_angle_gamma                 90.00048
_cell_volume                      6895.07326727

loop_
_atom_site_label
_atom_site_type_symbol
_atom_type_description
_atom_site_fract_x
_atom_site_fract_y
_atom_site_fract_z
_atom_type_partial_charge
C1    C     C_R   0.355321 0.500000 0.500028 0.833035
C2    C     C_R   0.644679 0.500000 0.499972 0.833034
C3    C     C_R   0.500797 0.573161 0.238875 -0.087977
C4    C     C_R   0.499197 0.426838 0.761124 -0.087978
C5    C     C_R   0.500581 0.573297 0.298079 -0.176706
C6    C     C_R   0.499414 0.426702 0.701920 -0.176704
C7    C     C_R   0.500347 0.499951 0.328260 -0.051424
C8    C     C_R   0.499652 0.500049 0.671740 -0.051424
C9    C     C_R   0.500604 0.426555 0.298115 -0.175332
C10   C     C_R   0.499400 0.573445 0.701885 -0.175329
C11   C     C_R   0.500812 0.426591 0.238914 -0.086194
C12   C     C_R   0.499192 0.573410 0.761086 -0.086199
C13   C     C_R   0.500880 0.499849 0.209099 0.330943
C14   C     C_R   0.499118 0.500151 0.790901 0.330946
C15   C     C_R   0.846357 0.573308 0.499793 -0.135104
C16   C     C_R   0.153643 0.426691 0.500209 -0.135104
C17   C     C_R   0.153645 0.573308 0.500214 -0.134124
C18   C     C_R   0.846355 0.426692 0.499788 -0.134123
C19   C     C_R   0.767705 0.573405 0.499734 -0.149897
C20   C     C_R   0.232295 0.426595 0.500267 -0.149898
C21   C     C_R   0.232296 0.573404 0.500271 -0.148073
C22   C     C_R   0.767704 0.426595 0.499730 -0.148074
C23   C     C_R   0.727661 0.500000 0.499829 -0.045467
C24   C     C_R   0.272338 0.499999 0.500171 -0.045467
C25   C     C_R   0.885574 0.500000 0.499862 0.133264
C26   C     C_R   0.114426 0.500000 0.500141 0.133264
C27   C     C_R   0.500027 0.499990 0.390791 0.843932
C28   C     C_R   0.499973 0.500010 0.609209 0.843931
C29   C     C_1   0.966169 0.500000 0.499959 -0.032149
C30   C     C_1   0.033831 0.500000 0.500044 -0.032149
C31   C     C_R   0.548517 0.829954 0.536538 -0.269566
C32   C     C_R   0.451483 0.170046 0.463461 -0.269566
C33   C     C_R   0.451484 0.829931 0.463464 -0.269856
C34   C     C_R   0.548516 0.170069 0.536536 -0.269856
C35   C     C_R   0.548119 0.744497 0.536239 0.399134
C36   C     C_R   0.451881 0.255503 0.463761 0.399134
C37   C     C_R   0.451879 0.744474 0.463763 0.398644
C38   C     C_R   0.548120 0.255526 0.536237 0.398644
C39   C     C_R   0.500001 0.873778 0.500001 0.040148
C40   C     C_R   0.499999 0.126222 0.499999 0.040148
C41   C     C_1   0.500001 0.962915 0.500000 0.017906
C42   C     C_1   0.499999 0.037085 0.499999 0.017906
C43   C     C_R   0.561657 0.474231 0.881863 0.567709
C44   C     C_R   0.438342 0.525768 0.118137 0.567710
C45   C     C_R   0.435903 0.526262 0.878357 0.572635
C46   C     C_R   0.564095 0.473738 0.121642 0.572636
C47   C     C_R   0.434226 0.527444 0.938395 -0.082247
C48   C     C_R   0.565773 0.472555 0.061604 -0.082247
C49   C     C_R   0.499252 0.500259 0.969906 -0.053263
C50   C     C_R   0.500747 0.499741 0.030094 -0.053264
C51   C     C_R   0.563012 0.473500 0.941340 -0.056369
C52   C     C_R   0.436987 0.526499 0.058660 -0.056368
C53   C     C_R   0.370723 0.554273 0.968316 0.294862
C54   C     C_R   0.629275 0.445725 0.031684 0.294861
C55   C     C_R   0.372977 0.553359 0.027533 -0.172603
C56   C     C_R   0.627021 0.446640 0.972466 -0.172602
Cu1   Cu    Cu3+1 0.500000 0.580420 0.500000 1.024926
Cu2   Cu    Cu3+1 0.500000 0.419580 0.500000 1.024926
H1    H     H_    0.501135 0.630008 0.216059 0.154167
H2    H     H_    0.498856 0.369990 0.783939 0.154164
H3    H     H_    0.500730 0.630767 0.320128 0.189544
H4    H     H_    0.499261 0.369232 0.679870 0.189540
H5    H     H_    0.500774 0.369704 0.216117 0.156082
H6    H     H_    0.499234 0.630297 0.783884 0.156080
H7    H     H_    0.876549 0.630298 0.499771 0.146642
H8    H     H_    0.123451 0.369702 0.500231 0.146642
H9    H     H_    0.123453 0.630297 0.500239 0.146813
H10   H     H_    0.876547 0.369702 0.499763 0.146813
H11   H     H_    0.738392 0.630859 0.499570 0.184235
H12   H     H_    0.261608 0.369141 0.500430 0.184235
H13   H     H_    0.261611 0.630858 0.500439 0.184437
H14   H     H_    0.738389 0.369142 0.499562 0.184437
H15   H     H_    0.586935 0.862016 0.565471 0.183939
H16   H     H_    0.413065 0.137984 0.434529 0.183939
H17   H     H_    0.413065 0.861975 0.434532 0.184085
H18   H     H_    0.586935 0.138025 0.565468 0.184085
N1    N     N_R   0.498889 0.500218 0.851841 -0.476585
N2    N     N_R   0.501109 0.499782 0.148159 -0.476583
N3    N     N_R   0.500000 0.701220 0.500000 -0.215335
N4    N     N_R   0.500000 0.298780 0.500000 -0.215336
O1    O     O_R   0.391260 0.567930 0.500000 -0.559051
O2    O     O_R   0.608740 0.432070 0.500000 -0.559052
O3    O     O_R   0.608740 0.567930 0.500000 -0.559445
O4    O     O_R   0.391260 0.432070 0.500000 -0.559446
O5    O     O_R   0.499980 0.567930 0.417880 -0.559276
O6    O     O_R   0.500020 0.432070 0.582120 -0.559275
O7    O     O_R   0.500020 0.567930 0.582120 -0.558627
O8    O     O_R   0.499980 0.432070 0.417880 -0.558628
O9    O     O_2   0.622868 0.449680 0.854066 -0.508684
O10   O     O_2   0.377131 0.550318 0.145934 -0.508686
O11   O     O_2   0.375451 0.549998 0.846248 -0.467285
O12   O     O_2   0.624546 0.450003 0.153752 -0.467289
Br1   Br    Br    0.277817 0.593937 0.933560 -0.359701
Br2   Br    Br    0.722181 0.406058 0.066440 -0.359702
Br3   Br    Br    0.618202 0.694003 0.589017 -0.505308
Br4   Br    Br    0.381797 0.305997 0.410983 -0.505304
Br5   Br    Br    0.381786 0.693952 0.410986 -0.500570
Br6   Br    Br    0.618213 0.306048 0.589014 -0.500567
H19   H     H_    0.323775 0.574129 0.049289 0.218835
H20   H     H_    0.676224 0.425868 0.950710 0.218836
H21   H     H_    0.500694 0.369119 0.320188 0.190305
H22   H     H_    0.499314 0.630881 0.679813 0.190308

loop_
_geom_bond_atom_site_label_1
_geom_bond_atom_site_label_2
_ccdc_geom_bond_type
C41   C42   T    
Cu1   N3    S    
C38   Br6   S    
C37   Br5   S    
C47   C49   A    
C1    O4    A    
C48   C54   A    
C37   N3    A    
C43   O9    S    
C21   H13   S    
C34   C40   A    
C17   C26   A    
C32   C36   A    
C11   H5    S    
Cu2   O2    S    
C32   H16   S    
C12   H6    S    
C31   H15   S    
C46   O12   S    
C1    O1    A    
C15   H7    S    
C7    C27   S    
C51   C56   A    
C45   C47   A    
C35   N3    A    
C27   O5    A    
C15   C19   A    
C33   H17   S    
C20   C24   A    
Cu1   O5    S    
C49   C51   A    
C50   C52   A    
Cu1   O3    S    
C3    C13   A    
C52   C55   A    
Cu2   N4    S    
C47   C53   A    
C44   C52   A    
C40   C42   S    
C34   C38   A    
C16   C26   A    
C20   H12   S    
C2    O3    A    
C18   C25   A    
Cu2   O6    S    
C22   H14   S    
C46   C48   A    
C53   C55   A    
C25   C29   S    
C54   C56   A    
C17   H9    S    
C53   Br1   S    
C10   H22   S    
C4    C6    A    
C36   N4    A    
C5    C7    A    
C6    C8    A    
C33   C37   A    
Cu1   O7    S    
C19   C23   A    
C29   C30   T    
Cu2   O4    S    
C36   Br4   S    
C16   C20   A    
C4    H2    S    
C28   O7    A    
C5    H3    S    
C33   C39   A    
C9    C11   A    
C10   C12   A    
C9    H21   S    
C12   C14   A    
C26   C30   S    
C28   O6    A    
C8    C28   S    
C31   C35   A    
C2    O2    A    
C16   H8    S    
C56   H20   S    
C44   O10   S    
C46   N2    A    
C7    C9    A    
C19   H11   S    
C13   N2    S    
C18   C22   A    
C3    C5    A    
Cu2   O8    S    
C35   Br3   S    
C43   N1    A    
C6    H4    S    
C44   N2    A    
C11   C13   A    
C43   C51   A    
Cu1   Cu2   S    
C38   N4    A    
C48   C50   A    
C31   C39   A    
Cu1   O1    S    
C32   C40   A    
C4    C14   A    
C27   O8    A    
C45   O11   S    
C17   C21   A    
C54   Br2   S    
C15   C25   A    
C39   C41   S    
C1    C24   S    
C8    C10   A    
C49   C50   A    
C21   C24   A    
C55   H19   S    
C2    C23   S    
C14   N1    S    
C22   C23   A    
C45   N1    A    
C18   H10   S    
C34   H18   S    
C3    H1    S    
