data_mof_unit_17129.cif
_audit_creation_date              2012-12-11T15:48:12-0500
_audit_creation_method            fapswitch 2.2
_symmetry_space_group_name_H-M    P1
_symmetry_Int_Tables_number       1
_space_group_crystal_system       triclinic
_cell_length_a                    6.926589
_cell_length_b                    17.615897
_cell_length_c                    19.428884
_cell_angle_alpha                 108.558228
_cell_angle_beta                  89.559025
_cell_angle_gamma                 90.559853
_cell_volume                      2247.26804926

loop_
_atom_site_label
_atom_site_type_symbol
_atom_type_description
_atom_site_fract_x
_atom_site_fract_y
_atom_site_fract_z
_atom_type_partial_charge
O1    O     O_R   0.494330 0.415710 0.413720 -0.542468
O2    O     O_R   0.819360 0.430070 0.560210 -0.545250
O3    O     O_R   0.994320 0.584290 0.586280 -0.543717
C1    C     C_R   0.650194 0.415139 0.582036 0.701090
O4    O     O_R   0.823740 0.406290 0.412670 -0.548435
O5    O     O_R   0.998730 0.560340 0.437690 -0.513402
C2    C     C_R   0.654709 0.383079 0.384698 0.690762
O6    O     O_R   0.489920 0.439660 0.562310 -0.542120
O7    O     O_3   0.662330 0.550570 0.508380 -0.355102
V1    V     V_3+5 0.935370 0.490620 0.498440 1.427583
O8    O     O_R   0.328720 0.569930 0.439790 -0.520893
C3    C     C_R   0.160610 0.585256 0.418353 0.753405
O9    O     O_R   0.324340 0.593710 0.587330 -0.549049
C4    C     C_R   0.155120 0.617183 0.615096 0.660810
V2    V     V_3+5 0.435940 0.509380 0.501560 1.446775
O10   O     O_3   0.159110 0.449430 0.491620 -0.380099
C5    C     C_R   0.311847 0.726360 0.716589 -0.163696
H1    H     H_    0.452496 0.708504 0.692495 0.114341
C6    C     C_R   0.300666 0.790109 0.781628 -0.152096
H2    H     H_    0.433293 0.819517 0.805556 0.117809
C7    C     C_R   0.121146 0.815452 0.815235 -0.044742
C8    C     C_R   0.953014 0.775752 0.781612 -0.159659
H3    H     H_    0.812290 0.793707 0.805588 0.117153
C9    C     C_R   0.964206 0.711989 0.716609 -0.155039
H4    H     H_    0.831534 0.682663 0.692637 0.118502
C10   C     C_R   0.143840 0.686147 0.683379 -0.043388
C11   C     C_R   0.005542 0.623344 0.317769 0.359347
C12   C     C_R   0.151731 0.637180 0.371090 -0.304861
C13   C     C_R   0.288466 0.700033 0.378309 0.389690
C14   C     C_R   0.292106 0.741943 0.326616 -0.095548
C15   C     C_R   0.137203 0.730678 0.276841 -0.161778
C16   C     C_R   0.989603 0.674180 0.275074 0.055712
C17   C     C_R   0.443240 0.796644 0.324738 0.474002
C18   C     C_R   0.436097 0.838082 0.273487 -0.307683
C19   C     C_R   0.278968 0.829809 0.227011 0.043330
C20   C     C_R   0.128088 0.776544 0.228869 0.096519
C21   C     C_R   0.967794 0.769055 0.182526 0.110301
C22   C     C_R   0.818663 0.715424 0.183817 -0.213571
C23   C     C_R   0.830136 0.668028 0.229023 -0.087445
C24   C     C_R   0.271832 0.873687 0.178061 -0.195736
C25   C     C_R   0.111883 0.867154 0.132311 -0.088617
C26   C     C_R   0.959202 0.815217 0.135530 -0.233291
H5    H     H_    0.554702 0.876734 0.269344 0.133339
H6    H     H_    0.389485 0.914222 0.176596 0.125559
H7    H     H_    0.835218 0.809544 0.100463 0.131435
H8    H     H_    0.693697 0.709428 0.149207 0.128091
H9    H     H_    0.712495 0.626765 0.228037 0.152362
C27   C     C_R   0.784521 0.181187 0.865795 -0.223523
C28   C     C_R   0.622724 0.132917 0.867583 -0.083213
C29   C     C_R   0.466065 0.131019 0.821182 -0.219722
C30   C     C_R   0.470156 0.176325 0.773379 0.089157
C31   C     C_R   0.631209 0.225754 0.772899 0.052831
C32   C     C_R   0.788627 0.228395 0.819457 0.090038
C33   C     C_R   0.315847 0.173173 0.726070 -0.186854
C34   C     C_R   0.319265 0.219714 0.679549 -0.187507
C35   C     C_R   0.477168 0.270201 0.679388 0.090650
C36   C     C_R   0.634708 0.272718 0.725859 0.052709
C37   C     C_R   0.795744 0.322162 0.725413 0.088030
C38   C     C_R   0.950381 0.325074 0.772511 -0.185236
C39   C     C_R   0.946863 0.278624 0.819091 -0.186597
C40   C     C_R   0.480769 0.317879 0.633426 -0.224285
C41   C     C_R   0.642298 0.366411 0.631884 -0.080853
C42   C     C_R   0.799409 0.367853 0.677950 -0.217971
H10   H     H_    0.905415 0.183229 0.901481 0.127636
H11   H     H_    0.341456 0.093441 0.821677 0.124039
H12   H     H_    0.191495 0.135151 0.725456 0.133610
H13   H     H_    0.197556 0.216607 0.644015 0.134291
H14   H     H_    0.359675 0.316053 0.597887 0.126217
H15   H     H_    0.924000 0.405467 0.677534 0.123939
H16   H     H_    0.074903 0.362970 0.773022 0.134478
H17   H     H_    0.068626 0.281687 0.854591 0.134647
C43   C     C_R   0.810008 0.272552 0.284373 -0.178242
H18   H     H_    0.949572 0.288791 0.309816 0.117199
C44   C     C_R   0.798959 0.208740 0.219401 -0.160236
H19   H     H_    0.930500 0.177624 0.196920 0.121908
C45   C     C_R   0.620944 0.185419 0.184096 -0.044641
C46   C     C_R   0.454244 0.227715 0.215567 -0.158755
H20   H     H_    0.314793 0.211679 0.189967 0.117865
C47   C     C_R   0.465306 0.291559 0.280543 -0.147802
H21   H     H_    0.333895 0.322904 0.302884 0.112514
C48   C     C_R   0.643324 0.314775 0.315902 -0.050256
O11   O     O_R   0.774940 0.060470 0.937800 -0.539083
O12   O     O_R   0.440880 0.093730 0.087350 -0.543908
O13   O     O_R   0.266130 0.939630 0.062280 -0.539649
C49   C     C_R   0.609792 0.117008 0.115368 0.685334
O14   O     O_R   0.445480 0.069960 0.939820 -0.542453
O15   O     O_R   0.270770 0.915690 0.913690 -0.541262
C50   C     C_R   0.614637 0.084703 0.917844 0.711937
O16   O     O_R   0.770300 0.084410 0.086380 -0.541081
O17   O     O_3   0.602600 0.949510 0.991670 -0.369158
V3    V     V_3+5 0.329470 0.009370 0.001550 1.398268
O18   O     O_R   0.940760 0.906160 0.912560 -0.544182
C51   C     C_R   0.109954 0.883325 0.884386 0.685456
O19   O     O_R   0.936150 0.929930 0.060100 -0.542440
C52   C     C_R   0.104129 0.915276 0.082085 0.712746
V4    V     V_3+5 0.828930 0.990450 0.998310 1.398239
O20   O     O_3   0.105670 0.050490 0.008320 -0.369208
O21   O     O_3   0.873619 0.561103 0.308281 -0.559688
C53   C     C_3   0.959009 0.487575 0.267235 0.097291
H22   H     H_    0.895939 0.440038 0.286731 0.145371
H23   H     H_    0.118392 0.485586 0.274604 0.077244
C54   C     C_3   0.912390 0.467632 0.186463 -0.338065
H24   H     H_    0.753847 0.470836 0.179528 0.200813
H25   H     H_    0.984518 0.511859 0.164726 0.190889
C55   C     C_3   0.981570 0.383954 0.143061 -0.827989
H26   H     H_    0.139718 0.379028 0.149571 0.229598
H27   H     H_    0.949988 0.372050 0.084607 0.232353
H28   H     H_    0.905644 0.338131 0.161596 0.240465
O22   O     O_3   0.423794 0.719476 0.433831 -0.530440
C56   C     C_3   0.336392 0.756327 0.502790 0.153756
H29   H     H_    0.452600 0.766919 0.543956 0.136328
H30   H     H_    0.229460 0.716652 0.517245 0.077789
C57   C     C_3   0.241381 0.836975 0.509821 -0.375784
H31   H     H_    0.342536 0.875939 0.491725 0.198123
H32   H     H_    0.110739 0.826453 0.475373 0.188627
C58   C     C_3   0.180426 0.880073 0.588136 -0.821272
H33   H     H_    0.077091 0.842422 0.607314 0.235741
H34   H     H_    0.109060 0.937289 0.591372 0.230033
H35   H     H_    0.308514 0.893607 0.624206 0.230596
O23   O     O_3   0.608943 0.800348 0.365742 -0.537525
C59   C     C_3   0.663243 0.880175 0.405083 0.098822
H36   H     H_    0.678493 0.883699 0.462908 0.145913
H37   H     H_    0.554737 0.926227 0.403983 0.082706
C60   C     C_3   0.859665 0.900263 0.378324 -0.299472
H38   H     H_    0.965246 0.854346 0.380413 0.201477
H39   H     H_    0.849941 0.899635 0.321212 0.193301
C61   C     C_3   0.933682 0.982142 0.424998 -0.855733
H40   H     H_    0.831849 0.029682 0.422937 0.235322
H41   H     H_    0.076575 0.994299 0.404201 0.233927
H42   H     H_    0.950616 0.983527 0.482198 0.233629

loop_
_geom_bond_atom_site_label_1
_geom_bond_atom_site_label_2
_ccdc_geom_bond_type
C34   C35   A    
C11   O21   S    
O15   V3    S    
C25   C26   A    
C19   C20   A    
C1    O6    A    
C36   C37   A    
C25   C52   S    
C46   H20   S    
C58   H33   S    
C55   H27   S    
C41   C42   A    
C44   C45   A    
C3    C12   S    
C5    C10   A    
C13   O22   S    
C12   C13   A    
C6    C7    A    
C9    C10   A    
C60   H39   S    
O14   V3    S    
C15   C20   A    
O5    C3    A    
C14   C15   A    
C54   H25   S    
O14   C50   A    
C27   H10   S    
V2    O10   S    
C1    C41   S    
O18   V4    S    
C35   C36   A    
C54   C55   S    
C18   C19   A    
C16   C23   A    
C21   C26   A    
C56   H29   S    
C59   C60   S    
O8    V2    S    
C42   H15   S    
O1    V2    S    
O13   V3    S    
C13   C14   A    
O7    V1    S    
C43   C48   A    
C57   C58   S    
C38   C39   A    
C7    C8    A    
C28   C50   S    
C54   H24   S    
C32   C39   A    
C5    H1    S    
C45   C46   A    
C46   C47   A    
C27   C32   A    
C55   H28   S    
O11   V4    S    
C44   H19   S    
C30   C31   A    
C17   C18   A    
C9    H4    S    
C43   C44   A    
C47   C48   A    
C49   O16   A    
C39   H17   S    
C37   C38   A    
C23   H9    S    
C4    C10   S    
O13   C52   A    
O2    C1    A    
C61   H41   S    
C21   C22   A    
C15   C16   A    
V4    O20   S    
C29   C30   A    
O23   C59   S    
O19   C52   A    
V3    O20   S    
O19   V4    S    
C56   C57   S    
C59   H36   S    
O3    C4    A    
C60   C61   S    
C24   C25   A    
C2    C48   S    
C28   C29   A    
O6    V2    S    
O9    V2    S    
C8    C9    A    
C61   H40   S    
O2    V1    S    
C31   C32   A    
O4    C2    A    
C57   H31   S    
C37   C42   A    
C33   C34   A    
C27   C28   A    
C14   C17   A    
O12   C49   A    
C11   C16   A    
O1    C2    A    
C8    H3    S    
C18   H5    S    
C43   H18   S    
O5    V1    S    
C34   H13   S    
O8    C3    A    
C58   H35   S    
O17   V4    S    
C33   H12   S    
O12   V3    S    
C55   H26   S    
C53   H22   S    
C30   C33   A    
C6    H2    S    
C19   C24   A    
O7    V2    S    
C61   H42   S    
O4    V1    S    
O3    V1    S    
V1    O10   S    
O22   C56   S    
C22   H8    S    
C40   H14   S    
O17   V3    S    
C22   C23   A    
C7    C51   S    
O16   V4    S    
O11   C50   A    
O15   C51   A    
O18   C51   A    
C5    C6    A    
C58   H34   S    
C40   C41   A    
C29   H11   S    
C56   H30   S    
C59   H37   S    
C31   C36   A    
C26   H7    S    
C38   H16   S    
C47   H21   S    
C24   H6    S    
C53   C54   S    
C17   O23   S    
C20   C21   A    
O21   C53   S    
C11   C12   A    
C35   C40   A    
O9    C4    A    
C45   C49   S    
C53   H23   S    
C60   H38   S    
C57   H32   S    
