data_mof_unit_64693.cif
_audit_creation_date              2012-12-10T16:53:04-0500
_audit_creation_method            fapswitch 2.2
_symmetry_space_group_name_H-M    P1
_symmetry_Int_Tables_number       1
_space_group_crystal_system       triclinic
_cell_length_a                    26.241412
_cell_length_b                    26.163561
_cell_length_c                    22.279373
_cell_angle_alpha                 89.814306
_cell_angle_beta                  53.916223
_cell_angle_gamma                 89.763299
_cell_volume                      12361.7131452

loop_
_atom_site_label
_atom_site_type_symbol
_atom_type_description
_atom_site_fract_x
_atom_site_fract_y
_atom_site_fract_z
_atom_type_partial_charge
C1    C     C_R   0.650260 0.249988 0.699538 0.819657
C2    C     C_1   0.889459 0.750069 0.221072 -0.141435
C3    C     C_2   0.249054 0.944132 0.511110 -0.430658
C4    C     C_3   0.473559 0.779404 0.975068 -0.172308
C5    C     C_3   0.477548 0.216124 0.975146 -0.172439
C6    C     C_3   0.973020 0.278716 0.975076 -0.172313
C7    C     C_3   0.973171 0.721380 0.975145 -0.172452
C8    C     C_3   0.905063 0.566451 0.422646 -0.680410
C9    C     C_3   0.898141 0.447623 0.357704 -0.721888
C10   C     C_3   0.314724 0.036910 0.598397 -0.788882
C11   C     C_3   0.407514 0.955084 0.392895 -0.699915
C12   C     C_3   0.587013 0.962440 0.599457 -0.788672
C13   C     C_1   0.389496 0.749984 0.221128 -0.141869
C14   C     C_3   0.697906 0.045152 0.394516 -0.700544
C15   C     C_3   0.087065 0.462311 0.599673 -0.791739
C16   C     C_3   0.197582 0.545170 0.394808 -0.704591
C17   C     C_3   0.013351 0.387877 0.997411 -0.800659
C18   C     C_3   0.013890 0.612110 0.997946 -0.800545
C19   C     C_3   0.515947 0.887573 0.997350 -0.798228
C20   C     C_3   0.533008 0.115198 0.997905 -0.797308
C21   C     C_1   0.389438 0.250067 0.221069 -0.140589
C22   C     C_1   0.610517 0.750027 0.778883 -0.143270
C23   C     C_1   0.610554 0.249914 0.778939 -0.144694
C24   C     C_1   0.110514 0.250039 0.778885 -0.143079
C25   C     C_1   0.110554 0.749906 0.778940 -0.144374
C26   C     C_3   0.992933 0.296801 0.023994 0.273396
C27   C     C_3   0.993115 0.703216 0.024171 0.273305
C28   C     C_3   0.493809 0.796658 0.023981 0.273002
C29   C     C_R   0.650275 0.749993 0.699456 0.819231
C30   C     C_3   0.499585 0.204396 0.024157 0.272929
C31   C     C_3   0.963423 0.249643 0.073197 0.134001
C32   C     C_3   0.963395 0.750408 0.073179 0.133936
C33   C     C_3   0.463418 0.749606 0.073193 0.134026
C34   C     C_3   0.463295 0.250415 0.073176 0.134129
C35   C     C_3   0.557368 0.768686 0.974969 -0.210061
C36   C     C_3   0.559334 0.236836 0.975081 -0.210775
C37   C     C_3   0.057005 0.269569 0.974977 -0.210204
C38   C     C_3   0.057078 0.730336 0.975098 -0.210462
C39   C     C_3   0.536610 0.750158 0.926782 0.164604
C40   C     C_R   0.150260 0.749988 0.699539 0.819297
C41   C     C_3   0.536629 0.249809 0.926794 0.164741
C42   C     C_3   0.036606 0.250204 0.926786 0.164654
C43   C     C_3   0.036642 0.749780 0.926797 0.164684
C44   C     C_3   0.026947 0.221225 0.024557 -0.203740
C45   C     C_3   0.026805 0.778715 0.024481 -0.203620
C46   C     C_3   0.526408 0.720455 0.024556 -0.203589
C47   C     C_3   0.522328 0.283978 0.024472 -0.203476
C48   C     C_3   0.506643 0.701868 0.974895 -0.143725
C49   C     C_3   0.500608 0.297040 0.974707 -0.143445
C50   C     C_3   0.007543 0.201808 0.974893 -0.143731
C51   C     C_R   0.150277 0.249992 0.699456 0.817760
C52   C     C_3   0.007365 0.798211 0.974702 -0.143576
C53   C     C_1   0.922878 0.249871 0.154349 -0.076466
C54   C     C_1   0.922837 0.750203 0.154305 -0.076093
C55   C     C_1   0.422880 0.749845 0.154346 -0.076112
C56   C     C_1   0.422782 0.250203 0.154302 -0.075234
C57   C     C_R   0.849733 0.250034 0.300550 0.824107
C58   C     C_R   0.849753 0.749988 0.300466 0.824743
C59   C     C_R   0.349736 0.750030 0.300549 0.824728
C60   C     C_R   0.349753 0.249991 0.300465 0.826442
C61   C     C_1   0.577127 0.750087 0.845670 -0.069333
C62   C     C_3   0.943481 0.230311 0.024638 -0.193612
C63   C     C_1   0.577168 0.249854 0.845710 -0.069742
C64   C     C_1   0.077123 0.250116 0.845672 -0.069624
C65   C     C_1   0.077174 0.749834 0.845712 -0.069618
C66   C     C_2   0.492543 0.219216 0.459112 -0.162954
C67   C     C_2   0.493066 0.779689 0.457534 -0.163050
C68   C     C_2   0.992455 0.719084 0.459273 -0.165169
C69   C     C_2   0.993144 0.279577 0.457381 -0.164617
C70   C     C_2   0.444197 0.251842 0.499421 -0.295841
C71   C     C_2   0.442308 0.750476 0.503252 -0.297926
C72   C     C_2   0.944208 0.751826 0.499397 -0.294534
C73   C     C_3   0.943416 0.769818 0.024510 -0.193225
C74   C     C_2   0.942323 0.250457 0.503225 -0.297874
C75   C     C_2   0.549403 0.220336 0.457609 -0.162611
C76   C     C_2   0.548407 0.780803 0.459062 -0.162474
C77   C     C_2   0.049334 0.720224 0.457737 -0.163169
C78   C     C_2   0.048477 0.280710 0.458923 -0.163387
C79   C     C_2   0.554484 0.249563 0.503233 -0.297607
C80   C     C_2   0.556412 0.748122 0.499397 -0.295893
C81   C     C_2   0.054459 0.749521 0.503273 -0.296791
C82   C     C_2   0.056428 0.248096 0.499367 -0.295635
C83   C     C_2   0.699962 0.971598 0.508176 0.232840
C84   C     C_3   0.443117 0.731103 0.024637 -0.193891
C85   C     C_2   0.706190 0.027692 0.495264 0.218319
C86   C     C_2   0.199958 0.471599 0.508208 0.233116
C87   C     C_2   0.206151 0.527698 0.495336 0.219094
C88   C     C_2   0.747728 0.944202 0.499888 -0.400862
C89   C     C_2   0.739960 0.055866 0.511125 -0.431229
C90   C     C_2   0.247741 0.444202 0.499874 -0.400884
C91   C     C_2   0.239989 0.555866 0.511103 -0.431250
C92   C     C_R   0.888495 0.250111 0.500344 0.854104
C93   C     C_R   0.888713 0.750056 0.499869 0.856087
C94   C     C_R   0.388488 0.750120 0.500357 0.852795
C95   C     C_3   0.441045 0.263395 0.024521 -0.193834
C96   C     C_R   0.388714 0.250063 0.499867 0.851860
C97   C     C_R   0.611196 0.249910 0.500357 0.852627
C98   C     C_R   0.611433 0.749906 0.499866 0.852297
C99   C     C_R   0.111190 0.749902 0.500365 0.852424
C100  C     C_R   0.111436 0.249900 0.499860 0.852894
C101  C     C_R   0.747784 0.111267 0.502122 0.864812
C102  C     C_R   0.748418 0.888647 0.501035 0.855369
C103  C     C_R   0.247787 0.611267 0.502120 0.864726
C104  C     C_R   0.248421 0.388647 0.501032 0.855640
C105  C     C_R   0.750451 0.388808 0.501600 0.873919
C106  C     C_1   0.889490 0.249999 0.221130 -0.142818
C107  C     C_R   0.750439 0.611320 0.500379 0.899349
C108  C     C_R   0.250164 0.888760 0.502088 0.866169
C109  C     C_R   0.250545 0.111324 0.501084 0.856157
C110  C     C_2   0.800015 0.528832 0.488190 0.201571
C111  C     C_2   0.804214 0.472748 0.477570 0.185237
C112  C     C_2   0.292063 0.028390 0.507911 0.232869
C113  C     C_2   0.298822 0.972354 0.494746 0.218332
C114  C     C_2   0.751950 0.555836 0.497224 -0.382537
C115  C     C_2   0.751149 0.444262 0.508993 -0.420623
C116  C     C_2   0.252338 0.055781 0.500025 -0.400583
H1    H     H_    0.444198 0.281586 0.532964 0.151113
H2    H     H_    0.522862 0.718330 0.532929 0.150941
H3    H     H_    0.016501 0.773722 0.545180 0.150822
H4    H     H_    0.022849 0.218334 0.532958 0.151151
H5    H     H_    0.790007 0.962585 0.487130 0.126922
H6    H     H_    0.759389 0.038042 0.537639 0.146408
H7    H     H_    0.290035 0.462581 0.487075 0.126784
H8    H     H_    0.259495 0.538039 0.537527 0.146277
H9    H     H_    0.714451 0.537548 0.498234 0.122825
H10   H     H_    0.705123 0.462076 0.545156 0.142971
H11   H     H_    0.222657 0.037408 0.487512 0.127794
H12   H     H_    0.438285 0.726314 0.545284 0.150726
H13   H     H_    0.203041 0.961899 0.538107 0.146441
H14   H     H_    0.896722 0.213948 0.045853 0.145259
H15   H     H_    0.896596 0.786273 0.045632 0.145646
H16   H     H_    0.396053 0.715423 0.045857 0.145004
H17   H     H_    0.392288 0.274573 0.045663 0.145235
H18   H     H_    0.452462 0.803935 0.954220 0.133869
H19   H     H_    0.459814 0.187983 0.954352 0.133867
H20   H     H_    0.951475 0.302656 0.954230 0.133811
H21   H     H_    0.951757 0.697504 0.954347 0.133911
H22   H     H_    0.512552 0.662453 0.953342 0.138420
H23   H     H_    0.944308 0.781663 0.532759 0.150694
H24   H     H_    0.501618 0.335559 0.952993 0.138630
H25   H     H_    0.014190 0.162308 0.953334 0.138377
H26   H     H_    0.013871 0.837708 0.952976 0.138516
H27   H     H_    0.048367 0.197441 0.045702 0.145274
H28   H     H_    0.048094 0.802436 0.045576 0.145369
H29   H     H_    0.547382 0.696080 0.045703 0.145325
H30   H     H_    0.539958 0.311970 0.045561 0.145322
H31   H     H_    0.604184 0.784750 0.954101 0.139609
H32   H     H_    0.607893 0.225267 0.954292 0.139264
H33   H     H_    0.103510 0.286315 0.954113 0.139381
H34   H     H_    0.938255 0.226372 0.545350 0.150777
H35   H     H_    0.103646 0.713500 0.954327 0.139317
H36   H     H_    0.491191 0.190627 0.424821 0.175133
H37   H     H_    0.494362 0.804459 0.417424 0.174093
H38   H     H_    0.991012 0.690396 0.425156 0.167591
H39   H     H_    0.994495 0.304262 0.417162 0.173309
H40   H     H_    0.852884 0.536080 0.528964 0.213268
H41   H     H_    0.925899 0.600258 0.430605 0.230025
H42   H     H_    0.897999 0.575826 0.379316 0.248833
H43   H     H_    0.938918 0.534172 0.403133 0.225607
H44   H     H_    0.871109 0.419019 0.461002 0.244718
H45   H     H_    0.588183 0.195559 0.417587 0.174298
H46   H     H_    0.947093 0.433797 0.331024 0.221893
H47   H     H_    0.900267 0.485930 0.334741 0.230716
H48   H     H_    0.873687 0.420931 0.343892 0.256112
H49   H     H_    0.337818 0.090669 0.517992 0.240952
H50   H     H_    0.348202 0.055158 0.606827 0.237117
H51   H     H_    0.318695 0.994848 0.601279 0.253422
H52   H     H_    0.266059 0.049379 0.643594 0.230606
H53   H     H_    0.355394 0.914260 0.493156 0.235717
H54   H     H_    0.451896 0.938993 0.380776 0.222847
H55   H     H_    0.415347 0.996131 0.376984 0.240302
H56   H     H_    0.584068 0.809427 0.424764 0.175187
H57   H     H_    0.395544 0.934297 0.359328 0.242924
H58   H     H_    0.644215 0.909372 0.517890 0.241010
H59   H     H_    0.544976 0.944276 0.608095 0.236971
H60   H     H_    0.579986 0.004499 0.603114 0.253420
H61   H     H_    0.591004 0.949433 0.644078 0.230572
H62   H     H_    0.650840 0.085913 0.494641 0.235447
H63   H     H_    0.665209 0.061341 0.383124 0.223200
H64   H     H_    0.705707 0.004116 0.378670 0.240074
H65   H     H_    0.743479 0.065893 0.360355 0.242607
H66   H     H_    0.144231 0.409396 0.517814 0.240933
H67   H     H_    0.088085 0.695403 0.417772 0.173129
H68   H     H_    0.044995 0.444171 0.608365 0.236038
H69   H     H_    0.079994 0.504367 0.603523 0.253389
H70   H     H_    0.091193 0.449185 0.644143 0.231361
H71   H     H_    0.150729 0.585942 0.494905 0.235170
H72   H     H_    0.164798 0.561372 0.383560 0.221644
H73   H     H_    0.205337 0.504134 0.378969 0.240089
H74   H     H_    0.243156 0.565900 0.360534 0.243389
H75   H     H_    0.993551 0.350886 0.091593 0.225000
H76   H     H_    0.001280 0.425715 0.025132 0.241846
H77   H     H_    0.995910 0.386911 0.962528 0.247299
H78   H     H_    0.084175 0.309291 0.424546 0.174671
H79   H     H_    0.065444 0.383200 0.961665 0.235945
H80   H     H_    0.993924 0.649081 0.091993 0.225021
H81   H     H_    0.001968 0.574281 0.025814 0.241780
H82   H     H_    0.065965 0.616692 0.962190 0.235873
H83   H     H_    0.996452 0.613139 0.963051 0.247374
H84   H     H_    0.495460 0.850099 0.091543 0.225952
H85   H     H_    0.504602 0.925375 0.025048 0.242959
H86   H     H_    0.498478 0.887257 0.962480 0.246973
H87   H     H_    0.567948 0.882242 0.961594 0.235649
H88   H     H_    0.507696 0.155643 0.091901 0.226865
H89   H     H_    0.516518 0.273745 0.545166 0.150742
H90   H     H_    0.526396 0.078004 0.025760 0.242569
H91   H     H_    0.584088 0.124553 0.962057 0.235690
H92   H     H_    0.515705 0.111296 0.963103 0.247014
N1    N     N_2   0.846055 0.553707 0.492731 -0.287593
N2    N     N_2   0.984370 0.651990 0.053365 -0.307495
N3    N     N_2   0.485843 0.847775 0.052948 -0.307110
N4    N     N_2   0.497975 0.154463 0.053334 -0.306604
N5    N     N_2   0.865674 0.450469 0.437275 -0.290602
N6    N     N_2   0.329929 0.052029 0.527028 -0.280621
N7    N     N_2   0.357421 0.949520 0.471128 -0.280454
N8    N     N_2   0.642914 0.947913 0.527558 -0.280851
N9    N     N_2   0.670610 0.050642 0.472517 -0.280237
N10   N     N_2   0.142896 0.447912 0.527644 -0.281392
N11   N     N_2   0.170453 0.550663 0.472762 -0.280502
N12   N     N_2   0.983997 0.348027 0.052985 -0.307643
O1    O     O_3   0.750010 0.250010 0.500000 -0.482880
O2    O     O_R   0.613890 0.719960 0.543100 -0.643913
O3    O     O_R   0.113890 0.780040 0.543100 -0.643026
O4    O     O_R   0.113890 0.219960 0.543100 -0.643045
O5    O     O_R   0.697860 0.219970 0.664410 -0.638098
O6    O     O_R   0.697860 0.780030 0.664410 -0.637048
O7    O     O_R   0.197860 0.719970 0.664410 -0.638248
O8    O     O_R   0.197860 0.280030 0.664410 -0.637332
O9    O     O_R   0.802170 0.219970 0.335590 -0.636772
O10   O     O_R   0.802170 0.780030 0.335590 -0.635398
O11   O     O_R   0.302170 0.719970 0.335590 -0.637458
O12   O     O_3   0.750010 0.749990 0.500000 -0.486066
O13   O     O_R   0.302170 0.280030 0.335590 -0.636360
O14   O     O_R   0.637780 0.280050 0.664410 -0.638001
O15   O     O_R   0.637780 0.719950 0.664410 -0.636884
O16   O     O_R   0.137780 0.780050 0.664410 -0.637907
O17   O     O_R   0.137780 0.219950 0.664410 -0.637463
O18   O     O_R   0.862250 0.280060 0.335590 -0.641353
O19   O     O_R   0.862250 0.719940 0.335590 -0.643721
O20   O     O_R   0.362250 0.780060 0.335590 -0.638893
O21   O     O_R   0.362250 0.219940 0.335590 -0.637074
O22   O     O_R   0.843040 0.219980 0.543100 -0.643022
O23   O     O_3   0.250010 0.750010 0.500000 -0.483558
O24   O     O_R   0.843040 0.780020 0.543100 -0.643297
O25   O     O_R   0.343040 0.719980 0.543100 -0.643224
O26   O     O_R   0.343040 0.280020 0.543100 -0.643142
O27   O     O_R   0.656980 0.219970 0.456900 -0.646790
O28   O     O_R   0.656980 0.780030 0.456900 -0.647008
O29   O     O_R   0.156980 0.719970 0.456900 -0.646926
O30   O     O_R   0.156980 0.280030 0.456900 -0.647163
O31   O     O_R   0.758500 0.135440 0.543100 -0.638690
O32   O     O_R   0.758500 0.864560 0.543100 -0.631827
O33   O     O_R   0.258500 0.635440 0.543100 -0.638728
O34   O     O_3   0.250010 0.249990 0.500000 -0.485209
O35   O     O_R   0.258500 0.364560 0.543100 -0.631585
O36   O     O_R   0.698440 0.364590 0.543100 -0.640135
O37   O     O_R   0.698440 0.635410 0.543100 -0.647319
O38   O     O_R   0.198440 0.864590 0.543100 -0.638486
O39   O     O_R   0.198440 0.135410 0.543100 -0.631807
O40   O     O_R   0.741510 0.135430 0.456900 -0.641495
O41   O     O_R   0.741510 0.864570 0.456900 -0.649888
O42   O     O_R   0.241510 0.635430 0.456900 -0.641502
O43   O     O_R   0.241510 0.364570 0.456900 -0.650270
O44   O     O_R   0.801610 0.364600 0.456900 -0.644751
O45   O     O_R   0.886150 0.280070 0.456900 -0.647437
O46   O     O_R   0.801610 0.635400 0.456900 -0.622539
O47   O     O_R   0.301610 0.864600 0.456900 -0.641584
O48   O     O_R   0.301610 0.135400 0.456900 -0.649176
O49   O     O_R   0.886150 0.719930 0.456900 -0.644958
O50   O     O_R   0.386150 0.780070 0.456900 -0.647239
O51   O     O_R   0.386150 0.219930 0.456900 -0.647424
O52   O     O_R   0.613890 0.280040 0.543100 -0.643175
Zn1   Zn    Zn3+2 0.823730 0.292940 0.438410 0.952789
Zn2   Zn    Zn3+2 0.737880 0.792910 0.438410 0.961098
Zn3   Zn    Zn3+2 0.237880 0.707090 0.438410 0.957329
Zn4   Zn    Zn3+2 0.237880 0.292910 0.438410 0.962155
Zn5   Zn    Zn3+2 0.676310 0.292930 0.561590 0.968362
Zn6   Zn    Zn3+2 0.676310 0.707070 0.561590 0.969287
Zn7   Zn    Zn3+2 0.176310 0.792930 0.561590 0.968753
Zn8   Zn    Zn3+2 0.176310 0.207070 0.561590 0.970429
Zn9   Zn    Zn3+2 0.823730 0.707060 0.438410 0.962072
Zn10  Zn    Zn3+2 0.323730 0.792940 0.438410 0.957184
Zn11  Zn    Zn3+2 0.323730 0.207060 0.438410 0.962338
Zn12  Zn    Zn3+2 0.762140 0.207100 0.561590 0.968759
Zn13  Zn    Zn3+2 0.762140 0.792900 0.561590 0.971916
Zn14  Zn    Zn3+2 0.262140 0.707100 0.561590 0.967835
Zn15  Zn    Zn3+2 0.262140 0.292900 0.561590 0.969544
Zn16  Zn    Zn3+2 0.737880 0.207090 0.438410 0.957546

loop_
_geom_bond_atom_site_label_1
_geom_bond_atom_site_label_2
_ccdc_geom_bond_type
C33   C55   S    
C48   H22   S    
C73   H15   S    
C11   H55   S    
O52   Zn5   S    
C22   C29   S    
C87   C91   D    
C2    C58   S    
C9    H48   S    
O16   Zn7   S    
C3    H13   S    
C90   H7    S    
C62   H14   S    
H62   N9    S    
C17   H77   S    
O6    Zn13  S    
C20   H90   S    
O12   Zn13  S    
C40   O16   A    
C8    H42   S    
O32   Zn13  S    
C83   N8    S    
O26   Zn15  S    
C47   C49   S    
C71   C94   S    
H71   N11   S    
O34   Zn15  S    
C28   N3    S    
O28   Zn2   S    
O42   Zn3   S    
O19   Zn9   S    
C60   O21   A    
C69   H39   S    
C115  H10   S    
C36   C47   S    
C95   H17   S    
C19   N3    S    
C18   N2    S    
C20   H92   S    
C68   H38   S    
C105  O44   A    
O23   Zn10  S    
C30   N4    S    
C35   C39   S    
C2    C54   T    
C43   C52   S    
C31   C53   S    
C46   H29   S    
O3    Zn7   S    
C89   H6    S    
C100  O4    A    
C70   H1    S    
O12   Zn6   S    
O4    Zn8   S    
C101  O40   A    
O35   Zn15  S    
C19   H85   S    
C7    C27   S    
C20   N4    S    
C16   N11   S    
C9    H47   S    
C78   H78   S    
O5    Zn12  S    
O22   Zn12  S    
C37   C42   S    
C76   H56   S    
C85   N9    S    
C110  C111  S    
C29   O15   A    
C38   C45   S    
C6    H20   S    
C109  C116  S    
C4    C28   S    
C66   H36   S    
O1    Zn5   S    
C53   C106  T    
C36   H32   S    
C72   H23   S    
C28   C35   S    
C12   H61   S    
C10   H51   S    
C18   H83   S    
C116  H11   S    
H44   N5    S    
C18   H82   S    
C45   H28   S    
O29   Zn3   S    
C14   N9    S    
O1    Zn1   S    
C86   C90   D    
C104  O43   A    
C7    C43   S    
O12   Zn9   S    
O2    Zn6   S    
O18   Zn1   S    
C91   C103  S    
C110  C114  D    
C67   C71   D    
C57   O18   A    
C50   H25   S    
C68   C72   D    
C34   C56   S    
C12   H60   S    
H80   N2    S    
O34   Zn11  S    
C24   C51   S    
C23   C63   T    
C57   C106  S    
H40   N1    S    
C47   H30   S    
C59   O11   A    
C26   C31   S    
C24   C64   T    
O14   Zn5   S    
O20   Zn10  S    
O10   Zn2   S    
C33   C46   S    
C49   C95   S    
C31   C62   S    
O49   Zn9   S    
C69   C78   S    
C101  O31   A    
C92   O22   A    
C29   O6    A    
O21   Zn11  S    
C109  O48   A    
C39   C61   S    
C8    H41   S    
C96   O26   A    
C112  C113  S    
C5    C95   S    
C79   C97   S    
C45   C52   S    
C80   H2    S    
C17   H76   S    
H53   N7    S    
C15   H70   S    
C99   O3    A    
C11   H57   S    
H84   N3    S    
C31   C44   S    
C30   C34   S    
O48   Zn11  S    
C26   N12   S    
O30   Zn4   S    
C43   C65   S    
O12   Zn2   S    
O36   Zn5   S    
C69   C74   D    
O17   Zn8   S    
C25   C65   T    
C34   C95   S    
O9    Zn16  S    
C21   C60   S    
C7    C73   S    
C52   C73   S    
C3    C113  D    
O7    Zn14  S    
O23   Zn7   S    
C32   C73   S    
C7    H21   S    
C114  H9    S    
C85   C89   D    
O33   Zn14  S    
C10   N6    S    
C58   O19   A    
O41   Zn2   S    
C81   C99   S    
O47   Zn10  S    
C9    N5    S    
C79   H89   S    
O13   Zn4   S    
C84   H16   S    
C27   N2    S    
C86   N10   S    
C11   H54   S    
C48   C84   S    
C96   O51   A    
C109  O39   A    
C108  O47   A    
C70   C96   S    
C99   O29   A    
C107  C114  S    
C98   O28   A    
C74   C92   S    
C58   O10   A    
C51   O8    A    
C15   H69   S    
C78   C82   D    
O51   Zn11  S    
C4    C84   S    
C4    C39   S    
C77   C81   D    
C1    O14   A    
C10   H50   S    
O39   Zn8   S    
C15   H68   S    
H88   N4    S    
C107  O46   A    
C19   H87   S    
C6    C26   S    
C102  O41   A    
O11   Zn3   S    
C112  N6    S    
C51   O17   A    
C32   C45   S    
C35   H31   S    
O50   Zn10  S    
C15   N10   S    
C104  O35   A    
C14   H64   S    
C90   C104  S    
C57   O9    A    
O40   Zn16  S    
C17   N12   S    
C16   H74   S    
C42   C50   S    
C12   H59   S    
C92   O45   A    
O46   Zn9   S    
O45   Zn1   S    
C83   C85   S    
C28   C33   S    
C1    C23   S    
C87   N11   S    
C91   H8    S    
C16   H72   S    
C103  O33   A    
C102  O32   A    
C71   H12   S    
C17   H79   S    
C110  N1    S    
C76   C80   D    
C113  N7    S    
C8    N1    S    
O23   Zn3   S    
C38   H35   S    
C112  C116  D    
C14   H65   S    
C41   C63   S    
C4    H18   S    
C5    C30   S    
C1    O5    A    
C68   C77   S    
C5    H19   S    
C5    C41   S    
O34   Zn4   S    
O34   Zn8   S    
C89   C101  S    
O25   Zn14  S    
C86   C87   S    
O15   Zn6   S    
C82   C100  S    
C105  C115  S    
O1    Zn12  S    
C60   O13   A    
C14   H63   S    
C37   H33   S    
O27   Zn16  S    
C82   H4    S    
C93   O24   A    
C111  N5    S    
H75   N12   S    
C97   O27   A    
C21   C56   T    
C88   C102  S    
C42   C64   S    
C97   O52   A    
H66   N10   S    
C13   C59   S    
O1    Zn16  S    
C30   C36   S    
C3    C108  S    
C41   C49   S    
C81   H3    S    
C18   H81   S    
C100  O30   A    
O44   Zn1   S    
C32   C54   S    
C107  O37   A    
C67   C76   S    
C67   H37   S    
C6    C62   S    
C40   O7    A    
C105  O36   A    
C59   O20   A    
C38   C43   S    
C25   C40   S    
C108  O38   A    
O24   Zn13  S    
C22   C61   T    
C35   C46   S    
O8    Zn15  S    
C66   C70   D    
C80   C98   S    
C37   C44   S    
C44   H27   S    
C50   C62   S    
C66   C75   S    
C98   O2    A    
C77   H67   S    
C75   H45   S    
C72   C93   S    
C94   O25   A    
C83   C88   D    
H58   N8    S    
O31   Zn12  S    
C19   H86   S    
C9    H46   S    
C33   C84   S    
C52   H26   S    
C16   H73   S    
C27   C32   S    
O23   Zn14  S    
C46   C48   S    
H49   N6    S    
O37   Zn6   S    
C93   O49   A    
C26   C37   S    
C44   C50   S    
C10   H52   S    
O43   Zn4   S    
C6    C42   S    
C49   H24   S    
C36   C41   S    
O38   Zn7   S    
C12   N8    S    
C74   H34   S    
C111  C115  D    
C34   C47   S    
C27   C38   S    
C20   H91   S    
C8    H43   S    
C75   C79   D    
C103  O42   A    
C88   H5    S    
C11   N7    S    
C39   C48   S    
C13   C55   T    
C94   O50   A    
