data_mof_unit_65975.cif
_audit_creation_date              2012-12-10T18:39:02-0500
_audit_creation_method            fapswitch 2.2
_symmetry_space_group_name_H-M    P1
_symmetry_Int_Tables_number       1
_space_group_crystal_system       triclinic
_cell_length_a                    10.77604
_cell_length_b                    11.567772
_cell_length_c                    10.746107
_cell_angle_alpha                 90.000018
_cell_angle_beta                  89.679003
_cell_angle_gamma                 90.000469
_cell_volume                      1339.53251453

loop_
_atom_site_label
_atom_site_type_symbol
_atom_type_description
_atom_site_fract_x
_atom_site_fract_y
_atom_site_fract_z
_atom_type_partial_charge
C1    C     C_R   0.500000 0.281101 0.500000 0.927818
C2    C     C_R   0.500000 0.718888 0.500000 0.963602
C3    C     C_1   0.500000 0.161031 0.500000 -0.023060
C4    C     C_3   0.070309 0.412680 0.617454 0.516878
C5    C     C_3   0.073987 0.432579 0.372645 0.524690
C6    C     C_3   0.926011 0.432615 0.627376 0.524695
C7    C     C_3   0.929688 0.412648 0.382575 0.516868
C8    C     C_1   0.500000 0.059146 0.500000 0.110294
C9    C     C_3   0.072084 0.619035 0.513000 0.508112
C10   C     C_3   0.927919 0.619030 0.486960 0.508118
C11   C     C_3   0.121521 0.488807 0.501502 -0.612383
C12   C     C_3   0.878478 0.488806 0.498501 -0.612375
C13   C     C_1   0.500000 0.838966 0.500000 -0.033142
C14   C     C_1   0.500000 0.940853 0.500000 0.109015
C15   C     C_R   0.257426 0.491887 0.500637 1.082531
C16   C     C_R   0.742573 0.491887 0.499364 1.082539
C17   C     C_1   0.499999 0.499998 0.069675 0.202493
C18   C     C_1   0.500001 0.499998 0.930325 0.202494
Cl1   Cl    Cl    0.142180 0.436053 0.768361 -0.312963
Cl2   Cl    Cl    0.154634 0.721475 0.415514 -0.369435
Cl3   Cl    Cl    0.845372 0.721495 0.584411 -0.369455
Cl4   Cl    Cl    0.890522 0.680244 0.337254 -0.329838
Cl5   Cl    Cl    0.113666 0.521427 0.238528 -0.305496
Cl6   Cl    Cl    0.886333 0.521501 0.761460 -0.305506
Cl7   Cl    Cl    0.857814 0.435981 0.231666 -0.312976
Cl8   Cl    Cl    0.111164 0.262330 0.600289 -0.356431
Cl9   Cl    Cl    0.155902 0.301941 0.327942 -0.357098
Cl10  Cl    Cl    0.844097 0.301991 0.672123 -0.357078
Cl11  Cl    Cl    0.888830 0.262305 0.399788 -0.356452
Cl12  Cl    Cl    0.109485 0.680292 0.662688 -0.329853
N1    N     N_1   0.500000 0.500010 0.180630 -0.036818
N2    N     N_1   0.500000 0.500010 0.819370 -0.036818
O1    O     O_R   0.500000 0.334450 0.602530 -0.603709
O2    O     O_R   0.500000 0.334450 0.397470 -0.603708
O3    O     O_R   0.314800 0.499980 0.602530 -0.568236
O4    O     O_R   0.314800 0.499980 0.397470 -0.561928
O5    O     O_R   0.685200 0.499980 0.602530 -0.561932
O6    O     O_R   0.685200 0.499980 0.397470 -0.568229
O7    O     O_R   0.500000 0.665550 0.602530 -0.596750
O8    O     O_R   0.500000 0.665550 0.397470 -0.596748
Zn1   Zn    Zn3+2 0.500000 0.500000 0.636920 1.149134
Zn2   Zn    Zn3+2 0.500000 0.500000 0.363080 1.149136

loop_
_geom_bond_atom_site_label_1
_geom_bond_atom_site_label_2
_ccdc_geom_bond_type
C4    Cl8   S    
N2    Zn1   S    
C5    C11   S    
C7    Cl11  S    
N1    Zn2   S    
C9    C10   S    
C9    Cl2   S    
O4    Zn2   S    
C5    Cl5   S    
C16   O5    A    
C6    Cl6   S    
O8    Zn2   S    
C17   C18   S    
C1    O1    A    
O7    Zn1   S    
C13   C14   T    
C10   Cl4   S    
C4    C11   S    
C6    C12   S    
C9    C11   S    
C10   C12   S    
C9    Cl12  S    
C17   N1    T    
C15   O3    A    
C1    O2    A    
O6    Zn2   S    
C10   Cl3   S    
O5    Zn1   S    
C7    C12   S    
O3    Zn1   S    
C18   N2    T    
C2    O8    A    
C15   O4    A    
O1    Zn1   S    
C4    C6    S    
C3    C8    T    
C5    C7    S    
C2    C13   S    
C8    C14   S    
C5    Cl9   S    
C4    Cl1   S    
C11   C15   S    
C2    O7    A    
C6    Cl10  S    
C12   C16   S    
C16   O6    A    
O2    Zn2   S    
C1    C3    S    
C7    Cl7   S    
