data_mof_unit_23561.cif
_audit_creation_date              2012-10-26T19:02:00-0400
_audit_creation_method            fapswitch 2.2
_symmetry_space_group_name_H-M    P1
_symmetry_Int_Tables_number       1
_space_group_crystal_system       triclinic
_cell_length_a                    23.539858
_cell_length_b                    10.824467
_cell_length_c                    22.207919
_cell_angle_alpha                 90.529278
_cell_angle_beta                  89.493964
_cell_angle_gamma                 90.200104
_cell_volume                      5658.22519969

loop_
_atom_site_label
_atom_site_type_symbol
_atom_type_description
_atom_site_fract_x
_atom_site_fract_y
_atom_site_fract_z
_atom_type_partial_charge
C1    C     C_R   0.498570 0.261898 0.499808 0.546436
C2    C     C_R   0.705898 0.545019 0.451887 -0.040317
C3    C     C_R   0.237904 0.433113 0.547598 -0.061193
C4    C     C_R   0.765108 0.536333 0.454952 -0.058077
C5    C     C_R   0.208785 0.486060 0.499745 0.223319
C6    C     C_R   0.791255 0.485271 0.505089 0.226592
C7    C     C_R   0.338836 0.226508 0.398448 -0.109988
C8    C     C_R   0.632895 0.743874 0.635431 -0.082579
C9    C     C_R   0.383791 0.192250 0.435339 -0.068832
C10   C     C_R   0.605772 0.801166 0.587458 -0.042925
C11   C     C_R   0.426622 0.113104 0.413447 0.040158
C12   C     C_R   0.502143 0.737982 0.500391 0.543995
C13   C     C_R   0.560292 0.882387 0.598209 0.043131
C14   C     C_R   0.424057 0.071054 0.353370 -0.108970
C15   C     C_R   0.543275 0.907455 0.657909 -0.111183
C16   C     C_R   0.390738 0.497164 0.500416 0.546877
C17   C     C_R   0.609348 0.501906 0.499755 0.542429
C18   C     C_R   0.378625 0.104034 0.316944 -0.115511
C19   C     C_R   0.570383 0.849598 0.705750 -0.126351
C20   C     C_R   0.335944 0.181430 0.339496 -0.111191
C21   C     C_R   0.615071 0.767736 0.694547 -0.098406
C22   C     C_R   0.473335 0.931158 0.455957 -0.147459
C23   C     C_R   0.239144 0.540713 0.452509 -0.069606
C24   C     C_R   0.527138 0.068535 0.545674 -0.147459
C25   C     C_R   0.503325 0.871696 0.501126 -0.006569
C26   C     C_R   0.497516 0.128117 0.499905 -0.000452
C27   C     C_R   0.529870 0.940392 0.547463 -0.033341
C28   C     C_R   0.468407 0.059043 0.455526 -0.024992
C29   C     C_R   0.551162 0.495792 0.872048 0.410412
C30   C     C_R   0.452726 0.546851 0.128540 0.410762
C31   C     C_R   0.451318 0.532586 0.873307 0.380902
C32   C     C_R   0.550956 0.493613 0.127559 0.389876
C33   C     C_R   0.450869 0.537916 0.936961 0.027407
C34   C     C_R   0.758148 0.440237 0.552567 -0.064767
C35   C     C_R   0.552198 0.495186 0.063833 0.025816
C36   C     C_R   0.501601 0.517256 0.968321 -0.031367
C37   C     C_R   0.501758 0.518845 0.032402 -0.029905
C38   C     C_R   0.552187 0.495399 0.935749 0.025016
C39   C     C_R   0.451499 0.544502 0.064912 0.027699
C40   C     C_R   0.880686 0.593673 0.513955 0.398988
C41   C     C_R   0.119293 0.375520 0.495052 0.397718
C42   C     C_R   0.400820 0.562614 0.969995 -0.129930
C43   C     C_R   0.602446 0.472655 0.030774 -0.130075
C44   C     C_R   0.401230 0.566845 0.033048 -0.130927
C45   C     C_R   0.298309 0.543407 0.453287 -0.170851
C46   C     C_R   0.602531 0.473720 0.967656 -0.128221
C47   C     C_R   0.530814 0.597124 0.259032 -0.104726
C48   C     C_R   0.481427 0.606175 0.742906 -0.120101
C49   C     C_R   0.529974 0.590059 0.322086 0.027772
C50   C     C_R   0.480826 0.601447 0.679818 0.020246
C51   C     C_R   0.469319 0.415792 0.318464 0.018134
C52   C     C_R   0.518789 0.399749 0.679867 0.019535
C53   C     C_R   0.469291 0.418446 0.254815 -0.005338
C54   C     C_R   0.518057 0.397671 0.743509 -0.006721
C55   C     C_R   0.500678 0.510730 0.224396 0.220720
C56   C     C_R   0.699116 0.446986 0.550040 -0.167219
C57   C     C_R   0.500112 0.504378 0.775986 0.201682
C58   C     C_R   0.880279 0.373827 0.502738 0.401683
C59   C     C_R   0.119470 0.595329 0.506505 0.402109
C60   C     C_R   0.939909 0.371663 0.501650 0.028597
C61   C     C_R   0.059915 0.597085 0.508658 0.028581
C62   C     C_R   0.969973 0.484094 0.506340 -0.028781
C63   C     C_R   0.029914 0.484583 0.504147 -0.028730
C64   C     C_R   0.940232 0.596149 0.512913 0.029356
C65   C     C_R   0.059705 0.372639 0.497310 0.030026
C66   C     C_R   0.970058 0.260468 0.495131 -0.124883
C67   C     C_R   0.328117 0.491936 0.501466 -0.015112
C68   C     C_R   0.029806 0.708218 0.515543 -0.124771
C69   C     C_R   0.029335 0.260956 0.492953 -0.124527
C70   C     C_R   0.970576 0.707755 0.517653 -0.124273
C71   C     C_R   0.436424 0.326111 0.220365 0.036366
C72   C     C_R   0.376915 0.332495 0.219417 -0.057599
C73   C     C_R   0.345924 0.251954 0.182540 -0.114655
C74   C     C_R   0.374146 0.164132 0.146855 -0.107542
C75   C     C_R   0.433411 0.156952 0.147863 -0.118112
C76   C     C_R   0.464555 0.237999 0.184298 -0.093979
C77   C     C_R   0.534584 0.282749 0.774562 0.045482
C78   C     C_R   0.672078 0.499095 0.500006 -0.010781
C79   C     C_R   0.586165 0.224119 0.759970 -0.067707
C80   C     C_R   0.602369 0.117365 0.790223 -0.101337
C81   C     C_R   0.567108 0.067751 0.834866 -0.108930
C82   C     C_R   0.515327 0.124132 0.848950 -0.115474
C83   C     C_R   0.498971 0.230957 0.818874 -0.093981
C84   C     C_R   0.325234 0.372314 0.599569 0.040650
C85   C     C_R   0.333892 0.244131 0.597207 -0.092026
C86   C     C_R   0.361223 0.184680 0.644425 -0.102398
C87   C     C_R   0.378678 0.252327 0.694902 -0.103025
C88   C     C_R   0.368504 0.379339 0.698356 -0.098598
C89   C     C_R   0.297264 0.435197 0.549100 -0.051623
C90   C     C_R   0.341875 0.439455 0.650872 -0.052889
C91   C     C_R   0.682599 0.611599 0.399933 0.044231
C92   C     C_R   0.686802 0.559690 0.341892 -0.082872
C93   C     C_R   0.673314 0.630038 0.291520 -0.109787
C94   C     C_R   0.655805 0.752620 0.298770 -0.127377
C95   C     C_R   0.651062 0.804501 0.356446 -0.121794
C96   C     C_R   0.664633 0.734456 0.406868 -0.075555
Cu1   Cu    Cu3+1 0.500000 0.499970 0.559570 0.943337
Cu2   Cu    Cu3+1 0.500000 0.500030 0.440430 0.948535
H1    H     H_    0.947976 0.172806 0.491436 0.167727
H2    H     H_    0.641986 0.454449 0.053565 0.162967
H3    H     H_    0.361830 0.586470 0.056742 0.162065
H4    H     H_    0.642141 0.456299 0.943951 0.164444
H5    H     H_    0.554439 0.670190 0.237138 0.114211
H6    H     H_    0.467270 0.689209 0.765983 0.127333
H7    H     H_    0.552984 0.657794 0.348216 0.149110
H8    H     H_    0.465072 0.680125 0.655613 0.139052
H9    H     H_    0.444952 0.346256 0.341970 0.143740
H10   H     H_    0.533396 0.319391 0.655091 0.119636
H11   H     H_    0.051237 0.173616 0.487770 0.167749
H12   H     H_    0.051870 0.795907 0.519209 0.167851
H13   H     H_    0.948685 0.795127 0.522758 0.168132
H14   H     H_    0.216794 0.581381 0.415217 0.138783
H15   H     H_    0.778195 0.401010 0.591666 0.136791
H16   H     H_    0.320846 0.586751 0.416310 0.137150
H17   H     H_    0.674492 0.410756 0.587392 0.129780
H18   H     H_    0.214036 0.390372 0.583862 0.138667
H19   H     H_    0.791379 0.572612 0.418816 0.133888
H20   H     H_    0.300552 0.206241 0.311341 0.118473
H21   H     H_    0.635702 0.722452 0.731654 0.138173
H22   H     H_    0.305491 0.285511 0.415994 0.134896
H23   H     H_    0.456283 0.009551 0.335289 0.107878
H24   H     H_    0.667481 0.680369 0.626723 0.122448
H25   H     H_    0.384250 0.224266 0.481479 0.099785
H26   H     H_    0.619564 0.780845 0.542000 0.087593
H27   H     H_    0.354687 0.401076 0.246415 0.129165
H28   H     H_    0.300047 0.257528 0.181703 0.112910
H29   H     H_    0.350105 0.101689 0.118436 0.120339
H30   H     H_    0.455235 0.089225 0.120060 0.117807
H31   H     H_    0.510507 0.233124 0.183955 0.132208
H32   H     H_    0.614234 0.262135 0.725909 0.106004
H33   H     H_    0.642291 0.073058 0.779062 0.119106
H34   H     H_    0.508278 0.969647 0.667313 0.105407
H35   H     H_    0.579725 0.985057 0.858216 0.114239
H36   H     H_    0.487825 0.085020 0.883174 0.114936
H37   H     H_    0.458505 0.272962 0.830019 0.122305
H38   H     H_    0.319356 0.190336 0.558985 0.114038
H39   H     H_    0.368539 0.086080 0.642052 0.112807
H40   H     H_    0.399679 0.206187 0.731500 0.108153
H41   H     H_    0.381465 0.431256 0.737719 0.161937
H42   H     H_    0.334674 0.538115 0.653769 0.117162
H43   H     H_    0.701859 0.465975 0.335655 0.123024
H44   H     H_    0.676904 0.589933 0.246836 0.158790
H45   H     H_    0.376235 0.068202 0.271425 0.136264
H46   H     H_    0.645669 0.807169 0.259733 0.117850
H47   H     H_    0.637634 0.899471 0.362035 0.120485
H48   H     H_    0.663439 0.777543 0.450895 0.102976
H49   H     H_    0.556191 0.866757 0.751487 0.116977
H50   H     H_    0.450192 0.876413 0.423107 0.134278
H51   H     H_    0.548937 0.122267 0.579943 0.121953
H52   H     H_    0.361111 0.579232 0.947234 0.164973
N1    N     N_R   0.852057 0.483818 0.508290 -0.398560
N2    N     N_R   0.147836 0.485692 0.499826 -0.397420
N3    N     N_R   0.500921 0.510817 0.841717 -0.390950
N4    N     N_R   0.501525 0.517889 0.158871 -0.387275
N5    N     N_R   0.500010 0.500010 0.350920 -0.235588
N6    N     N_R   0.499990 0.499990 0.649080 -0.226771
O1    O     O_R   0.500000 0.319610 0.550310 -0.516311
O2    O     O_2   0.148517 0.269279 0.487888 -0.502212
O3    O     O_2   0.850731 0.267318 0.497332 -0.492382
O4    O     O_2   0.148861 0.702103 0.511758 -0.492653
O5    O     O_2   0.600176 0.481944 0.840848 -0.508367
O6    O     O_2   0.405481 0.578453 0.159728 -0.514900
O7    O     O_2   0.402243 0.547735 0.843439 -0.537406
O8    O     O_2   0.598708 0.466708 0.157809 -0.527734
O9    O     O_R   0.500000 0.680390 0.449690 -0.517236
O10   O     O_R   0.499990 0.319670 0.449690 -0.493146
O11   O     O_R   0.500010 0.680330 0.550310 -0.500674
O12   O     O_R   0.417880 0.499930 0.550320 -0.486657
O13   O     O_R   0.582120 0.500070 0.449680 -0.485218
O14   O     O_R   0.417880 0.499990 0.449700 -0.503591
O15   O     O_R   0.582120 0.500010 0.550300 -0.503485
O16   O     O_2   0.851514 0.700172 0.520423 -0.495783

loop_
_geom_bond_atom_site_label_1
_geom_bond_atom_site_label_2
_ccdc_geom_bond_type
C55   N4    S    
C87   C88   A    
C63   C65   A    
C80   H33   S    
C34   C56   A    
C93   C94   A    
C23   C45   A    
C73   C74   A    
C14   C18   A    
C53   C55   A    
C95   C96   A    
C95   H47   S    
C24   C27   A    
C12   O11   A    
C20   H20   S    
Cu1   Cu2   S    
C48   C57   A    
C47   C49   A    
C41   N2    A    
C59   N2    A    
C34   H15   S    
C15   C19   A    
C23   H14   S    
C46   H4    S    
C51   N5    A    
C79   C80   A    
C5    N2    S    
C84   C90   A    
C33   C42   A    
C1    O10   A    
C47   C55   A    
C18   H45   S    
C35   C37   A    
C24   C26   A    
C10   H26   S    
C3    H18   S    
C71   C76   A    
C11   C14   A    
C17   O13   A    
C66   C69   A    
C77   C83   A    
C58   C60   A    
C73   H28   S    
C48   H6    S    
C67   C89   A    
C33   C36   A    
C56   C78   A    
C60   C62   A    
C75   H30   S    
C76   H31   S    
Cu1   N6    S    
C61   C63   A    
C92   C93   A    
C62   C64   A    
C86   H39   S    
C91   C96   A    
Cu2   O13   S    
C69   H11   S    
C45   H16   S    
C15   H34   S    
C50   N6    A    
C22   C25   A    
C29   C38   A    
C45   C67   A    
C31   C33   A    
C64   C70   A    
C35   C43   A    
C83   H37   S    
C54   C77   S    
C48   C50   A    
C60   C66   A    
C14   H23   S    
C22   C28   A    
C2    C91   S    
C42   C44   A    
C31   N3    A    
C52   C54   A    
C81   C82   A    
C77   C79   A    
C31   O7    S    
C59   C61   A    
C47   H5    S    
C74   C75   A    
C32   C35   A    
C29   O5    S    
C84   C85   A    
C4    C6    A    
C70   H13   S    
C91   C92   A    
C86   C87   A    
C72   C73   A    
C41   C65   A    
C85   C86   A    
C79   H32   S    
C57   N3    S    
C10   C13   A    
C19   H49   S    
C6    C34   A    
C40   N1    A    
C51   C53   A    
Cu1   O1    S    
C66   H1    S    
C82   H36   S    
C2    C4    A    
C75   C76   A    
C88   H41   S    
C62   C63   A    
C2    C78   A    
C59   O4    S    
C90   H42   S    
C74   H29   S    
C5    C23   A    
C8    C21   A    
C16   C67   S    
C68   H12   S    
C43   H2    S    
C92   H43   S    
C9    C11   A    
Cu2   O10   S    
C32   N4    A    
C6    N1    S    
C51   H9    S    
C22   H50   S    
C82   C83   A    
C13   C15   A    
C1    C26   S    
C4    H19   S    
C52   N6    A    
C84   C89   S    
C30   O6    S    
C87   H40   S    
C53   C71   S    
C40   O16   S    
C58   N1    A    
C29   N3    A    
C7    C9    A    
Cu2   N5    S    
C36   C37   A    
C19   C21   A    
C7    H22   S    
C49   N5    A    
C88   C90   A    
C80   C81   A    
C3    C5    A    
C12   O9    A    
C40   C64   A    
C49   H7    S    
C44   H3    S    
C17   O15   A    
C81   H35   S    
C39   C44   A    
C25   C27   A    
Cu1   O12   S    
C96   H48   S    
C72   H27   S    
C26   C28   A    
Cu1   O15   S    
C3    C89   A    
C12   C25   S    
C58   O3    S    
C94   H46   S    
C1    O1    A    
C71   C72   A    
C37   C39   A    
Cu1   O11   S    
C61   C68   A    
C8    H24   S    
C11   C28   S    
C16   O12   A    
C65   C69   A    
C32   O8    S    
C36   C38   A    
C17   C78   S    
C9    H25   S    
C56   H17   S    
C30   C39   A    
C18   C20   A    
C94   C95   A    
C42   H52   S    
C43   C46   A    
C38   C46   A    
Cu2   O9    S    
C24   H51   S    
C85   H38   S    
C41   O2    S    
Cu2   O14   S    
C16   O14   A    
C30   N4    A    
C21   H21   S    
C52   H10   S    
C8    C10   A    
C7    C20   A    
C50   H8    S    
C68   C70   A    
C13   C27   S    
C93   H44   S    
C54   C57   A    
