data_mof_unit_43848.cif
_audit_creation_date              2012-12-10T17:26:19-0500
_audit_creation_method            fapswitch 2.2
_symmetry_space_group_name_H-M    P1
_symmetry_Int_Tables_number       1
_space_group_crystal_system       triclinic
_cell_length_a                    10.111628
_cell_length_b                    10.532239
_cell_length_c                    27.674883
_cell_angle_alpha                 89.794256
_cell_angle_beta                  81.422694
_cell_angle_gamma                 94.607128
_cell_volume                      2904.57863933

loop_
_atom_site_label
_atom_site_type_symbol
_atom_type_description
_atom_site_fract_x
_atom_site_fract_y
_atom_site_fract_z
_atom_type_partial_charge
C1    C     C_R   0.555613 0.734701 0.497443 0.755296
C2    C     C_R   0.444591 0.265253 0.504610 0.743125
C3    C     C_R   0.556015 0.470879 0.895409 -0.151624
C4    C     C_R   0.554269 0.456120 0.099649 -0.152994
C5    C     C_R   0.584678 0.589142 0.869964 -0.133354
C6    C     C_R   0.486985 0.350673 0.127500 -0.132351
C7    C     C_R   0.628941 0.698035 0.894395 0.521324
C8    C     C_R   0.429371 0.246735 0.103711 0.526927
C9    C     C_R   0.518138 0.359373 0.870402 -0.091134
C10   C     C_R   0.612147 0.561508 0.123308 -0.086481
C11   C     C_R   0.504939 0.499487 0.646731 -0.258953
C12   C     C_R   0.496162 0.485341 0.353621 -0.268674
C13   C     C_R   0.619321 0.566314 0.020662 0.052200
C14   C     C_R   0.523263 0.349504 0.972520 0.050477
C15   C     C_R   0.511189 0.348867 0.024225 0.002178
C16   C     C_R   0.608695 0.574395 0.970339 0.000834
C17   C     C_R   0.562052 0.456844 0.048082 0.079271
C18   C     C_R   0.563491 0.464721 0.946104 0.080609
C19   C     C_R   0.685954 0.664537 0.044366 -0.249887
C20   C     C_R   0.494659 0.238686 0.946459 -0.256286
C21   C     C_R   0.683934 0.663331 0.094626 0.236545
C22   C     C_R   0.491469 0.241903 0.896476 0.223891
C23   C     C_R   0.500808 0.499836 0.594060 0.931347
C24   C     C_R   0.498967 0.498659 0.406017 0.949297
C25   C     C_R   0.637662 0.690301 0.943936 -0.322156
C26   C     C_R   0.444948 0.245371 0.052919 -0.314324
C27   C     C_2   0.586328 0.871874 0.501298 0.316443
C28   C     C_2   0.415377 0.128474 0.513963 0.310161
C29   C     C_2   0.501805 0.931538 0.533796 -0.166234
C30   C     C_2   0.507502 0.068716 0.533444 -0.174666
C31   C     C_2   0.924813 0.501815 0.506802 -0.026861
C32   C     C_2   0.070748 0.480952 0.499988 -0.073992
C33   C     C_R   0.567500 0.594891 0.820706 0.566798
C34   C     C_R   0.476064 0.354272 0.178574 0.543215
C35   C     C_R   0.509700 0.370619 0.820283 0.623963
C36   C     C_R   0.594880 0.560349 0.174674 0.613984
C37   C     C_R   0.396306 0.485100 0.731241 0.379713
C38   C     C_R   0.413070 0.537350 0.278468 0.403612
C39   C     C_R   0.386772 0.482492 0.681200 0.341860
C40   C     C_R   0.406020 0.547981 0.329420 0.364767
C41   C     C_R   0.630641 0.512490 0.662686 -0.300544
C42   C     C_R   0.587762 0.408588 0.327476 -0.319626
C43   C     C_R   0.640385 0.508494 0.712045 0.186510
C44   C     C_R   0.595031 0.396995 0.277432 0.212838
C45   C     C_R   0.523292 0.494488 0.746385 0.098415
C46   C     C_R   0.509164 0.461966 0.252649 0.066416
H1    H     H_    0.722372 0.524501 0.636747 0.214568
H2    H     H_    0.656111 0.358791 0.345896 0.224737
H3    H     H_    0.107943 0.404344 0.477277 0.152628
H4    H     H_    0.883743 0.563642 0.535362 0.165491
H5    H     H_    0.744667 0.742744 0.024168 0.161488
H6    H     H_    0.477049 0.146227 0.964099 0.169409
H7    H     H_    0.662415 0.778933 0.961195 0.169900
H8    H     H_    0.397591 0.163523 0.037153 0.163002
H9    H     H_    0.599299 0.119363 0.541715 0.179188
H10   H     H_    0.415611 0.880400 0.555761 0.184410
N1    N     N_R   0.532958 0.486655 0.797224 -0.327938
N2    N     N_R   0.526927 0.458861 0.200567 -0.340757
N3    N     N_2   0.842700 0.448890 0.480020 -0.037973
N4    N     N_2   0.157300 0.551110 0.519980 -0.039593
O1    O     O_R   0.431060 0.692470 0.504020 -0.586565
O2    O     O_R   0.568940 0.307530 0.495980 -0.585539
O3    O     O_R   0.651120 0.659650 0.491200 -0.616964
O4    O     O_R   0.348880 0.340350 0.508800 -0.628398
O5    O     O_R   0.389980 0.516390 0.577660 -0.545154
O6    O     O_R   0.610020 0.483610 0.422340 -0.590755
O7    O     O_R   0.610040 0.483570 0.564830 -0.631904
O8    O     O_R   0.389960 0.516430 0.435170 -0.601840
O9    O     O_2   0.584877 0.707198 0.796011 -0.498983
O10   O     O_2   0.413490 0.255626 0.206547 -0.500951
O11   O     O_2   0.643170 0.659495 0.199218 -0.485296
O12   O     O_2   0.478504 0.267801 0.794202 -0.508582
Zn1   Zn    Zn3+2 0.353060 0.521910 0.508560 1.000219
Zn2   Zn    Zn3+2 0.646940 0.478090 0.491440 0.986942
O13   O     O_3   0.298595 0.060423 0.504177 -0.591507
C47   C     C_3   0.264254 0.098688 0.458935 0.128054
H11   H     H_    0.354293 0.123512 0.430955 0.119842
H12   H     H_    0.202456 0.181548 0.464237 0.165194
C48   C     C_3   0.181981 0.989302 0.439063 -0.762074
H13   H     H_    0.089200 0.962805 0.465161 0.272756
H14   H     H_    0.154029 0.017895 0.403518 0.206897
H15   H     H_    0.242340 0.905628 0.433406 0.270438
O14   O     O_3   0.695184 0.941199 0.473360 -0.594833
C49   C     C_3   0.731855 0.885887 0.427272 0.102825
H16   H     H_    0.642452 0.850630 0.410445 0.136327
H17   H     H_    0.796237 0.806717 0.430919 0.171177
C50   C     C_3   0.812650 0.985422 0.392623 -0.736752
H18   H     H_    0.903152 0.022938 0.407900 0.263796
H19   H     H_    0.844723 0.942009 0.356703 0.214053
H20   H     H_    0.750351 0.064977 0.387194 0.276160
I1    I     I_    0.106422 0.706960 0.563120 -0.251115
I2    I     I_    0.901916 0.327439 0.422967 -0.405595
I3    I     I_    0.834659 0.519843 0.732765 -0.372557
I4    I     I_    0.746521 0.289207 0.240331 -0.305671
O15   O     O_3   0.657196 0.815294 0.870882 -0.545670
C51   C     C_3   0.797629 0.837065 0.857711 0.111811
H21   H     H_    0.838438 0.759804 0.833892 0.156879
H22   H     H_    0.848569 0.843598 0.890743 0.120509
C52   C     C_3   0.829396 0.962497 0.829367 -0.675852
H23   H     H_    0.792017 0.042001 0.852428 0.253193
H24   H     H_    0.939607 0.980406 0.818577 0.197587
H25   H     H_    0.780768 0.958676 0.795906 0.285567
O16   O     O_3   0.362228 0.142294 0.129665 -0.546883
C53   C     C_3   0.222662 0.153019 0.133427 0.108055
H26   H     H_    0.189595 0.146431 0.096832 0.130098
H27   H     H_    0.194589 0.244747 0.150493 0.138561
C54   C     C_3   0.148146 0.044568 0.165483 -0.672499
H28   H     H_    0.177852 0.049223 0.202531 0.273720
H29   H     H_    0.038261 0.052176 0.168773 0.223725
H30   H     H_    0.172097 0.951501 0.149087 0.249433
O17   O     O_3   0.323842 0.632779 0.354337 -0.568814
C55   C     C_3   0.191948 0.574115 0.364904 0.166474
H31   H     H_    0.188608 0.488530 0.388856 0.146345
H32   H     H_    0.151593 0.544647 0.331175 0.147953
C56   C     C_3   0.100713 0.668327 0.391113 -0.788801
H33   H     H_    0.104995 0.756231 0.368451 0.258696
H34   H     H_    0.995528 0.625594 0.397745 0.221689
H35   H     H_    0.132778 0.693270 0.426763 0.261994
O18   O     O_3   0.261993 0.465681 0.666307 -0.571500
C57   C     C_3   0.228280 0.333783 0.662101 0.165855
H36   H     H_    0.201876 0.288383 0.699028 0.184696
H37   H     H_    0.311867 0.285119 0.640861 0.107786
C58   C     C_3   0.107532 0.314438 0.635295 -0.722535
H38   H     H_    0.132395 0.356841 0.597936 0.265820
H39   H     H_    0.079009 0.211028 0.632379 0.209731
H40   H     H_    0.021148 0.360301 0.655409 0.272788
O19   O     O_3   0.339603 0.616009 0.254300 -0.553904
C59   C     C_3   0.244079 0.543416 0.231021 0.069045
H41   H     H_    0.204933 0.452577 0.250947 0.130643
H42   H     H_    0.288683 0.521719 0.193204 0.149450
C60   C     C_3   0.126010 0.622081 0.227219 -0.728896
H43   H     H_    0.077555 0.647933 0.264130 0.251621
H44   H     H_    0.050704 0.566285 0.208723 0.223838
H45   H     H_    0.161043 0.710750 0.205635 0.264557
O20   O     O_3   0.282137 0.467913 0.765665 -0.589395
C61   C     C_3   0.230037 0.587199 0.775160 0.136859
H46   H     H_    0.184478 0.619292 0.743470 0.199177
H47   H     H_    0.308878 0.661225 0.783057 0.160914
C62   C     C_3   0.121768 0.574334 0.819776 -0.771460
H48   H     H_    0.165819 0.545909 0.852240 0.252375
H49   H     H_    0.077678 0.666877 0.826977 0.199998
H50   H     H_    0.041135 0.501033 0.813516 0.278202
I5    I     I_    0.797874 0.821972 0.120462 -0.273526
I6    I     I_    0.440898 0.059868 0.867147 -0.219986

loop_
_geom_bond_atom_site_label_1
_geom_bond_atom_site_label_2
_ccdc_geom_bond_type
C50   H18   S    
C27   C29   D    
C8    C26   A    
C14   C18   A    
O15   C51   S    
C49   C50   S    
C60   H45   S    
C59   H41   S    
C55   H32   S    
C38   O19   S    
C58   H38   S    
C45   N1    S    
C2    O4    A    
C47   H12   S    
C19   C21   A    
C25   H7    S    
C36   N2    A    
C62   H50   S    
C9    C22   A    
C58   H39   S    
C31   N3    D    
C56   H33   S    
O6    Zn2   S    
C51   C52   S    
C1    O3    A    
N4    Zn1   S    
O5    Zn1   S    
C3    C18   A    
C23   O7    A    
C55   H31   S    
C12   C42   A    
C52   H23   S    
C44   C46   A    
C56   H34   S    
C51   H22   S    
O4    Zn1   S    
C47   C48   S    
C27   O14   S    
C34   O10   S    
C57   C58   S    
C24   O6    A    
C1    C27   S    
C29   H10   S    
C46   N2    S    
C41   C43   A    
C42   C44   A    
C61   C62   S    
C26   H8    S    
C53   H27   S    
C53   H26   S    
C57   H37   S    
C40   O17   S    
C10   C21   A    
C62   H48   S    
C13   C19   A    
C14   C20   A    
O20   C61   S    
C47   H11   S    
C21   I5    S    
C61   H47   S    
C5    C7    A    
C15   C26   A    
C6    C8    A    
O1    Zn1   S    
O8    Zn1   S    
C6    C34   A    
C1    O1    A    
C12   C40   A    
O13   C47   S    
C29   C30   S    
C3    C9    A    
O14   C49   S    
C54   H28   S    
C56   H35   S    
C51   H21   S    
C37   O20   S    
C41   H1    S    
O7    Zn2   S    
C42   H2    S    
C49   H16   S    
C11   C39   A    
C43   C45   A    
N3    Zn2   S    
C4    C17   A    
C4    C6    A    
C52   H24   S    
C20   C22   A    
C35   O12   S    
C50   H19   S    
C54   H30   S    
C50   H20   S    
C32   N4    D    
C31   H4    S    
C4    C10   A    
C60   H43   S    
C59   C60   S    
C3    C5    A    
C57   H36   S    
C9    C35   A    
N4    I1    S    
C16   C25   A    
C15   C17   A    
C33   N1    A    
O17   C55   S    
C31   C32   S    
C49   H17   S    
C61   H46   S    
C60   H44   S    
C59   H42   S    
C48   H15   S    
C58   H40   S    
O18   C57   S    
C36   O11   S    
O3    Zn2   S    
C33   O9    S    
C7    O15   S    
C30   H9    S    
C12   C24   S    
C48   H14   S    
C7    C25   A    
C13   C17   A    
C35   N1    A    
C16   C18   A    
C23   O5    A    
C28   C30   D    
C37   C39   A    
C38   C40   A    
C62   H49   S    
C54   H29   S    
C39   O18   S    
C11   C23   S    
C43   I3    S    
C10   C36   A    
C11   C41   A    
N3    I2    S    
C53   C54   S    
C8    O16   S    
C32   H3    S    
C38   C46   A    
C44   I4    S    
C24   O8    A    
C48   H13   S    
C5    C33   A    
C19   H5    S    
C52   H25   S    
C20   H6    S    
C13   C16   A    
C22   I6    S    
O16   C53   S    
C34   N2    A    
C14   C15   A    
O2    Zn2   S    
C2    C28   S    
C28   O13   S    
C37   C45   A    
C55   C56   S    
O19   C59   S    
C2    O2    A    
