data_mof_unit_46185.cif
_audit_creation_date              2013-03-05T15:48:43-0500
_audit_creation_method            fapswitch 2.2
_symmetry_space_group_name_H-M    P1
_symmetry_Int_Tables_number       1
_space_group_crystal_system       triclinic
_cell_length_a                    22.379543
_cell_length_b                    6.943693
_cell_length_c                    19.370117
_cell_angle_alpha                 89.988963
_cell_angle_beta                  99.144005
_cell_angle_gamma                 89.989667
_cell_volume                      2971.80007135

loop_
_atom_site_label
_atom_site_type_symbol
_atom_site_description
_atom_site_fract_x
_atom_site_fract_y
_atom_site_fract_z
_atom_type_partial_charge
O1    O     O_R   0.448420 0.506120 0.415750 -0.588881
O2    O     O_R   0.551580 0.006120 0.584250 -0.589066
O3    O     O_R   0.436490 0.174470 0.555610 -0.588896
O4    O     O_R   0.563510 0.674470 0.444390 -0.588598
C1    C     C_R   0.421124 0.344741 0.575774 0.959191
C2    C     C_R   0.578876 0.844737 0.424225 0.959241
O5    O     O_R   0.441310 0.176330 0.414520 -0.588752
O6    O     O_R   0.558690 0.676330 0.585480 -0.588337
O7    O     O_R   0.556430 0.007110 0.442150 -0.579302
O8    O     O_R   0.443570 0.507110 0.557850 -0.579040
C3    C     C_R   0.426904 0.345291 0.388355 0.951459
C4    C     C_R   0.573117 0.845181 0.611629 0.951489
O9    O     O_3   0.537770 0.339560 0.509230 -0.270344
O10   O     O_3   0.462230 0.839560 0.490770 -0.270632
V1    V     V_3+5 0.492990 0.064280 0.498290 1.199929
V2    V     V_3+5 0.507010 0.564280 0.501710 1.200554
C5    C     C_R   0.865535 0.014925 0.698115 0.539174
C6    C     C_R   0.135652 0.526593 0.301031 0.547482
H1    H     H_    0.949529 0.061579 0.765758 0.181764
H2    H     H_    0.050588 0.561686 0.234321 0.181633
H3    H     H_    0.779506 0.016961 0.581586 0.140153
H4    H     H_    0.217561 0.475642 0.419179 0.145337
C7    C     C_R   0.882907 0.943558 0.822362 -0.414521
C8    C     C_R   0.117159 0.443680 0.177581 -0.415737
C9    C     C_R   0.588858 0.833601 0.739927 -0.161229
C10   C     C_R   0.411978 0.345241 0.260040 -0.160454
C11   C     C_R   0.623314 0.865164 0.805102 -0.263623
C12   C     C_R   0.377765 0.381923 0.195089 -0.263487
C13   C     C_R   0.685377 0.908677 0.811768 0.589835
C14   C     C_R   0.315488 0.422210 0.188415 0.588099
C15   C     C_R   0.714953 0.900469 0.751853 0.053320
C16   C     C_R   0.285546 0.405759 0.247803 0.052818
C17   C     C_R   0.677536 0.891252 0.684710 0.017222
C18   C     C_R   0.322437 0.387933 0.315053 0.016821
C19   C     C_R   0.779650 0.918175 0.755727 -0.007515
C20   C     C_R   0.220890 0.423969 0.243550 -0.005276
C21   C     C_R   0.803202 0.969035 0.693902 -0.107310
C22   C     C_R   0.197282 0.472133 0.305453 -0.117962
C23   C     C_R   0.763997 0.975827 0.629546 -0.131309
C24   C     C_R   0.234973 0.457242 0.370612 -0.142732
C25   C     C_R   0.703286 0.927748 0.624654 -0.149941
C26   C     C_R   0.295700 0.409044 0.375323 -0.145824
C27   C     C_R   0.821862 0.880727 0.817963 0.542748
C28   C     C_R   0.178780 0.387420 0.181155 0.543708
C29   C     C_R   0.902913 0.015253 0.762800 -0.207099
C30   C     C_R   0.097197 0.515289 0.237206 -0.206873
C31   C     C_R   0.614452 0.854411 0.679257 -0.197238
C32   C     C_R   0.385764 0.355530 0.320605 -0.197743
H5    H     H_    0.540876 0.804857 0.736590 0.172738
H6    H     H_    0.460190 0.320545 0.263471 0.171814
H7    H     H_    0.600712 0.864625 0.850566 0.167885
H8    H     H_    0.400721 0.388414 0.149959 0.167817
H9    H     H_    0.675942 0.928349 0.573225 0.096061
H10   H     H_    0.322153 0.395567 0.427005 0.092764
C33   C     C_3   0.803912 0.745041 0.258031 -0.263803
C34   C     C_3   0.196089 0.245115 0.741965 -0.263806
C35   C     C_3   0.787209 0.108571 0.248228 0.083174
C36   C     C_3   0.212785 0.608617 0.751777 0.083428
C37   C     C_3   0.736973 0.093517 0.296529 0.251440
C38   C     C_3   0.263018 0.593571 0.703471 0.251201
H11   H     H_    0.782675 0.772513 0.364314 0.219925
H12   H     H_    0.217324 0.272686 0.635682 0.221249
H13   H     H_    0.851056 0.750211 0.286442 0.237769
H14   H     H_    0.148945 0.250368 0.713554 0.237904
H15   H     H_    0.774671 0.224761 0.208883 0.076625
H16   H     H_    0.225325 0.724742 0.791125 0.076722
H17   H     H_    0.758558 0.111813 0.351960 0.153451
H18   H     H_    0.241428 0.611950 0.648041 0.153306
C39   C     C_1   0.624225 0.855470 0.378388 -0.234960
C40   C     C_1   0.375773 0.355486 0.621608 -0.235425
C41   C     C_3   0.790574 0.917069 0.206597 0.101194
C42   C     C_3   0.209424 0.417065 0.793402 0.100739
C43   C     C_3   0.758303 0.741034 0.310842 -0.561519
C44   C     C_3   0.241697 0.241124 0.689153 -0.561577
C45   C     C_3   0.706399 0.889711 0.290177 0.053331
C46   C     C_3   0.293598 0.389730 0.709819 0.053371
C47   C     C_3   0.678563 0.844219 0.211917 0.239843
C48   C     C_3   0.321437 0.344126 0.788077 0.239751
C49   C     C_3   0.726831 0.882545 0.163221 -0.584126
C50   C     C_3   0.273168 0.382428 0.836775 -0.583501
C51   C     C_1   0.661408 0.869039 0.339137 0.149132
C52   C     C_1   0.338588 0.369065 0.660857 0.149352
C53   C     C_1   0.837078 0.929751 0.159340 0.073979
C54   C     C_1   0.162921 0.429737 0.840661 0.074251
C55   C     C_1   0.875145 0.939773 0.121089 -0.236428
C56   C     C_1   0.124855 0.439760 0.878912 -0.236428
H19   H     H_    0.728152 0.757025 0.127738 0.200443
H20   H     H_    0.271851 0.256860 0.872254 0.200767
H21   H     H_    0.713767 0.009886 0.129223 0.205487
H22   H     H_    0.286229 0.509712 0.870778 0.205513
H23   H     H_    0.668044 0.687269 0.208918 0.104355
H24   H     H_    0.331962 0.187165 0.791074 0.104509
H25   H     H_    0.799910 0.608242 0.227731 0.187967
H26   H     H_    0.200092 0.108274 0.772261 0.187977
H27   H     H_    0.739408 0.593367 0.312583 0.237708
H28   H     H_    0.260595 0.093443 0.687411 0.237415
O11   O     O_R   0.056480 0.288780 0.942210 -0.595834
O12   O     O_R   0.943520 0.788780 0.057790 -0.595940
O13   O     O_R   0.058700 0.616820 0.085490 -0.583723
O14   O     O_R   0.941300 0.116820 0.914510 -0.582400
C57   C     C_R   0.073718 0.448379 0.111328 0.989286
C58   C     C_R   0.926187 0.948393 0.888741 0.989512
O15   O     O_R   0.063520 0.618570 0.944410 -0.581943
O16   O     O_R   0.936480 0.118570 0.055590 -0.582124
O17   O     O_R   0.948420 0.787670 0.915740 -0.596583
O18   O     O_R   0.051580 0.287670 0.084260 -0.595304
C59   C     C_R   0.078989 0.449766 0.924126 0.977013
C60   C     C_R   0.921011 0.949769 0.075876 0.977180
O19   O     O_3   0.962260 0.453430 0.990800 -0.271999
O20   O     O_3   0.037740 0.953430 0.009200 -0.271913
V3    V     V_3+5 0.007000 0.728750 0.001710 1.202944
V4    V     V_3+5 0.993000 0.228750 0.998290 1.203805
N1    N     N_R   0.846203 0.160925 0.288764 0.246928
O21   O     O_R   0.868853 0.066634 0.344941 -0.382431
O22   O     O_R   0.875765 0.307800 0.269666 -0.393287
N2    N     N_R   0.153788 0.661088 0.711247 0.246494
O23   O     O_R   0.131135 0.566888 0.655071 -0.381081
O24   O     O_R   0.124226 0.807966 0.730353 -0.394732
O25   O     O_3   0.694080 0.242775 0.283347 -0.737000
H29   H     H_    0.682288 0.256822 0.232068 0.342405
O26   O     O_3   0.305907 0.742775 0.716650 -0.737173
H30   H     H_    0.317702 0.756754 0.767929 0.342479
N3    N     N_R   0.621536 0.944425 0.185011 0.243000
O27   O     O_R   0.591344 0.041010 0.225598 -0.377722
O28   O     O_R   0.596159 0.913300 0.120764 -0.361505
N4    N     N_R   0.378459 0.444262 0.814982 0.243074
O29   O     O_R   0.408652 0.540845 0.774393 -0.378093
O30   O     O_R   0.403834 0.413062 0.879232 -0.361177
O31   O     O_3   0.891553 0.066051 0.640839 -0.704449
H31   H     H_    0.875176 0.980445 0.601540 0.326526
O32   O     O_3   0.111196 0.595646 0.357240 -0.702085
H32   H     H_    0.142757 0.668576 0.388124 0.320378
O33   O     O_3   0.803605 0.769113 0.870027 -0.712147
H33   H     H_    0.837020 0.752622 0.909508 0.314646
O34   O     O_3   0.197742 0.281389 0.128134 -0.712001
H34   H     H_    0.164147 0.262635 0.089002 0.312439
O35   O     O_3   0.715272 0.982063 0.874140 -0.717195
H35   H     H_    0.688076 0.978805 0.909881 0.326564
O36   O     O_3   0.285557 0.500038 0.126806 -0.716614
H36   H     H_    0.313138 0.503666 0.091484 0.326748

loop_
_geom_bond_atom_site_label_1
_geom_bond_atom_site_label_2
_geom_bond_distance
_ccdc_geom_bond_type
C2    C39   1.452658 S    
C22   C24   1.405972 A    
N4    O29   1.301252 A    
C7    C29   1.394064 A    
C11   C13   1.407229 A    
C56   C59   1.452977 S    
O1    C3    1.296067 A    
C50   H22   1.113332 S    
C33   H25   1.112796 S    
O2    C4    1.296430 A    
C2    O7    1.303634 A    
C49   H19   1.113370 S    
C3    C32   1.480146 S    
C7    C27   1.423809 A    
O34   H34   0.987783 S    
C23   C25   1.387698 A    
O18   V4    1.991412 S    
C34   H26   1.112790 S    
C44   C46   1.557868 S    
C16   C20   1.441740 A    
C19   C21   1.427296 A    
C5    C29   1.391589 A    
O31   H31   0.989300 S    
C10   H6    1.084031 S    
C48   C50   1.565657 S    
N3    O28   1.301333 A    
C7    C58   1.482123 S    
C36   C38   1.576246 S    
H2    C30   1.084575 S    
O12   C60   1.296972 A    
N2    O23   1.301526 A    
C58   O17   1.297469 A    
O15   V3    1.965538 S    
C8    C57   1.482087 S    
C27   O33   1.383993 S    
O20   V3    1.702060 S    
O20   V4    2.152632 S    
C37   H17   1.112461 S    
C36   H16   1.114539 S    
C18   C26   1.401614 A    
C34   C42   1.553518 S    
C33   H13   1.110309 S    
C37   O25   1.407980 S    
C34   H14   1.110302 S    
O12   V3    1.965312 S    
C55   C60   1.452982 S    
C19   C27   1.432187 A    
C9    C31   1.394258 A    
C10   C32   1.394383 A    
C28   O34   1.384062 S    
C24   C26   1.388415 A    
O17   V3    1.991181 S    
H4    C24   1.081528 S    
O6    V2    1.995068 S    
C36   N2    1.470576 S    
C43   C45   1.557873 S    
C6    O32   1.379998 S    
C4    C31   1.480106 S    
C6    C30   1.391800 A    
C41   C49   1.554887 S    
C11   H7    1.083046 S    
C41   C53   1.493867 S    
C47   C49   1.565651 S    
C21   C23   1.406537 A    
C34   C44   1.555920 S    
C5    O31   1.378825 S    
C46   C48   1.576664 S    
C44   H28   1.111744 S    
N3    O27   1.301246 A    
C17   C25   1.400903 A    
O4    C2    1.308163 A    
O19   V4    1.701782 S    
C46   C52   1.495766 S    
O16   V4    1.965550 S    
O11   V4    1.965331 S    
C45   C51   1.495757 S    
C35   N1    1.470575 S    
O5    V1    1.994660 S    
C48   H24   1.114563 S    
C38   C46   1.568336 S    
O11   C59   1.296987 A    
O4    V2    1.965509 S    
O5    C3    1.298052 A    
C1    C40   1.452664 S    
C47   N3    1.474003 S    
H3    C23   1.080511 S    
O6    C4    1.297624 A    
O13   V3    1.994677 S    
C15   C17   1.432015 A    
O1    V2    1.990308 S    
C5    C21   1.420610 A    
C35   C41   1.563265 S    
O25   H29   0.991161 S    
O2    V1    1.990083 S    
C45   C47   1.576668 S    
C25   H9    1.083113 S    
O26   H30   0.991163 S    
C42   C54   1.493864 S    
C53   C55   1.216622 T    
O14   C58   1.295373 A    
O14   V4    1.995083 S    
O9    V1    2.153196 S    
O33   H33   0.987594 S    
C17   C31   1.422153 A    
C15   C19   1.443153 A    
C20   C28   1.432291 A    
C35   C37   1.576240 S    
C18   C32   1.422038 A    
C43   H27   1.111741 S    
O32   H32   0.989513 S    
C48   N4    1.474005 S    
C37   C45   1.568334 S    
O16   C60   1.300491 A    
O3    V1    1.965497 S    
N1    O21   1.301530 A    
C57   O18   1.297498 A    
C47   H23   1.114565 S    
N4    O30   1.301333 A    
C14   O36   1.382179 S    
O13   C57   1.295218 A    
C13   C15   1.425637 A    
C35   H15   1.114535 S    
O3    C1    1.308202 A    
O36   H36   0.991955 S    
H1    C29   1.084554 S    
C9    C11   1.388216 A    
C13   O35   1.382157 S    
O35   H35   0.992027 S    
C10   C12   1.388394 A    
H11   C43   1.112924 S    
O19   V3    2.153025 S    
O7    V1    1.961247 S    
C8    C30   1.394571 A    
C1    O8    1.303650 A    
C50   H20   1.113367 S    
O8    V2    1.961264 S    
C26   H10   1.083043 S    
C20   C22   1.424826 A    
C14   C16   1.424887 A    
C12   H8    1.083009 S    
C36   C42   1.563255 S    
C8    C28   1.424301 A    
C54   C56   1.216619 T    
C12   C14   1.407136 A    
N2    O24   1.300968 A    
O10   V2    2.152803 S    
C6    C22   1.419479 A    
C38   O26   1.407981 S    
C40   C52   1.216757 T    
C9    H5    1.084023 S    
C49   H21   1.113324 S    
C39   C51   1.216753 T    
C33   C43   1.555924 S    
C38   H18   1.112455 S    
C42   C50   1.554876 S    
O9    V2    1.702224 S    
O10   V1    1.702503 S    
H12   C44   1.112926 S    
O15   C59   1.300523 A    
C33   C41   1.553513 S    
C16   C18   1.432442 A    
N1    O22   1.300969 A    
