data_mof_unit_64982.cif
_audit_creation_date              2012-12-10T21:35:46-0500
_audit_creation_method            fapswitch 2.2
_symmetry_space_group_name_H-M    P1
_symmetry_Int_Tables_number       1
_space_group_crystal_system       triclinic
_cell_length_a                    16.120482
_cell_length_b                    15.787655
_cell_length_c                    16.914165
_cell_angle_alpha                 90.245459
_cell_angle_beta                  88.073654
_cell_angle_gamma                 92.253027
_cell_volume                      4298.95541735

loop_
_atom_site_label
_atom_site_type_symbol
_atom_type_description
_atom_site_fract_x
_atom_site_fract_y
_atom_site_fract_z
_atom_type_partial_charge
C1    C     C_R   0.510740 0.501118 0.347454 0.944952
C2    C     C_3   0.577078 0.951890 0.445871 0.262200
C3    C     C_3   0.498740 0.916825 0.497815 -0.089703
C4    C     C_3   0.504969 0.951571 0.586066 0.713479
C5    C     C_3   0.515834 0.050528 0.582655 -0.288386
C6    C     C_1   0.498906 0.824936 0.498998 -0.058644
C7    C     C_1   0.500765 0.175070 0.497968 0.007365
C8    C     C_1   0.500785 0.250023 0.499065 -0.127018
C9    C     C_R   0.515624 0.497909 0.261843 -0.138356
C10   C     C_R   0.458625 0.543042 0.218425 -0.158501
C11   C     C_R   0.452711 0.527810 0.137474 -0.040207
C12   C     C_R   0.500275 0.338377 0.499961 0.932185
C13   C     C_R   0.507633 0.471701 0.099742 0.228865
C14   C     C_R   0.564802 0.428754 0.142701 -0.290443
C15   C     C_R   0.569486 0.441262 0.224198 0.429355
C16   C     C_R   0.510759 0.438941 0.860646 -0.185542
C17   C     C_R   0.500924 0.432345 0.779955 -0.082137
C18   C     C_R   0.503593 0.517724 0.899016 0.168243
C19   C     C_R   0.483736 0.504962 0.736812 -0.183525
C20   C     C_R   0.474713 0.584421 0.774642 0.376953
C21   C     C_R   0.485595 0.590038 0.855985 -0.063321
C22   C     C_R   0.239120 0.544772 0.535482 -0.140265
C23   C     C_R   0.489218 0.500363 0.652053 0.866377
C24   C     C_R   0.153059 0.550828 0.528552 0.346373
C25   C     C_R   0.109891 0.495007 0.476239 0.035027
C26   C     C_R   0.157663 0.439187 0.428482 0.214343
C27   C     C_R   0.245036 0.437135 0.437492 0.540108
C28   C     C_R   0.846983 0.447138 0.474683 -0.116048
C29   C     C_R   0.760100 0.449819 0.470358 -0.019832
C30   C     C_R   0.890882 0.509587 0.519222 0.227924
C31   C     C_R   0.757065 0.570018 0.554080 -0.029375
C32   C     C_R   0.844009 0.570744 0.559982 -0.126822
C33   C     C_R   0.499711 0.661628 0.500040 0.883999
C34   C     C_3   0.570115 0.051744 0.435489 0.259709
C35   C     C_3   0.410914 0.046998 0.472012 -0.086669
C36   C     C_3   0.414874 0.946941 0.460696 0.243361
C37   C     C_1   0.499178 0.749984 0.499627 -0.138485
C38   C     C_3   0.500340 0.083027 0.496503 -0.076200
H1    H     H_    0.525176 0.382685 0.893219 0.179338
H2    H     H_    0.605597 0.385441 0.112281 0.159528
H3    H     H_    0.726239 0.402013 0.436877 0.173525
H4    H     H_    0.721125 0.616655 0.585679 0.154419
H5    H     H_    0.272020 0.587520 0.574831 0.201376
H6    H     H_    0.468578 0.077634 0.623911 0.202613
N1    N     N_2   0.506718 0.458035 0.017864 -0.165024
N2    N     N_2   0.511651 0.526298 0.981346 -0.165309
N3    N     N_R   0.283090 0.489740 0.490280 -0.168268
N4    N     N_2   0.021260 0.495120 0.467433 -0.163748
N5    N     N_2   0.979200 0.509241 0.529340 -0.129879
N6    N     N_R   0.716930 0.510260 0.509710 -0.107401
O1    O     O_R   0.577460 0.503670 0.387340 -0.577085
O2    O     O_R   0.438160 0.497080 0.381100 -0.579853
O3    O     O_R   0.569680 0.380440 0.503120 -0.619212
O4    O     O_R   0.430380 0.373850 0.496890 -0.563606
O5    O     O_R   0.561840 0.502920 0.618900 -0.610089
O6    O     O_R   0.422540 0.496330 0.612660 -0.623893
O7    O     O_R   0.569620 0.626150 0.503110 -0.610893
O8    O     O_R   0.430320 0.619560 0.496880 -0.628873
Zn1   Zn    Zn3+2 0.593020 0.504400 0.504170 0.997582
Zn2   Zn    Zn3+2 0.406980 0.495600 0.495830 1.014889
C39   C     C_1   0.581662 0.909269 0.367420 0.395213
N7    N     N_1   0.585584 0.875895 0.306405 -0.187886
C40   C     C_1   0.651364 0.098253 0.446944 0.170675
N8    N     N_1   0.714305 0.134479 0.455334 -0.157765
O9    O     O_3   0.651496 0.929513 0.481168 -0.745398
H7    H     H_    0.665288 0.968727 0.524798 0.372871
O10   O     O_3   0.431247 0.931983 0.631023 -0.758197
H8    H     H_    0.424374 0.869466 0.635808 0.343450
C41   C     C_1   0.510687 0.350751 0.742104 0.211049
N9    N     N_1   0.518481 0.285558 0.711776 -0.197762
O11   O     O_3   0.623559 0.396701 0.268454 -0.752576
H9    H     H_    0.656118 0.359448 0.232868 0.340583
O12   O     O_3   0.458360 0.657927 0.734441 -0.759672
H10   H     H_    0.444305 0.644780 0.679194 0.328394
C42   C     C_1   0.388419 0.566950 0.093761 0.240230
N10   N     N_1   0.337132 0.598133 0.058961 -0.163814
C43   C     C_1   0.477632 0.670808 0.895719 0.323907
N11   N     N_1   0.471251 0.735382 0.927535 -0.148682
O13   O     O_3   0.545727 0.071573 0.358301 -0.736324
H11   H     H_    0.593004 0.063957 0.319957 0.342333
C44   C     C_1   0.406600 0.605385 0.256706 0.237080
N12   N     N_1   0.365259 0.655039 0.287235 -0.177470
C45   C     C_1   0.887579 0.376537 0.437944 0.221520
N13   N     N_1   0.919523 0.319445 0.408616 -0.148847
O14   O     O_3   0.121723 0.386301 0.372753 -0.746564
H12   H     H_    0.063952 0.402137 0.364560 0.373656
O15   O     O_3   0.294330 0.384279 0.392751 -0.710338
H13   H     H_    0.259725 0.348923 0.357249 0.375400
O16   O     O_3   0.115204 0.614547 0.570450 -0.709852
H14   H     H_    0.069337 0.634847 0.538941 0.358956
C46   C     C_1   0.884207 0.634656 0.608190 0.223121
N14   N     N_1   0.916464 0.685941 0.646871 -0.131434
C47   C     C_1   0.347005 0.071145 0.532856 0.125761
N15   N     N_1   0.297369 0.090040 0.580056 -0.122131
C48   C     C_1   0.382938 0.087686 0.398945 0.450599
N16   N     N_1   0.361024 0.119478 0.342152 -0.140127
O17   O     O_3   0.414750 0.927393 0.378992 -0.742023
H15   H     H_    0.413337 0.864766 0.372215 0.342551
C49   C     C_1   0.339913 0.901406 0.496889 0.228171
N17   N     N_1   0.281884 0.865951 0.524623 -0.141570
C50   C     C_1   0.594777 0.084009 0.615363 0.274287
N18   N     N_1   0.656151 0.110275 0.641371 -0.141401
O18   O     O_3   0.572408 0.917429 0.625191 -0.728479
H16   H     H_    0.559593 0.856678 0.636628 0.357027

loop_
_geom_bond_atom_site_label_1
_geom_bond_atom_site_label_2
_ccdc_geom_bond_type
C30   C32   A    
O15   H13   S    
C17   C41   S    
C47   N15   T    
C31   H4    S    
O5    Zn1   S    
C18   C21   A    
O12   H10   S    
C48   N16   T    
C2    O9    S    
C24   O16   S    
O17   H15   S    
O3    Zn1   S    
C7    C8    T    
O4    Zn2   S    
C43   N11   T    
C26   C27   A    
C33   O8    A    
C45   N13   T    
N6    Zn1   S    
C28   C29   A    
O7    Zn1   S    
C32   C46   S    
O8    Zn2   S    
C4    O18   S    
O2    Zn2   S    
N3    Zn2   S    
C19   C20   A    
C16   C17   A    
C36   O17   S    
C9    C10   A    
C12   O3    A    
C2    C39   S    
C3    C6    S    
C22   N3    A    
C5    C38   S    
C28   C45   S    
C39   N7    T    
C18   N2    S    
C44   N12   T    
C29   N6    A    
C35   C47   S    
C5    C50   S    
C40   N8    T    
O10   H8    S    
C50   N18   T    
C23   O6    A    
C35   C38   S    
C1    C9    S    
C24   C25   A    
C46   N14   T    
C25   C26   A    
O14   H12   S    
C33   C37   S    
O6    Zn2   S    
C35   C36   S    
C19   C23   S    
C42   N10   T    
C34   O13   S    
C49   N17   T    
C8    C12   S    
C6    C37   T    
C27   O15   S    
C1    O1    A    
C25   N4    S    
N4    N5    D    
C5    H6    S    
C22   C24   A    
O1    Zn1   S    
C31   N6    A    
C3    C4    S    
C27   N3    A    
C33   O7    A    
C29   H3    S    
C34   C38   S    
C30   N5    S    
C31   C32   A    
C4    C5    S    
C4    O10   S    
C23   O5    A    
C35   C48   S    
C15   O11   S    
C10   C44   S    
C28   C30   A    
C2    C3    S    
C9    C15   A    
O11   H9    S    
C11   C42   S    
C13   N1    S    
C11   C13   A    
C2    C34   S    
C3    C36   S    
C26   O14   S    
C34   C40   S    
C17   C19   A    
C7    C38   S    
C20   O12   S    
C36   C49   S    
C41   N9    T    
C1    O2    A    
C10   C11   A    
C16   H1    S    
C14   H2    S    
O13   H11   S    
N1    N2    D    
C20   C21   A    
C16   C18   A    
O9    H7    S    
C21   C43   S    
O18   H16   S    
C14   C15   A    
O16   H14   S    
C13   C14   A    
C22   H5    S    
C12   O4    A    
