data_mof_unit_44443.cif
_audit_creation_date              2013-03-05T15:49:45-0500
_audit_creation_method            fapswitch 2.2
_symmetry_space_group_name_H-M    P1
_symmetry_Int_Tables_number       1
_space_group_crystal_system       triclinic
_cell_length_a                    12.029317
_cell_length_b                    12.867406
_cell_length_c                    13.124576
_cell_angle_alpha                 87.033487
_cell_angle_beta                  113.310292
_cell_angle_gamma                 93.790066
_cell_volume                      1860.87462582

loop_
_atom_site_label
_atom_site_type_symbol
_atom_site_description
_atom_site_fract_x
_atom_site_fract_y
_atom_site_fract_z
_atom_type_partial_charge
O1    O     O_R   0.579910 0.341070 0.505280 -0.632673
O2    O     O_R   0.388440 0.353740 0.492580 -0.575536
C1    C     C_R   0.477479 0.299471 0.499284 0.905755
O3    O     O_R   0.643280 0.490550 0.663120 -0.628386
O4    O     O_R   0.451810 0.503220 0.650420 -0.569260
C2    C     C_R   0.567196 0.500516 0.708340 0.878909
Zn1   Zn    Zn3+2 0.627850 0.491540 0.508480 0.937627
Zn2   Zn    Zn3+2 0.372150 0.508460 0.491520 0.985388
O5    O     O_R   0.611560 0.646260 0.507420 -0.623403
O6    O     O_R   0.420090 0.658930 0.494720 -0.638729
O7    O     O_R   0.548190 0.496780 0.349580 -0.617660
O8    O     O_R   0.356720 0.509450 0.336880 -0.625066
C3    C     C_R   0.522482 0.700520 0.500594 0.865740
C4    C     C_R   0.433701 0.505306 0.291588 0.866775
C5    C     C_R   0.291899 0.628630 0.008757 -0.190970
H1    H     H_    0.242687 0.615601 0.149414 0.149475
H2    H     H_    0.301447 0.700880 0.817932 0.146265
H3    H     H_    0.219954 0.680254 0.962974 0.138097
C6    C     C_R   0.396424 0.524269 0.173338 -0.055650
C7    C     C_R   0.716146 0.451719 0.893756 -0.189361
C8    C     C_R   0.746627 0.436144 0.006808 -0.137575
C9    C     C_R   0.668762 0.465867 0.053853 -0.192468
C10   C     C_R   0.561310 0.516853 0.988474 0.091000
C11   C     C_R   0.541847 0.547578 0.878606 0.109169
C12   C     C_R   0.472279 0.538129 0.028275 0.088636
C13   C     C_R   0.377436 0.604647 0.966556 0.179285
C14   C     C_R   0.370804 0.647346 0.864784 -0.220063
C15   C     C_R   0.451911 0.619087 0.821015 -0.163525
C16   C     C_R   0.473731 0.492826 0.127074 -0.246571
C17   C     C_R   0.302857 0.590097 0.113395 -0.199560
C18   C     C_R   0.611630 0.504124 0.828638 -0.108796
H4    H     H_    0.538038 0.435380 0.172538 0.150912
H5    H     H_    0.772189 0.419993 0.856715 0.154487
H6    H     H_    0.444185 0.654628 0.742120 0.158406
C19   C     C_R   0.536577 0.811964 0.501932 -0.050370
C20   C     C_R   0.463314 0.188008 0.497581 -0.052520
C21   C     C_R   0.337203 0.030670 0.447434 -0.224193
C22   C     C_R   0.347960 0.137861 0.456774 -0.144545
C23   C     C_R   0.567881 0.131713 0.531452 -0.277566
C24   C     C_R   0.558083 0.025392 0.520989 0.185505
C25   C     C_R   0.441823 0.974565 0.478469 0.181023
C26   C     C_R   0.432019 0.868219 0.468326 -0.275030
C27   C     C_R   0.651917 0.862157 0.541845 -0.205492
C28   C     C_R   0.662689 0.969329 0.551516 -0.213121
H7    H     H_    0.342646 0.829173 0.435741 0.154688
H8    H     H_    0.733110 0.818559 0.568038 0.163146
H9    H     H_    0.247781 0.991966 0.414907 0.143004
H10   H     H_    0.752099 0.008073 0.583675 0.143879
H11   H     H_    0.266734 0.181478 0.429550 0.187432
H12   H     H_    0.657259 0.170727 0.564359 0.157349
N1    N     N_R   0.798200 0.480260 0.519790 -0.096304
N2    N     N_R   0.201820 0.519740 0.480210 -0.152441
C29   C     C_R   0.009120 0.599804 0.397180 -0.322698
C30   C     C_R   0.128997 0.590304 0.407235 -0.063991
C31   C     C_R   0.158333 0.456370 0.545489 0.402375
C32   C     C_R   0.037590 0.463506 0.538041 -0.009310
C33   C     C_R   0.962371 0.536238 0.462766 0.044511
C34   C     C_R   0.842007 0.543228 0.455110 -0.027989
C35   C     C_R   0.870185 0.409658 0.592914 -0.006333
C36   C     C_R   0.989799 0.399845 0.603336 -0.252172
H13   H     H_    0.834673 0.360536 0.643624 0.127239
H14   H     H_    0.953400 0.656479 0.338380 0.155079
H15   H     H_    0.163909 0.639599 0.356205 0.142957
H16   H     H_    0.783238 0.598942 0.397568 0.126852
H17   H     H_    0.043846 0.342569 0.662326 0.198085
N3    N     N_R   0.234862 0.381937 0.620918 0.213501
O9    O     O_R   0.284925 0.401841 0.726136 -0.402387
O10   O     O_R   0.225766 0.286023 0.590640 -0.423280
H18   H     H_    0.696266 0.450432 0.141818 0.135441
H19   H     H_    0.828070 0.396793 0.057285 0.147000

loop_
_geom_bond_atom_site_label_1
_geom_bond_atom_site_label_2
_geom_bond_distance
_ccdc_geom_bond_type
O4    Zn2   1.919497 S    
N3    O10   1.300597 A    
C10   C11   1.405861 A    
O6    C3    1.285074 A    
C21   C22   1.384015 A    
C21   H9    1.084022 S    
C19   C27   1.399257 A    
C29   H14   1.083351 S    
Zn2   N2    2.009401 S    
C9    H18   1.079095 S    
N2    C31   1.377896 A    
C8    H19   1.082731 S    
Zn2   O8    1.962990 S    
C23   H12   1.085403 S    
C31   C32   1.425452 A    
C20   C22   1.399265 A    
O2    C1    1.288609 A    
C13   C14   1.392082 A    
C11   C18   1.408214 A    
Zn1   N1    2.009640 S    
C35   C36   1.404088 A    
N1    C34   1.371566 A    
O1    Zn1   1.981081 S    
C29   C30   1.408142 A    
C32   C33   1.406911 A    
Zn1   O7    1.919497 S    
C28   H10   1.084007 S    
C33   C34   1.419772 A    
O5    C3    1.288477 A    
C1    C20   1.433386 S    
C5    C17   1.394323 A    
O3    Zn1   1.962989 S    
C7    H5    1.083420 S    
Zn2   O6    1.981078 S    
C24   C25   1.412173 A    
C27   H8    1.083324 S    
O8    C4    1.288096 A    
C36   H17   1.082216 S    
C3    C19   1.433007 S    
C16   H4    1.079569 S    
C10   C12   1.411092 A    
C27   C28   1.384230 A    
C21   C25   1.398181 A    
O4    C2    1.293934 A    
C5    H3    1.083711 S    
O7    C4    1.292217 A    
C35   H13   1.082000 S    
N1    C35   1.360978 A    
C30   H15   1.081983 S    
C23   C24   1.374666 A    
C15   H6    1.081857 S    
H2    C14   1.083894 S    
C11   C15   1.414515 A    
C24   C28   1.398361 A    
C31   N3    1.428986 S    
N3    O9    1.301271 A    
C7    C8    1.387274 A    
C12   C16   1.388051 A    
O3    C2    1.288266 A    
C25   C26   1.374495 A    
C14   C15   1.387871 A    
Zn1   O5    2.012115 S    
C19   C26   1.395970 A    
C29   C33   1.405566 A    
C9    C10   1.418980 A    
C5    C13   1.404074 A    
C2    C18   1.455006 S    
C34   H16   1.082824 S    
C22   H11   1.082973 S    
C12   C13   1.419973 A    
C8    C9    1.390803 A    
C6    C17   1.399830 A    
H1    C17   1.083211 S    
C4    C6    1.446973 S    
C7    C18   1.402803 A    
C20   C23   1.396115 A    
O2    Zn2   2.012115 S    
C32   C36   1.411004 A    
N2    C30   1.363915 A    
O1    C1    1.285060 A    
C26   H7    1.085410 S    
C6    C16   1.385377 A    
