data_mof_unit_12773.cif
_audit_creation_date              2012-12-10T17:31:58-0500
_audit_creation_method            fapswitch 2.2
_symmetry_space_group_name_H-M    P1
_symmetry_Int_Tables_number       1
_space_group_crystal_system       triclinic
_cell_length_a                    11.980805
_cell_length_b                    11.546789
_cell_length_c                    12.901112
_cell_angle_alpha                 90.036545
_cell_angle_beta                  93.772888
_cell_angle_gamma                 86.56338
_cell_volume                      1777.65727596

loop_
_atom_site_label
_atom_site_type_symbol
_atom_type_description
_atom_site_fract_x
_atom_site_fract_y
_atom_site_fract_z
_atom_type_partial_charge
C1    C     C_R   0.477369 0.501904 0.299369 0.906010
C2    C     C_R   0.977654 0.527017 0.543893 -0.087860
C3    C     C_R   0.499611 0.281875 0.500060 0.899719
C4    C     C_R   0.500389 0.718125 0.499941 0.899790
C5    C     C_1   0.499009 0.161503 0.500111 -0.182264
C6    C     C_1   0.500992 0.838497 0.499893 -0.182233
C7    C     C_1   0.499489 0.059336 0.500058 0.002500
C8    C     C_1   0.500512 0.940664 0.499947 0.002514
C9    C     C_R   0.537029 0.495516 0.812374 -0.155484
C10   C     C_R   0.462964 0.504463 0.187624 -0.155317
C11   C     C_R   0.350753 0.533117 0.026630 -0.321177
C12   C     C_R   0.522630 0.498082 0.700630 0.905900
C13   C     C_R   0.649240 0.466850 0.973367 -0.321019
C14   C     C_R   0.357866 0.531843 0.134760 0.472214
C15   C     C_R   0.642113 0.468083 0.865244 0.471925
C16   C     C_R   0.559047 0.482492 0.133231 -0.324665
C17   C     C_R   0.440952 0.517528 0.866767 -0.324535
C18   C     C_R   0.552371 0.487328 0.026764 0.127585
C19   C     C_R   0.447629 0.512689 0.973235 0.127661
C20   C     C_3   0.777263 0.332042 0.821964 0.089967
C21   C     C_3   0.865861 0.305730 0.744673 -0.790085
C22   C     C_3   0.222115 0.667467 0.177699 0.089614
C23   C     C_R   0.050331 0.576042 0.620122 0.407793
C24   C     C_3   0.133813 0.693718 0.255295 -0.789803
C25   C     C_3   0.067911 0.597702 0.799078 0.084560
C26   C     C_3   0.994644 0.619063 0.889932 -0.805794
C27   C     C_3   0.931796 0.401756 0.200926 0.083925
C28   C     C_3   0.005087 0.380909 0.110029 -0.805696
C29   C     C_R   0.949668 0.423973 0.379854 0.407825
C30   C     C_R   0.165977 0.574420 0.603619 -0.132553
C31   C     C_R   0.834019 0.425573 0.396383 -0.132705
C32   C     C_R   0.139206 0.470291 0.446507 -0.014166
C33   C     C_R   0.860794 0.529727 0.553479 -0.014179
C34   C     C_R   0.022341 0.473003 0.456085 -0.087928
H1    H     H_    0.359904 0.538576 0.826476 0.167973
H2    H     H_    0.816324 0.314858 0.901497 0.132978
H3    H     H_    0.934822 0.365358 0.757008 0.252811
H4    H     H_    0.900855 0.214977 0.755138 0.204476
H5    H     H_    0.827925 0.316391 0.664140 0.264522
H6    H     H_    0.182600 0.684050 0.098236 0.132999
H7    H     H_    0.290626 0.727728 0.193540 0.134930
H8    H     H_    0.172233 0.683831 0.335751 0.264390
H9    H     H_    0.098206 0.784219 0.244435 0.204405
H10   H     H_    0.065202 0.633515 0.243663 0.253174
H11   H     H_    0.141510 0.651564 0.810975 0.134892
H12   H     H_    0.640098 0.461459 0.173521 0.167972
H13   H     H_    0.096681 0.503948 0.799942 0.126872
H14   H     H_    0.920607 0.565652 0.881348 0.287123
H15   H     H_    0.043246 0.595136 0.963825 0.194612
H16   H     H_    0.965783 0.712143 0.892914 0.259809
H17   H     H_    0.902301 0.495314 0.199954 0.126777
H18   H     H_    0.858648 0.347229 0.189194 0.135335
H19   H     H_    0.034815 0.288059 0.107241 0.260115
H20   H     H_    0.956209 0.404226 0.036120 0.194819
H21   H     H_    0.078588 0.435097 0.118411 0.286670
H22   H     H_    0.270022 0.550079 0.984679 0.134846
H23   H     H_    0.729973 0.449813 0.015302 0.135004
H24   H     H_    0.823802 0.571906 0.619000 0.213171
H25   H     H_    0.176203 0.428115 0.380987 0.213305
H26   H     H_    0.776767 0.384595 0.341743 0.137902
H27   H     H_    0.223217 0.615387 0.658282 0.138013
H28   H     H_    0.708491 0.272243 0.805536 0.134941
N1    N     N_R   0.792200 0.479100 0.480660 -0.131712
N2    N     N_R   0.207800 0.520900 0.519340 -0.131721
O1    O     O_R   0.578300 0.494420 0.341180 -0.641905
O2    O     O_3   0.262156 0.550253 0.188611 -0.603502
O3    O     O_3   0.005488 0.630397 0.705649 -0.608966
O4    O     O_3   0.994549 0.369628 0.294333 -0.608968
O5    O     O_R   0.421700 0.505580 0.658820 -0.641890
O6    O     O_R   0.390690 0.507830 0.353590 -0.570896
O7    O     O_R   0.609310 0.492170 0.646410 -0.570992
O8    O     O_R   0.593810 0.327740 0.493800 -0.614491
O9    O     O_R   0.406190 0.672260 0.506200 -0.614484
O10   O     O_R   0.406190 0.341150 0.506220 -0.608661
O11   O     O_R   0.593810 0.658850 0.493780 -0.608654
O12   O     O_3   0.737811 0.449472 0.811421 -0.603685
Zn1   Zn    Zn3+2 0.625270 0.491050 0.491710 0.956804
Zn2   Zn    Zn3+2 0.374730 0.508950 0.508290 0.956849

loop_
_geom_bond_atom_site_label_1
_geom_bond_atom_site_label_2
_ccdc_geom_bond_type
C12   O5    A    
C33   H24   S    
C30   N2    A    
O6    Zn2   S    
C24   H8    S    
C25   O3    S    
C7    C8    S    
C11   C19   A    
C13   C18   A    
C26   H16   S    
C11   C14   A    
C22   H7    S    
C13   H23   S    
C20   O12   S    
C18   C19   A    
C23   O3    S    
C3    O10   A    
C22   O2    S    
C4    O11   A    
C27   O4    S    
C21   H4    S    
C1    O1    A    
O9    Zn2   S    
C25   H13   S    
C26   H14   S    
C2    C34   A    
C15   O12   S    
O5    Zn2   S    
C28   H21   S    
C27   H17   S    
O1    Zn1   S    
C23   C30   A    
C31   N1    A    
C32   N2    A    
C4    C6    S    
C10   C14   A    
C26   H15   S    
C16   H12   S    
C5    C7    T    
C28   H20   S    
C6    C8    T    
C25   C26   S    
C29   C34   A    
C32   C34   A    
C31   H26   S    
O8    Zn1   S    
C29   O4    S    
C21   H5    S    
C33   N1    A    
C22   H6    S    
C2    C23   A    
C14   O2    S    
O11   Zn1   S    
C4    O9    A    
C2    C33   A    
C9    C17   A    
C12   O7    A    
C13   C15   A    
C24   H10   S    
C22   C24   S    
C25   H11   S    
O7    Zn1   S    
C27   H18   S    
N1    Zn1   S    
N2    Zn2   S    
C1    C10   S    
C3    C5    S    
C28   H19   S    
C1    O6    A    
C3    O8    A    
C9    C15   A    
C29   C31   A    
C10   C16   A    
C17   C19   A    
C20   H28   S    
C9    C12   S    
C20   H2    S    
C21   H3    S    
C20   C21   S    
C16   C18   A    
O10   Zn2   S    
C30   H27   S    
C27   C28   S    
C24   H9    S    
C17   H1    S    
C32   H25   S    
C11   H22   S    
