data_mof_unit_39197.cif
_audit_creation_date              2012-12-10T17:52:21-0500
_audit_creation_method            fapswitch 2.2
_symmetry_space_group_name_H-M    P1
_symmetry_Int_Tables_number       1
_space_group_crystal_system       triclinic
_cell_length_a                    19.012185
_cell_length_b                    10.631006
_cell_length_c                    9.91458
_cell_angle_alpha                 89.922121
_cell_angle_beta                  89.961173
_cell_angle_gamma                 91.741019
_cell_volume                      2002.99410479

loop_
_atom_site_label
_atom_site_type_symbol
_atom_type_description
_atom_site_fract_x
_atom_site_fract_y
_atom_site_fract_z
_atom_type_partial_charge
C1    C     C_R   0.501758 0.260717 0.500104 0.853507
C2    C     C_R   0.851482 0.410951 0.499283 0.090921
C3    C     C_R   0.619708 0.137620 0.624349 -0.170831
C4    C     C_R   0.365191 0.496437 0.500075 0.845057
C5    C     C_R   0.674945 0.074993 0.684495 -0.127140
C6    C     C_R   0.675019 0.944099 0.684460 -0.137555
C7    C     C_R   0.619911 0.875389 0.624082 -0.191340
C8    C     C_R   0.563071 0.937488 0.563814 0.095706
C9    C     C_R   0.562945 0.069371 0.564020 0.097479
C10   C     C_R   0.506595 0.128703 0.499907 -0.088279
C11   C     C_R   0.453480 0.061780 0.432362 -0.213370
C12   C     C_R   0.289135 0.474037 0.500095 -0.033955
C13   C     C_R   0.453633 0.933265 0.432090 -0.197567
C14   C     C_R   0.506878 0.872055 0.499408 -0.103363
C15   C     C_R   0.407521 0.335208 0.140370 -0.163023
C16   C     C_R   0.502099 0.739470 0.499881 0.877425
C17   C     C_R   0.361822 0.254297 0.070358 -0.200660
C18   C     C_R   0.361828 0.254261 0.930751 -0.191307
C19   C     C_R   0.407556 0.335099 0.860332 -0.159211
C20   C     C_R   0.454455 0.418744 0.927869 0.168743
C21   C     C_R   0.454450 0.418801 0.072460 0.172858
C22   C     C_R   0.543647 0.577603 0.071309 -0.115751
C23   C     C_R   0.927096 0.389740 0.499368 0.287437
C24   C     C_R   0.543630 0.577581 0.928202 -0.115653
C25   C     C_R   0.634733 0.497199 0.499950 0.828338
C26   C     C_R   0.252986 0.457390 0.622450 -0.202167
C27   C     C_R   0.181696 0.425304 0.622361 -0.162529
C28   C     C_R   0.145510 0.409893 0.499907 0.087269
C29   C     C_R   0.181884 0.425617 0.377568 -0.162555
C30   C     C_R   0.253148 0.457721 0.377665 -0.206702
C31   C     C_R   0.069137 0.389180 0.499705 0.287994
C32   C     C_R   0.815135 0.421625 0.621724 -0.168483
C33   C     C_R   0.744975 0.453880 0.622099 -0.216774
C34   C     C_R   0.710078 0.475308 0.500019 -0.031447
C35   C     C_R   0.746217 0.463958 0.377574 -0.185351
C36   C     C_R   0.816386 0.431754 0.377180 -0.162887
H1    H     H_    0.279773 0.467965 0.718334 0.161513
H2    H     H_    0.326213 0.191129 0.876467 0.153498
H3    H     H_    0.404510 0.329216 0.753385 0.202973
H4    H     H_    0.154900 0.414302 0.718256 0.150823
H5    H     H_    0.579264 0.641030 0.874269 0.144527
H6    H     H_    0.155253 0.414831 0.281580 0.151002
H7    H     H_    0.280044 0.468558 0.281820 0.161901
H8    H     H_    0.840962 0.406509 0.717443 0.148886
H9    H     H_    0.717951 0.460381 0.717936 0.156859
H10   H     H_    0.720219 0.478775 0.281929 0.155818
H11   H     H_    0.843230 0.424913 0.281230 0.148924
H12   H     H_    0.622613 0.239247 0.623973 0.153396
H13   H     H_    0.411065 0.109311 0.382262 0.139908
H14   H     H_    0.718138 0.128252 0.730083 0.140931
H15   H     H_    0.718262 0.895631 0.730103 0.138644
H16   H     H_    0.622997 0.774003 0.623333 0.141891
H17   H     H_    0.411315 0.881127 0.381855 0.154086
H18   H     H_    0.579308 0.641036 0.124881 0.147283
H19   H     H_    0.404407 0.329412 0.247308 0.198149
H20   H     H_    0.326219 0.191179 0.124974 0.149529
N1    N     N_R   0.033088 0.387566 0.381796 -0.179178
N2    N     N_R   0.963311 0.387852 0.381628 -0.179125
N3    N     N_R   0.963046 0.386315 0.617268 -0.179843
N4    N     N_R   0.032834 0.386057 0.617435 -0.179241
N5    N     N_R   0.499340 0.498800 0.142780 -0.120521
N6    N     N_R   0.499320 0.498720 0.857170 -0.120252
O1    O     O_R   0.500000 0.316780 0.614690 -0.638468
O2    O     O_R   0.499990 0.316750 0.385360 -0.626089
O3    O     O_R   0.398140 0.500000 0.614700 -0.632411
O4    O     O_R   0.398130 0.499970 0.385370 -0.637068
O5    O     O_R   0.500010 0.683250 0.614640 -0.610434
O6    O     O_R   0.500000 0.683220 0.385310 -0.607848
O7    O     O_R   0.601870 0.500030 0.614630 -0.631826
O8    O     O_R   0.601860 0.500000 0.385300 -0.612813
Zn1   Zn    Zn3+2 0.500000 0.500020 0.653130 0.930851
Zn2   Zn    Zn3+2 0.500000 0.499980 0.346870 0.938889

loop_
_geom_bond_atom_site_label_1
_geom_bond_atom_site_label_2
_ccdc_geom_bond_type
C31   N4    A    
C7    H16   S    
C23   N2    A    
C24   N6    A    
C26   H1    S    
C3    H12   S    
C6    C7    A    
C3    C9    A    
C14   C16   S    
C6    H15   S    
C4    C12   S    
C33   H9    S    
C9    C10   A    
C25   C34   S    
C21   N5    A    
C19   C20   A    
C18   H2    S    
C27   H4    S    
O6    Zn2   S    
C32   C33   A    
C31   N1    A    
C33   C34   A    
C26   C27   A    
O7    Zn1   S    
N3    N4    A    
C22   H18   S    
C16   O5    A    
C13   C14   A    
C20   C21   A    
C22   N5    A    
C4    O4    A    
C24   H5    S    
C11   C13   A    
C17   H20   S    
N1    N2    A    
C29   C30   A    
C19   H3    S    
C13   H17   S    
C16   O6    A    
C1    O1    A    
N5    Zn2   S    
C28   C29   A    
O1    Zn1   S    
N6    Zn1   S    
C17   C18   A    
O5    Zn1   S    
C2    C23   S    
O2    Zn2   S    
C20   N6    A    
C5    C6    A    
C29   H6    S    
C22   C24   A    
C30   H7    S    
C25   O7    A    
C10   C11   A    
C1    O2    A    
C5    H14   S    
C15   C21   A    
C11   H13   S    
C32   H8    S    
C36   H11   S    
C2    C32   A    
C34   C35   A    
C2    C36   A    
C27   C28   A    
C15   C17   A    
C7    C8    A    
C4    O3    A    
C18   C19   A    
O8    Zn2   S    
C25   O8    A    
C8    C14   A    
C23   N3    A    
C12   C30   A    
O3    Zn1   S    
C35   H10   S    
C28   C31   S    
O4    Zn2   S    
C1    C10   S    
C35   C36   A    
C12   C26   A    
C8    C9    A    
C3    C5    A    
C15   H19   S    
