data_mof_unit_25068.cif
_audit_creation_date              2012-12-10T20:48:19-0500
_audit_creation_method            fapswitch 2.2
_symmetry_space_group_name_H-M    P1
_symmetry_Int_Tables_number       1
_space_group_crystal_system       triclinic
_cell_length_a                    10.717596
_cell_length_b                    8.928582
_cell_length_c                    8.121331
_cell_angle_alpha                 89.999913
_cell_angle_beta                  90.441649
_cell_angle_gamma                 90.0
_cell_volume                      777.130909407

loop_
_atom_site_label
_atom_site_type_symbol
_atom_type_description
_atom_site_fract_x
_atom_site_fract_y
_atom_site_fract_z
_atom_type_partial_charge
C1    C     C_R   0.500000 0.218051 0.500000 0.996087
C2    C     C_1   0.500000 0.934769 0.500000 -0.143698
C3    C     C_3   0.069724 0.640554 0.481266 -0.604250
C4    C     C_3   0.930276 0.640556 0.518709 -0.604238
C5    C     C_3   0.121423 0.478277 0.498756 -0.230358
C6    C     C_3   0.878577 0.478278 0.501243 -0.230360
C7    C     C_R   0.257641 0.487839 0.499433 0.991011
C8    C     C_R   0.742359 0.487839 0.500567 0.991016
C9    C     C_R   0.500000 0.781908 0.500000 0.930597
C10   C     C_1   0.500000 0.065204 0.500000 -0.097594
C11   C     C_3   0.073792 0.403648 0.665147 0.602907
C12   C     C_3   0.070364 0.379458 0.349771 0.624690
C13   C     C_3   0.929638 0.379476 0.650241 0.624695
C14   C     C_3   0.926209 0.403631 0.334861 0.602927
F1    F     F_    0.130294 0.264371 0.685129 -0.568324
F2    F     F_    0.093400 0.229569 0.384536 -0.531435
F3    F     F_    0.906600 0.229584 0.615497 -0.531436
F4    F     F_    0.869705 0.264353 0.314895 -0.568320
H1    H     H_    0.118892 0.722000 0.562405 0.246394
H2    H     H_    0.878463 0.520442 0.844830 0.155887
H3    H     H_    0.811498 0.457968 0.133245 0.249294
H4    H     H_    0.893290 0.607179 0.205301 0.176292
H5    H     H_    0.084535 0.683665 0.354784 0.233870
H6    H     H_    0.915466 0.683682 0.645185 0.233881
H7    H     H_    0.881107 0.721990 0.437555 0.246395
H8    H     H_    0.188486 0.457967 0.866777 0.249283
H9    H     H_    0.106775 0.607203 0.794663 0.176315
H10   H     H_    0.095296 0.338648 0.102344 0.237471
H11   H     H_    0.121544 0.520404 0.155166 0.155875
H12   H     H_    0.904706 0.338690 0.897672 0.237469
N1    N     N_1   0.500000 0.500030 0.073640 -0.029149
N2    N     N_1   0.500000 0.500030 0.926360 -0.029146
N3    N     N_3   0.103932 0.492119 0.814158 -0.528113
N4    N     N_3   0.132945 0.409348 0.192591 -0.421176
N5    N     N_3   0.867057 0.409383 0.807418 -0.421175
N6    N     N_3   0.896071 0.492087 0.185840 -0.528110
O1    O     O_R   0.500000 0.285340 0.636850 -0.605374
O2    O     O_R   0.500000 0.285340 0.363150 -0.605376
O3    O     O_R   0.314790 0.499970 0.636880 -0.633277
O4    O     O_R   0.314790 0.499970 0.363120 -0.618676
O5    O     O_R   0.685210 0.499970 0.636880 -0.618671
O6    O     O_R   0.685210 0.499970 0.363120 -0.633285
O7    O     O_R   0.500000 0.714650 0.636900 -0.618074
O8    O     O_R   0.500000 0.714650 0.363100 -0.618072
Zn1   Zn    Zn3+2 0.500000 0.499990 0.682780 1.027670
Zn2   Zn    Zn3+2 0.500000 0.499990 0.317220 1.027664

loop_
_geom_bond_atom_site_label_1
_geom_bond_atom_site_label_2
_ccdc_geom_bond_type
C6    C8    S    
C7    O4    A    
C3    H1    S    
C13   F3    S    
C6    C14   S    
H4    N6    S    
N2    Zn1   S    
C14   F4    S    
H8    N3    S    
C3    H5    S    
N1    N2    T    
C8    O6    A    
C1    O1    A    
O3    Zn1   S    
C4    H7    S    
H10   N4    S    
H3    N6    S    
H9    N3    S    
C6    C13   S    
O4    Zn2   S    
O7    Zn1   S    
H12   N5    S    
C1    O2    A    
C12   C14   S    
C13   N5    S    
C5    C11   S    
C14   N6    S    
C4    H6    S    
C9    O7    A    
C11   C13   S    
O2    Zn2   S    
O1    Zn1   S    
C3    C4    S    
C2    C10   T    
C11   N3    S    
C8    O5    A    
C5    C12   S    
C4    C6    S    
O6    Zn2   S    
C5    C7    S    
C7    O3    A    
C9    O8    A    
O5    Zn1   S    
C12   N4    S    
C2    C9    S    
C11   F1    S    
H11   N4    S    
H2    N5    S    
C1    C10   S    
C12   F2    S    
O8    Zn2   S    
C3    C5    S    
N1    Zn2   S    
