data_mof_unit_54089.cif
_audit_creation_date              2012-12-10T16:46:44-0500
_audit_creation_method            fapswitch 2.2
_symmetry_space_group_name_H-M    P1
_symmetry_Int_Tables_number       1
_space_group_crystal_system       triclinic
_cell_length_a                    15.890585
_cell_length_b                    8.752157
_cell_length_c                    7.624136
_cell_angle_alpha                 104.000743
_cell_angle_beta                  94.520587
_cell_angle_gamma                 93.490922
_cell_volume                      1022.13022056

loop_
_atom_site_label
_atom_site_type_symbol
_atom_type_description
_atom_site_fract_x
_atom_site_fract_y
_atom_site_fract_z
_atom_type_partial_charge
C1    C     C_R   0.500687 0.200611 0.453369 0.854579
C2    C     C_3   0.954774 0.481911 0.694298 -0.142602
C3    C     C_3   0.916468 0.504360 0.500998 -0.180316
C4    C     C_3   0.955729 0.672146 0.473718 -0.240871
C5    C     C_3   0.058824 0.674504 0.496698 0.271161
C6    C     C_1   0.823365 0.504745 0.496172 -0.039399
C7    C     C_1   0.176753 0.497018 0.505706 -0.025154
C8    C     C_1   0.252010 0.496956 0.505151 -0.079942
C9    C     C_2   0.500378 0.032046 0.431972 -0.331468
C10   C     C_2   0.524759 0.968204 0.571084 -0.197620
C11   C     C_R   0.341026 0.498414 0.501477 0.801537
C12   C     C_R   0.506881 0.800011 0.547094 0.777072
C13   C     C_R   0.658972 0.501521 0.498542 0.825406
C14   C     C_3   0.054759 0.460710 0.683333 0.574869
C15   C     C_3   0.039808 0.366345 0.330732 -0.146883
C16   C     C_3   0.938412 0.357475 0.341842 0.278778
C17   C     C_1   0.748003 0.503613 0.495316 -0.056750
C18   C     C_3   0.083945 0.499349 0.501930 -0.092017
Cu1   Cu    Cu3+1 0.509300 0.517380 0.684380 1.025771
Cu2   Cu    Cu3+1 0.490700 0.482620 0.315620 1.057719
H1    H     H_    0.470924 0.958556 0.303225 0.174924
N1    N     N_2   0.476670 0.456430 0.038530 -0.100494
N2    N     N_2   0.523330 0.543570 0.961470 0.046728
O1    O     O_R   0.506050 0.286130 0.619770 -0.591151
O2    O     O_R   0.490330 0.256780 0.308370 -0.610148
O3    O     O_R   0.387300 0.514690 0.655770 -0.605323
O4    O     O_R   0.371580 0.485340 0.344370 -0.534970
O5    O     O_R   0.509670 0.743220 0.691630 -0.615837
O6    O     O_R   0.493950 0.713870 0.380230 -0.526149
O7    O     O_R   0.628420 0.514660 0.655630 -0.542958
O8    O     O_R   0.612700 0.485310 0.344230 -0.541203
C19   C     C_2   0.910827 0.342285 0.752521 0.604244
H2    H     H_    0.946910 0.267341 0.818692 0.202032
O9    O     O_2   0.833763 0.318482 0.740013 -0.507044
O10   O     O_3   0.102368 0.561386 0.837464 -0.702056
H3    H     H_    0.162457 0.536821 0.842115 0.367810
C20   C     C_2   0.936193 0.621984 0.846502 0.449031
H4    H     H_    0.985769 0.699407 0.934536 0.191048
O11   O     O_2   0.863285 0.649282 0.875477 -0.525561
C21   C     C_2   0.918363 0.695884 0.291831 0.438617
H5    H     H_    0.863803 0.622753 0.217102 0.162564
O12   O     O_2   0.939195 0.812598 0.239679 -0.499673
C22   C     C_2   0.576884 0.055173 0.741281 0.414836
H6    H     H_    0.566859 0.025698 0.868810 0.071962
O13   O     O_2   0.634850 0.152526 0.738253 -0.473885
C23   C     C_2   0.402827 0.371714 0.936313 0.650120
H7    H     H_    0.406900 0.269894 0.825412 -0.000727
O14   O     O_2   0.333012 0.408899 0.978094 -0.569544
O15   O     O_3   0.587996 0.631521 0.069641 -0.568741
H8    H     H_    0.618357 0.684871 0.989640 0.348815
O16   O     O_3   0.069983 0.303011 0.683321 -0.736470
H9    H     H_    0.131647 0.294690 0.706310 0.327863
C24   C     C_2   0.065627 0.406498 0.159085 0.549701
H10   H     H_    0.124249 0.369109 0.103639 0.108168
O17   O     O_2   0.024759 0.489638 0.086054 -0.542615
C25   C     C_2   0.076596 0.205486 0.310874 0.412030
H11   H     H_    0.130204 0.189380 0.399456 0.085568
O18   O     O_2   0.050108 0.093682 0.184050 -0.482669
C26   C     C_2   0.899536 0.201659 0.371968 0.513591
H12   H     H_    0.832432 0.168067 0.333830 0.070045
O19   O     O_2   0.939598 0.115698 0.444024 -0.466779
O20   O     O_3   0.898130 0.362833 0.171443 -0.720136
H13   H     H_    0.835535 0.352769 0.171473 0.323120
O21   O     O_3   0.096906 0.780471 0.657880 -0.678377
H14   H     H_    0.062730 0.783996 0.759713 0.379819
C27   C     C_2   0.100270 0.747268 0.357424 0.598958
H15   H     H_    0.083858 0.862770 0.345696 0.162470
O22   O     O_2   0.159125 0.692607 0.276150 -0.553897
C28   C     C_2   0.921001 0.813315 0.602257 0.458639
H16   H     H_    0.854585 0.808372 0.626029 0.106017
O23   O     O_2   0.963517 0.937630 0.669541 -0.456185

loop_
_geom_bond_atom_site_label_1
_geom_bond_atom_site_label_2
_ccdc_geom_bond_type
C15   C18   S    
C27   O22   D    
C22   H6    S    
C20   H4    S    
O16   H9    S    
Cu2   O4    S    
C11   O4    A    
C12   O6    A    
C9    C10   D    
C14   C18   S    
C16   C26   S    
Cu1   N2    S    
Cu1   Cu2   S    
C13   C17   S    
C3    C6    S    
C19   H2    S    
C7    C18   S    
C21   O12   D    
Cu1   O1    S    
C26   H12   S    
C20   O11   D    
C24   H10   S    
C15   C25   S    
C1    O2    A    
Cu1   O5    S    
C22   O13   D    
C2    C20   S    
C9    H1    S    
O20   H13   S    
C16   O20   S    
C12   O5    A    
C8    C11   S    
C4    C5    S    
C15   C24   S    
O21   H14   S    
C21   H5    S    
N1    C23   S    
C25   O18   D    
C27   H15   S    
C10   C12   S    
Cu2   O6    S    
C24   O17   D    
C14   O16   S    
C28   H16   S    
C2    C14   S    
C23   O14   D    
C26   O19   D    
N2    O15   S    
Cu2   O2    S    
C3    C16   S    
C15   C16   S    
C4    C21   S    
C13   O7    A    
C7    C8    T    
C1    C9    S    
C25   H11   S    
Cu1   O3    S    
C1    O1    A    
C2    C19   S    
O15   H8    S    
C14   O10   S    
C28   O23   D    
C6    C17   T    
C23   H7    S    
C4    C28   S    
C2    C3    S    
C5    C18   S    
C11   O3    A    
C10   C22   S    
N1    N2    D    
Cu1   O7    S    
C13   O8    A    
C3    C4    S    
O10   H3    S    
C5    O21   S    
Cu2   N1    S    
C5    C27   S    
Cu2   O8    S    
C19   O9    D    
