data_mof_unit_33696.cif
_audit_creation_date              2012-12-11T17:17:13-0500
_audit_creation_method            fapswitch 2.2
_symmetry_space_group_name_H-M    P1
_symmetry_Int_Tables_number       1
_space_group_crystal_system       triclinic
_cell_length_a                    8.373072
_cell_length_b                    16.407925
_cell_length_c                    18.687084
_cell_angle_alpha                 96.183068
_cell_angle_beta                  92.522862
_cell_angle_gamma                 93.542438
_cell_volume                      2544.18486955

loop_
_atom_site_label
_atom_site_type_symbol
_atom_type_description
_atom_site_fract_x
_atom_site_fract_y
_atom_site_fract_z
_atom_type_partial_charge
Ba1   Ba    Ba6+2 0.843980 0.537940 0.465850 1.650322
Ba2   Ba    Ba6+2 0.345840 0.462130 0.534150 1.675857
C1    C     C_3   0.593290 0.815576 0.198271 -0.010369
C2    C     C_3   0.381763 0.575310 0.250231 -0.018819
C3    C     C_2   0.349156 0.551988 0.170137 -0.128097
C4    C     C_3   0.103679 0.707575 0.263484 0.370625
C5    C     C_2   0.217611 0.502685 0.145905 -0.025335
C6    C     C_2   0.123357 0.461458 0.200299 -0.121821
C7    C     C_1   0.169220 0.472460 0.270098 -0.045693
C8    C     C_R   0.048634 0.489062 0.927705 0.492911
C9    C     C_R   0.160655 0.495142 0.068091 0.488123
C10   C     C_R   0.080519 0.523262 0.800019 -0.149718
C11   C     C_R   0.028384 0.516437 0.726889 0.027073
C12   C     C_3   0.592173 0.761111 0.262788 0.350374
C13   C     C_R   0.786601 0.438904 0.753823 0.009115
C14   C     C_R   0.838630 0.444869 0.826839 -0.136003
C15   C     C_R   0.988481 0.485565 0.850700 -0.064459
C16   C     C_3   0.148669 0.741838 0.192706 -0.163490
C17   C     C_R   0.885038 0.471591 0.704157 -0.297072
C18   C     C_R   0.386751 0.730393 0.465237 -0.287721
C19   C     C_R   0.529809 0.757619 0.504335 0.050789
C20   C     C_R   0.576639 0.841937 0.514655 -0.135144
C21   C     C_R   0.479040 0.899753 0.486737 0.248911
C22   C     C_R   0.330402 0.871284 0.451549 -0.177234
C23   C     C_3   0.484567 0.344608 0.314436 0.296166
C24   C     C_R   0.284305 0.786823 0.440819 -0.002535
C25   C     C_R   0.616477 0.146906 0.484440 -0.140249
C26   C     C_R   0.668863 0.229756 0.486415 -0.001671
C27   C     C_R   0.713323 0.091615 0.516477 0.247026
C28   C     C_3   0.203967 0.711364 0.616170 0.312648
C29   C     C_R   0.815995 0.258789 0.519841 -0.249105
C30   C     C_R   0.915217 0.205486 0.549896 0.008701
C31   C     C_R   0.864370 0.121844 0.548545 -0.174703
C32   C     C_3   0.227032 0.803930 0.635460 -0.384197
C33   C     C_3   0.047052 0.278326 0.276635 0.370566
C34   C     C_3   0.465651 0.323026 0.232966 -0.401354
C35   C     C_3   0.893068 0.265651 0.227264 -0.172909
C36   C     C_3   0.739775 0.680796 0.691627 0.257271
C37   C     C_3   0.803443 0.745200 0.754664 -0.159725
C38   C     C_3   0.658050 0.808730 0.335366 -0.135238
C39   C     C_3   0.777504 0.883771 0.333236 -0.355613
C40   C     C_3   0.114153 0.196636 0.293961 -0.166351
C41   C     C_3   0.003734 0.145299 0.337641 -0.376678
C42   C     C_3   0.918902 0.226410 0.150125 -0.252982
C43   C     C_3   0.854235 0.136598 0.137128 -0.425025
C44   C     C_2   0.641324 0.611265 0.716511 0.484807
C45   C     C_3   0.065857 0.256117 0.726439 0.338882
C46   C     C_3   0.910810 0.711434 0.811989 -0.263606
C47   C     C_3   0.967171 0.778633 0.872231 -0.411448
C48   C     C_3   0.488810 0.892944 0.203384 -0.224991
C49   C     C_3   0.396982 0.916539 0.271607 -0.424608
C50   C     C_3   0.557869 0.761168 0.125016 -0.202294
C51   C     C_3   0.588244 0.807204 0.059249 -0.436892
C52   C     C_2   0.169587 0.327244 0.763892 0.548958
C53   C     C_3   0.903445 0.230072 0.836079 -0.254477
C54   C     C_3   0.850118 0.166029 0.885110 -0.403807
C55   C     C_2   0.988731 0.633273 0.246905 0.544149
C56   C     C_3   0.012016 0.193739 0.778140 -0.168764
C57   C     C_3   0.020823 0.789680 0.157810 -0.164620
C58   C     C_3   0.062306 0.804470 0.081239 -0.450236
C59   C     C_3   0.563612 0.240632 0.683407 0.332724
C60   C     C_3   0.533034 0.153366 0.702410 -0.350774
C61   C     C_2   0.304325 0.514169 0.294516 -0.229255
H1    H     H_    0.327281 0.818951 0.676622 0.133407
H2    H     H_    0.700174 0.773032 0.781165 0.140155
H3    H     H_    0.465797 0.740780 0.269111 -0.052031
H4    H     H_    0.365917 0.358317 0.335011 -0.001755
H5    H     H_    0.569307 0.399729 0.326194 0.085224
H6    H     H_    0.583347 0.316467 0.209541 0.122317
H7    H     H_    0.392727 0.264171 0.219335 0.107603
H8    H     H_    0.407335 0.372287 0.207689 0.084382
H9    H     H_    0.256725 0.781954 0.202899 0.086144
H10   H     H_    0.955841 0.280529 0.703668 -0.169246
H11   H     H_    0.118978 0.170036 0.804322 0.135592
H12   H     H_    0.254664 0.834627 0.587271 0.065418
H13   H     H_    0.944664 0.140751 0.745669 0.091638
H14   H     H_    0.689744 0.248518 0.668014 -0.058842
H15   H     H_    0.481928 0.248584 0.636658 0.098034
H16   H     H_    0.547894 0.108915 0.654412 0.086686
H17   H     H_    0.409435 0.144129 0.720541 0.159005
H18   H     H_    0.619113 0.141199 0.746123 0.102714
H19   H     H_    0.419482 0.584189 0.133257 0.088170
H20   H     H_    0.011974 0.426657 0.182713 0.091454
H21   H     H_    0.193173 0.557313 0.816874 0.137409
H22   H     H_    0.761922 0.418388 0.864640 0.110853
H23   H     H_    0.115719 0.827919 0.657221 0.113131
H24   H     H_    0.351036 0.512459 0.349405 0.060999
H25   H     H_    0.844704 0.466591 0.647960 0.068590
H26   H     H_    0.502221 0.126062 0.457099 0.104405
H27   H     H_    0.251512 0.914789 0.431967 0.085357
H28   H     H_    0.687439 0.862012 0.545295 0.107003
H29   H     H_    0.215228 0.687863 0.287565 -0.194271
H30   H     H_    0.941977 0.080425 0.572147 0.089632
H31   H     H_    0.349168 0.665611 0.458639 0.075777
H32   H     H_    0.856289 0.322824 0.520193 0.084843
H33   H     H_    0.180503 0.690411 0.153380 0.092111
H34   H     H_    0.140877 0.310110 0.247993 -0.072165
H35   H     H_    0.317611 0.687667 0.597883 0.016339
H36   H     H_    0.108952 0.698028 0.572444 0.069692
H37   H     H_    0.874626 0.870889 0.296961 0.156717
H38   H     H_    0.720678 0.936895 0.314449 0.094641
H39   H     H_    0.829809 0.904312 0.388243 0.158926
H40   H     H_    0.555951 0.830372 0.364584 0.042936
H41   H     H_    0.712007 0.764892 0.368799 0.160280
H42   H     H_    0.973160 0.181805 0.388085 0.145099
H43   H     H_    0.892000 0.122344 0.305864 0.108639
H44   H     H_    0.066056 0.091214 0.352416 0.108786
H45   H     H_    0.849149 0.327255 0.222824 0.080012
H46   H     H_    0.142628 0.159206 0.243649 0.064555
H47   H     H_    0.229072 0.211127 0.326102 0.120140
H48   H     H_    0.917730 0.098524 0.173242 0.132490
H49   H     H_    0.723986 0.131445 0.146325 0.133819
H50   H     H_    0.872011 0.112172 0.080480 0.129150
H51   H     H_    0.854344 0.260797 0.110983 0.139328
H52   H     H_    0.047622 0.231021 0.137810 0.117974
H53   H     H_    0.616882 0.556582 0.679195 0.016076
H54   H     H_    0.034344 0.829909 0.850004 0.137092
H55   H     H_    0.863109 0.802503 0.900732 0.135248
H56   H     H_    0.796979 0.231106 0.252852 0.128387
H57   H     H_    0.047806 0.752948 0.911581 0.138233
H58   H     H_    0.846072 0.661100 0.836337 0.158433
H59   H     H_    0.017527 0.686791 0.787330 0.145416
H60   H     H_    0.345644 0.863128 0.296021 0.131191
H61   H     H_    0.471303 0.956712 0.313165 0.138832
H62   H     H_    0.295169 0.952900 0.257001 0.122719
H63   H     H_    0.566820 0.947733 0.193976 0.105773
H64   H     H_    0.397878 0.886424 0.158011 0.120616
H65   H     H_    0.489143 0.846759 0.048545 0.126947
H66   H     H_    0.702021 0.845955 0.067308 0.125781
H67   H     H_    0.842918 0.656782 0.662736 -0.034352
H68   H     H_    0.595685 0.762288 0.010797 0.152484
H69   H     H_    0.635595 0.708631 0.121368 0.165935
H70   H     H_    0.432920 0.734577 0.120422 0.100156
H71   H     H_    0.190955 0.380387 0.735544 0.022128
H72   H     H_    0.784013 0.112424 0.853225 0.127360
H73   H     H_    0.955768 0.144833 0.914132 0.136477
H74   H     H_    0.769873 0.193592 0.925463 0.144933
H75   H     H_    0.967336 0.282677 0.870147 0.165456
H76   H     H_    0.796120 0.252945 0.809994 0.139093
H77   H     H_    0.951638 0.598860 0.289748 0.068757
H78   H     H_    0.718228 0.840583 0.195653 0.078608
H79   H     H_    0.183394 0.835676 0.080851 0.129542
H80   H     H_    0.058406 0.745065 0.046327 0.159001
H81   H     H_    0.975150 0.844084 0.058452 0.119663
H82   H     H_    0.903793 0.754254 0.154892 0.174935
H83   H     H_    0.012293 0.849850 0.190305 0.110480
H84   H     H_    0.873026 0.795258 0.731716 0.097684
N1    N     N_R   0.188829 0.531819 0.951144 -0.226687
N2    N     N_R   0.243208 0.534984 0.019653 -0.245465
N3    N     N_R   0.020733 0.452025 0.044650 -0.229588
N4    N     N_R   0.966186 0.448924 0.976054 -0.243555
N5    N     N_2   0.526106 0.985607 0.490903 -0.237428
N6    N     N_2   0.666354 0.005907 0.515271 -0.240880
O1    O     O_2   0.875590 0.454550 0.328720 -0.465640
O2    O     O_2   0.243056 0.209794 0.542265 -0.479904
O3    O     O_3   0.156299 0.215645 0.673302 -0.629848
O4    O     O_3   0.127960 0.455900 0.416100 -0.451595
O5    O     O_3   0.560420 0.597610 0.535760 -0.488273
O6    O     O_2   0.379340 0.302240 0.465940 -0.441546
O7    O     O_3   0.542434 0.277662 0.345710 -0.648846
O8    O     O_2   0.457293 0.450114 0.756961 -0.425008
O9    O     O_3   0.533902 0.296838 0.742849 -0.579467
O10   O     O_3   0.634460 0.601950 0.371690 -0.490229
O11   O     O_2   0.689597 0.529168 0.243628 -0.453935
O12   O     O_3   0.637439 0.720483 0.647598 -0.658058
O13   O     O_3   0.015902 0.324095 0.342202 -0.602645
O14   O     O_3   0.683895 0.691376 0.247398 -0.602714
O15   O     O_2   0.810360 0.697790 0.534100 -0.469824
O16   O     O_3   0.049190 0.643760 0.407000 -0.505637
O17   O     O_2   0.954865 0.790379 0.447860 -0.495676
O18   O     O_2   0.579992 0.617033 0.774819 -0.578229
O19   O     O_2   0.233682 0.325543 0.823675 -0.576164
O20   O     O_2   0.937624 0.609412 0.185413 -0.593122
O21   O     O_3   0.040214 0.767581 0.312398 -0.629809
O22   O     O_2   0.314110 0.545480 0.671320 -0.439459
O23   O     O_3   0.061730 0.544170 0.583900 -0.497552
O24   O     O_3   0.555240 0.398120 0.628310 -0.505731
O25   O     O_3   0.160075 0.676412 0.677873 -0.638404
O26   O     O_3   0.629280 0.402460 0.464250 -0.466036
O27   O     O_3   0.140510 0.356300 0.593010 -0.484799
P1    P     P_3+3 0.048660 0.430750 0.339650 0.990856
P2    P     P_3+3 0.638170 0.686040 0.555200 0.976092
P3    P     P_3+3 0.083354 0.748758 0.402378 0.917823
P4    P     P_3+3 0.141040 0.569320 0.660360 0.987254
P5    P     P_3+3 0.112599 0.247957 0.588600 0.959476
P6    P     P_3+3 0.596534 0.600681 0.278282 0.947933
P7    P     P_3+3 0.555369 0.300865 0.439558 0.970676
P8    P     P_3+3 0.583844 0.396300 0.721482 0.982378

loop_
_geom_bond_atom_site_label_1
_geom_bond_atom_site_label_2
_ccdc_geom_bond_type
C36   O12   S    
C53   C54   S    
Ba1   O23   S    
C50   H70   S    
O17   P3    D    
C25   C27   A    
C6    H20   S    
C49   H60   S    
C23   H4    S    
C21   N5    S    
C43   H49   S    
C56   H13   S    
C5    C6    S    
O3    P5    S    
C50   C51   S    
C5    C9    S    
C10   C11   A    
O13   P1    S    
C2    C61   S    
C53   H75   S    
O4    P1    S    
C30   P5    S    
O10   P6    S    
O12   P2    S    
C36   H67   S    
C60   H17   S    
Ba1   O5    S    
C33   C35   S    
C40   H46   S    
C22   C24   A    
O8    P8    D    
O11   P6    D    
C58   H80   S    
C46   H59   S    
C36   C37   S    
Ba2   O22   S    
C4    H29   S    
C47   H57   S    
O26   P7    S    
C45   O3    S    
C8    C15   S    
C2    P6    S    
C13   C14   A    
C52   H71   S    
O1    P1    D    
C27   C31   A    
C33   O13   S    
C53   H76   S    
C44   O18   D    
C10   H21   S    
Ba1   Ba2   S    
C32   H23   S    
O6    P7    D    
C33   C40   S    
O16   P3    S    
C58   H79   S    
C9    N2    A    
C47   H54   S    
C29   C30   A    
C42   H52   S    
C59   H14   S    
C14   C15   A    
C1    H78   S    
C10   C15   A    
C20   H28   S    
C48   H63   S    
Ba2   O24   S    
C54   H74   S    
C51   H68   S    
C34   H8    S    
C32   H12   S    
Ba2   O23   S    
C24   P3    S    
C42   H51   S    
C57   C58   S    
C19   C20   A    
Ba1   P2    S    
C49   H61   S    
C37   H2    S    
C4    C55   S    
C59   C60   S    
C23   H5    S    
Ba2   O27   S    
C54   H73   S    
C1    C48   S    
C34   H7    S    
C16   H9    S    
C19   P2    S    
C4    C16   S    
C28   C32   S    
C59   O9    S    
C50   H69   S    
C52   O19   D    
C60   H16   S    
N1    N2    A    
C45   H10   S    
C35   H45   S    
C17   H25   S    
O2    P5    D    
C26   P7    S    
C46   H58   S    
C3    C5    D    
Ba1   P1    S    
C6    C7    D    
C11   C17   A    
Ba2   P4    S    
C4    O21   S    
Ba1   O15   S    
O14   P6    S    
C28   H36   S    
C55   H77   S    
C31   H30   S    
C41   H43   S    
C49   H62   S    
C13   C17   A    
C51   H65   S    
C8    N4    A    
C38   H41   S    
C9    N3    A    
C47   H55   S    
C35   H56   S    
C41   H42   S    
C59   H15   S    
Ba2   O5    S    
C11   P4    S    
C23   O7    S    
C32   H1    S    
C48   C49   S    
C28   O25   S    
C39   H37   S    
C41   H44   S    
C12   H3    S    
O5    P2    S    
C1    C12   S    
C45   C52   S    
C55   O20   D    
C57   H82   S    
C46   C47   S    
C60   H18   S    
O15   P2    D    
C14   H22   S    
C51   H66   S    
C40   C41   S    
Ba2   O6    S    
C39   H39   S    
C54   H72   S    
C42   C43   S    
C56   H11   S    
C27   N6    S    
O23   P4    S    
C18   H31   S    
C38   C39   S    
C61   H24   S    
C23   C34   S    
C7    C61   D    
C26   C29   A    
C16   H33   S    
C2    C3    S    
C22   H27   S    
O21   P3    S    
C1    C50   S    
C43   H48   S    
C48   H64   S    
C13   P8    S    
C28   H35   S    
N3    N4    A    
C44   H53   S    
C30   C31   A    
C35   C42   S    
Ba1   O4    S    
C34   H6    S    
C40   H47   S    
C58   H81   S    
C38   H40   S    
O9    P8    S    
C3    H19   S    
Ba1   O26   S    
C18   C24   A    
Ba2   O4    S    
C29   H32   S    
Ba1   O16   S    
C39   H38   S    
C25   H26   S    
Ba1   O1    S    
C36   C44   S    
C7    P1    S    
O27   P5    S    
C21   C22   A    
C12   C38   S    
C57   H83   S    
C43   H50   S    
C16   C57   S    
C18   C19   A    
Ba1   O10   S    
Ba2   O26   S    
C53   C56   S    
C37   H84   S    
C25   C26   A    
C20   C21   A    
O22   P4    D    
N5    N6    D    
O7    P7    S    
C12   O14   S    
C33   H34   S    
O24   P8    S    
O25   P4    S    
C8    N1    A    
C37   C46   S    
C45   C56   S    
