data_mof_unit_38514.cif
_audit_creation_date              2012-12-11T16:46:31-0500
_audit_creation_method            fapswitch 2.2
_symmetry_space_group_name_H-M    P1
_symmetry_Int_Tables_number       1
_space_group_crystal_system       triclinic
_cell_length_a                    26.178854
_cell_length_b                    7.189242
_cell_length_c                    23.952424
_cell_angle_alpha                 90.000374
_cell_angle_beta                  101.591114
_cell_angle_gamma                 90.000242
_cell_volume                      4416.05860971

loop_
_atom_site_label
_atom_site_type_symbol
_atom_type_description
_atom_site_fract_x
_atom_site_fract_y
_atom_site_fract_z
_atom_type_partial_charge
O1    O     O_R   0.547620 0.505720 0.453310 -0.538758
O2    O     O_R   0.452380 0.005720 0.546690 -0.538757
O3    O     O_R   0.442260 0.172470 0.436770 -0.534017
O4    O     O_R   0.557740 0.672470 0.563230 -0.534016
C1    C     C_R   0.076178 0.468051 0.078643 0.710157
C2    C     C_R   0.923822 0.968050 0.921357 0.710152
C3    C     C_R   0.424034 0.344528 0.421650 0.707999
C4    C     C_R   0.575966 0.844530 0.578349 0.708000
O5    O     O_R   0.546600 0.175780 0.446490 -0.541641
O6    O     O_R   0.453400 0.675780 0.553510 -0.541641
O7    O     O_R   0.557460 0.008970 0.556480 -0.529865
O8    O     O_R   0.442540 0.508970 0.443520 -0.529865
C5    C     C_R   0.562313 0.344772 0.434325 0.702762
C6    C     C_R   0.437687 0.844772 0.565675 0.702762
O9    O     O_R   0.047630 0.803580 0.953300 -0.502114
O10   O     O_R   0.952370 0.303580 0.046700 -0.502116
O11   O     O_3   0.503440 0.340340 0.536080 -0.373567
O12   O     O_3   0.496560 0.840340 0.463920 -0.373569
V1    V     V_3+5 0.499360 0.064140 0.493310 1.399601
V2    V     V_3+5 0.500640 0.564140 0.506690 1.399602
O13   O     O_R   0.057730 0.636870 0.063240 -0.534435
O14   O     O_R   0.942270 0.136870 0.936760 -0.534433
O15   O     O_3   0.996540 0.468950 0.963950 -0.368490
O16   O     O_3   0.003460 0.968950 0.036050 -0.368492
C7    C     C_R   0.110943 0.780395 0.870098 0.469906
C8    C     C_R   0.889057 0.280397 0.129903 0.469902
C9    C     C_R   0.148105 0.773080 0.835210 -0.227852
C10   C     C_R   0.851895 0.273081 0.164791 -0.227853
H1    H     H_    0.158106 0.638782 0.819934 0.120558
H2    H     H_    0.841896 0.138784 0.180068 0.120562
C11   C     C_R   0.172732 0.934723 0.820978 0.033118
C12   C     C_R   0.827267 0.434723 0.179021 0.033117
C13   C     C_R   0.160046 0.105548 0.843343 -0.150763
C14   C     C_R   0.839952 0.605547 0.156655 -0.150765
H3    H     H_    0.177787 0.233469 0.832800 0.124332
H4    H     H_    0.822209 0.733467 0.167197 0.124335
C15   C     C_R   0.124131 0.113971 0.879480 -0.240938
C16   C     C_R   0.875867 0.613970 0.120519 -0.240940
H5    H     H_    0.116279 0.247791 0.896607 0.192657
H6    H     H_    0.883719 0.747789 0.103390 0.192655
C17   C     C_R   0.099307 0.952323 0.893981 -0.151611
C18   C     C_R   0.900692 0.452324 0.106018 -0.151613
C19   C     C_R   0.256877 0.035437 0.793774 -0.151083
C20   C     C_R   0.743119 0.535420 0.206222 -0.151081
H7    H     H_    0.263918 0.131955 0.829179 0.110765
H8    H     H_    0.736076 0.631926 0.170813 0.110765
C21   C     C_R   0.294120 0.020604 0.759397 -0.159933
C22   C     C_R   0.705876 0.520585 0.240599 -0.159911
H9    H     H_    0.328832 0.105596 0.768908 0.111126
H10   H     H_    0.671162 0.605561 0.231084 0.111110
C23   C     C_R   0.287387 0.893524 0.714020 0.111557
C24   C     C_R   0.712613 0.393522 0.285980 0.111589
C25   C     C_R   0.242514 0.781788 0.703464 -0.089729
C26   C     C_R   0.757488 0.281802 0.296539 -0.089726
H11   H     H_    0.236081 0.684298 0.668271 0.129737
H12   H     H_    0.763924 0.184325 0.331735 0.129731
C27   C     C_R   0.205154 0.796741 0.737647 -0.178597
C28   C     C_R   0.794848 0.296756 0.262356 -0.178597
H13   H     H_    0.170652 0.710338 0.727730 0.108122
H14   H     H_    0.829353 0.210366 0.272275 0.108123
C29   C     C_R   0.211884 0.923288 0.783472 0.106899
C30   C     C_R   0.788115 0.423288 0.216527 0.106896
C31   C     C_R   0.349475 0.706681 0.667928 0.479937
C32   C     C_R   0.650528 0.206678 0.332074 0.479949
C33   C     C_R   0.384899 0.695553 0.630969 -0.246548
C34   C     C_R   0.615104 0.195550 0.369034 -0.246566
H15   H     H_    0.401014 0.561052 0.623675 0.139234
H16   H     H_    0.598990 0.061047 0.376331 0.139222
C35   C     C_R   0.399918 0.855966 0.604659 -0.111747
C36   C     C_R   0.600082 0.355966 0.395341 -0.111734
C37   C     C_R   0.378379 0.028194 0.615949 -0.162360
C38   C     C_R   0.621619 0.528195 0.384048 -0.162367
H17   H     H_    0.388894 0.155125 0.596682 0.142576
H18   H     H_    0.611101 0.655127 0.403313 0.142575
C39   C     C_R   0.342300 0.039333 0.651690 -0.224019
C40   C     C_R   0.657698 0.539333 0.348308 -0.224051
H19   H     H_    0.325758 0.173349 0.658662 0.181080
H20   H     H_    0.674238 0.673350 0.341333 0.181086
C41   C     C_R   0.326842 0.879128 0.677355 -0.018298
C42   C     C_R   0.673158 0.379126 0.322645 -0.018286
C43   C     C_3   0.750998 0.798630 0.810433 -0.335490
C44   C     C_3   0.248982 0.298500 0.189583 -0.335445
C45   C     C_3   0.767417 0.121261 0.772728 0.398800
C46   C     C_3   0.232616 0.621255 0.227233 0.398782
C47   C     C_3   0.716468 0.099300 0.725224 -0.403415
C48   C     C_3   0.283565 0.599278 0.274737 -0.403432
H21   H     H_    0.666753 0.834273 0.778632 0.132072
H22   H     H_    0.333234 0.333973 0.221374 0.132074
H23   H     H_    0.741034 0.849199 0.850681 0.146268
H24   H     H_    0.258955 0.348976 0.149330 0.146303
H25   H     H_    0.795810 0.191803 0.750853 0.063677
H26   H     H_    0.204237 0.691924 0.249098 0.063675
H27   H     H_    0.680822 0.155722 0.737228 0.142008
H28   H     H_    0.319220 0.655570 0.262719 0.141992
H29   H     H_    0.721180 0.180169 0.686930 0.115508
H30   H     H_    0.278871 0.680258 0.313016 0.115509
C49   C     C_1   0.621652 0.855499 0.624246 -0.184329
C50   C     C_1   0.378348 0.355494 0.375754 -0.184332
C51   C     C_3   0.792060 0.926906 0.791378 0.199763
C52   C     C_3   0.207941 0.426914 0.208621 0.199757
C53   C     C_3   0.701112 0.781633 0.762664 -0.344768
C54   C     C_3   0.298866 0.281472 0.237353 -0.344770
C55   C     C_3   0.707326 0.891178 0.708573 0.243423
C56   C     C_3   0.292675 0.391174 0.291426 0.243430
C57   C     C_3   0.756660 0.816550 0.689115 -0.335691
C58   C     C_3   0.243331 0.316726 0.310904 -0.335700
C59   C     C_3   0.805986 0.834908 0.737595 -0.433785
C60   C     C_3   0.194006 0.335080 0.262423 -0.433806
C61   C     C_1   0.660078 0.869634 0.662253 -0.073878
C62   C     C_1   0.339922 0.369626 0.337746 -0.073879
C63   C     C_1   0.839618 0.944660 0.837539 -0.025506
C64   C     C_1   0.160383 0.444670 0.162461 -0.025504
C65   C     C_1   0.878129 0.957314 0.875485 -0.173478
C66   C     C_1   0.121871 0.457320 0.124515 -0.173481
H31   H     H_    0.823121 0.694622 0.748480 0.171275
H32   H     H_    0.176850 0.194808 0.251565 0.171220
H33   H     H_    0.836081 0.918742 0.722130 0.137125
H34   H     H_    0.163924 0.419024 0.277875 0.137139
H35   H     H_    0.750905 0.667883 0.676437 0.153559
H36   H     H_    0.249063 0.168078 0.323613 0.153533
H37   H     H_    0.767995 0.657569 0.820201 0.183004
H38   H     H_    0.231962 0.157461 0.179834 0.182988
H39   H     H_    0.693626 0.632409 0.751671 0.152505
H40   H     H_    0.306322 0.132249 0.248372 0.152537
H41   H     H_    0.762864 0.894979 0.650980 0.143019
H42   H     H_    0.237142 0.395279 0.349024 0.143026
V3    V     V_3+5 0.000640 0.745210 0.006690 1.466305
V4    V     V_3+5 0.999360 0.245210 0.993310 1.466306
O17   O     O_R   0.057440 0.306950 0.056520 -0.535573
O18   O     O_R   0.942560 0.806950 0.943480 -0.535573
O19   O     O_R   0.953390 0.633680 0.053510 -0.545981
O20   O     O_R   0.046610 0.133680 0.946490 -0.545981
C67   C     C_R   0.937972 0.464229 0.066145 0.699602
C68   C     C_R   0.062027 0.964228 0.933855 0.699608
O21   O     O_3   0.088649 0.616182 0.883397 -0.550643
C69   C     C_3   0.048275 0.566966 0.837397 -0.241735
H43   H     H_    0.063864 0.533006 0.798686 0.118042
H44   H     H_    0.018303 0.678709 0.827930 0.115975
H45   H     H_    0.028675 0.440436 0.849299 0.166502
O22   O     O_3   0.911352 0.116184 0.116604 -0.550644
C70   C     C_3   0.951727 0.066976 0.162603 -0.241731
H46   H     H_    0.936139 0.033022 0.201316 0.118041
H47   H     H_    0.981699 0.178722 0.172068 0.115972
H48   H     H_    0.971327 0.940445 0.150702 0.166499
O23   O     O_3   0.765467 0.239964 0.820110 -0.553309
C71   C     C_3   0.717288 0.245215 0.837943 -0.261225
H49   H     H_    0.696599 0.110327 0.834324 0.129546
H50   H     H_    0.691917 0.353924 0.813828 0.132742
H51   H     H_    0.724724 0.285843 0.883527 0.161851
O24   O     O_3   0.234577 0.739827 0.179824 -0.553309
C72   C     C_3   0.282762 0.744994 0.162003 -0.261199
H52   H     H_    0.303434 0.610070 0.165632 0.129540
H53   H     H_    0.308140 0.853695 0.186116 0.132754
H54   H     H_    0.275337 0.785591 0.116417 0.161861
O25   O     O_3   0.336851 0.547890 0.694639 -0.564535
C73   C     C_3   0.374837 0.522312 0.744841 -0.289667
H55   H     H_    0.378197 0.646536 0.773171 0.139498
H56   H     H_    0.413388 0.487491 0.734718 0.135785
H57   H     H_    0.362924 0.404215 0.768965 0.159409
O26   O     O_3   0.663156 0.047889 0.305365 -0.564531
C74   C     C_3   0.625149 0.022217 0.255185 -0.289687
H58   H     H_    0.621740 0.146446 0.226853 0.139474
H59   H     H_    0.586619 0.987260 0.265339 0.135799
H60   H     H_    0.637075 0.904176 0.231047 0.159418

loop_
_geom_bond_atom_site_label_1
_geom_bond_atom_site_label_2
_ccdc_geom_bond_type
C28   C30   A    
C34   H16   S    
C31   C33   A    
C45   O23   S    
C50   C62   T    
C3    C50   S    
C1    C66   S    
C9    H1    S    
C11   C29   S    
O4    C4    A    
C48   C56   S    
V4    O17   S    
C56   C58   S    
O23   C71   S    
O21   C69   S    
C21   H9    S    
O9    C68   A    
C43   C53   S    
C8    C10   A    
C57   C59   S    
O7    V1    S    
C53   H39   S    
C39   C41   A    
C18   C67   S    
C73   H55   S    
C16   H6    S    
C46   C48   S    
C16   C18   A    
O3    C3    A    
C70   H47   S    
C27   H13   S    
C5    C36   S    
C28   H14   S    
C2    O14   A    
O11   V2    S    
O12   V1    S    
C72   H54   S    
C35   C37   A    
O5    C5    A    
C48   H28   S    
H21   C53   S    
C47   H27   S    
C73   H56   S    
O5    V1    S    
C63   C65   T    
O6    V2    S    
C33   H15   S    
O16   V3    S    
C72   H52   S    
C11   C13   A    
O3    V1    S    
O13   V3    S    
C47   C55   S    
C2    O18   A    
C43   H23   S    
C1    O17   A    
C53   C55   S    
C45   C51   S    
C72   H53   S    
C32   C42   A    
C32   O26   S    
C51   C59   S    
C69   H45   S    
C54   H40   S    
O10   C67   A    
V4    O20   S    
C64   C66   T    
C17   C68   S    
C74   H59   S    
C24   C26   A    
C74   H58   S    
C71   H50   S    
C25   H11   S    
C3    O8    A    
C26   H12   S    
C52   C60   S    
C36   C38   A    
C9    C11   A    
C46   C52   S    
C60   H34   S    
C10   C12   A    
O22   C70   S    
C38   H18   S    
O6    C6    A    
C70   H48   S    
C7    C17   A    
C37   H17   S    
C25   C27   A    
C21   C23   A    
C20   H8    S    
C20   C30   A    
C13   C15   A    
C43   H37   S    
C23   C25   A    
C12   C14   A    
C4    C49   S    
C2    C65   S    
C71   H51   S    
C49   C61   T    
O14   V4    S    
C51   C63   S    
O8    V2    S    
C44   C54   S    
C38   C40   A    
C55   C57   S    
C54   C56   S    
C39   H19   S    
C23   C41   S    
C59   H31   S    
C48   H30   S    
O20   C68   A    
C69   H44   S    
C45   C47   S    
C52   C64   S    
C6    C35   S    
C56   C62   S    
O1    C5    A    
C74   H60   S    
C45   H25   S    
C19   C29   A    
C71   H49   S    
C26   C28   A    
O1    V2    S    
C58   H36   S    
O2    V1    S    
C14   C16   A    
C44   C52   S    
C73   H57   S    
C40   C42   A    
C40   H20   S    
C69   H43   S    
O19   C67   A    
H22   C54   S    
C27   C29   A    
C31   C41   A    
C7    C9    A    
C43   C51   S    
C58   H42   S    
C8    O22   S    
C44   H24   S    
C57   H41   S    
C55   C61   S    
O26   C74   S    
C60   H32   S    
C10   H2    S    
V3    O18   S    
C12   C30   S    
C19   H7    S    
C70   H46   S    
C37   C39   A    
C47   H29   S    
C34   C36   A    
C58   C60   S    
C4    O7    A    
C33   C35   A    
C22   H10   S    
C13   H3    S    
C59   H33   S    
C14   H4    S    
O10   V4    S    
C8    C18   A    
C15   C17   A    
O2    C6    A    
V3    O19   S    
C31   O25   S    
O4    V2    S    
C22   C24   A    
C1    O13   A    
C15   H5    S    
C7    O21   S    
O25   C73   S    
O24   C72   S    
C57   H35   S    
O9    V3    S    
C46   H26   S    
C24   C42   S    
C19   C21   A    
C44   H38   S    
C20   C22   A    
C32   C34   A    
O15   V4    S    
C46   O24   S    
