data_mof_unit_30388.cif
_audit_creation_date              2012-12-10T19:10:06-0500
_audit_creation_method            fapswitch 2.2
_symmetry_space_group_name_H-M    P1
_symmetry_Int_Tables_number       1
_space_group_crystal_system       triclinic
_cell_length_a                    10.94612
_cell_length_b                    10.803372
_cell_length_c                    9.582064
_cell_angle_alpha                 90.144083
_cell_angle_beta                  91.291917
_cell_angle_gamma                 89.936716
_cell_volume                      1132.8347938

loop_
_atom_site_label
_atom_site_type_symbol
_atom_type_description
_atom_site_fract_x
_atom_site_fract_y
_atom_site_fract_z
_atom_type_partial_charge
C1    C     C_R   0.489588 0.262674 0.499335 0.895717
C2    C     C_R   0.172245 0.580818 0.958565 -0.122410
C3    C     C_R   0.931177 0.533594 0.387224 -0.258667
C4    C     C_R   0.872237 0.490099 0.505110 -0.153057
C5    C     C_R   0.943736 0.437968 0.615671 -0.085544
C6    C     C_R   0.070774 0.439924 0.608947 0.523207
C7    C     C_R   0.128783 0.489542 0.493660 -0.186078
C8    C     C_R   0.057347 0.526582 0.376702 -0.040574
C9    C     C_R   0.887489 0.433137 0.864428 -0.113689
C10   C     C_R   0.855748 0.368447 0.984074 -0.226744
C11   C     C_R   0.842717 0.240018 0.979416 -0.227131
C12   C     C_R   0.262429 0.497283 0.497893 0.804220
C13   C     C_R   0.863642 0.176465 0.855346 0.718870
C14   C     C_R   0.887572 0.242357 0.733193 -0.079409
C15   C     C_R   0.894218 0.372005 0.736038 0.075924
C16   C     C_R   0.473616 0.064429 0.622725 -0.075408
C17   C     C_R   0.462155 0.130232 0.499170 -0.178791
C18   C     C_R   0.416585 0.066878 0.380403 0.555831
C19   C     C_R   0.408818 0.935919 0.380152 0.032006
C20   C     C_R   0.455324 0.870022 0.499255 -0.178657
C21   C     C_R   0.470211 0.937067 0.623204 -0.021409
C22   C     C_3   0.567034 0.929629 0.734276 -0.415479
C23   C     C_R   0.485923 0.737129 0.499372 0.818512
C24   C     C_3   0.574202 0.068928 0.728533 0.522725
C25   C     C_R   0.539028 0.601218 0.075342 0.278071
C26   C     C_R   0.456319 0.402355 0.072570 -0.088263
C27   C     C_R   0.456677 0.402074 0.924300 -0.058412
C28   C     C_R   0.536399 0.602742 0.927770 0.237472
C29   C     C_3   0.660565 0.658804 0.926245 -0.500707
C30   C     C_3   0.664773 0.653022 0.083586 -0.484371
C31   C     C_R   0.737840 0.494790 0.502060 0.849248
C32   C     C_R   0.136795 0.681052 0.039819 -0.182731
C33   C     C_R   0.102805 0.662450 0.177471 -0.216155
C34   C     C_R   0.106209 0.543448 0.236079 0.157859
C35   C     C_R   0.140987 0.440344 0.153445 0.154648
C36   C     C_R   0.173268 0.461593 0.014586 -0.123647
Cu1   Cu    Cu3+1 0.499990 0.499980 0.640670 0.973513
Cu2   Cu    Cu3+1 0.500010 0.500020 0.359330 0.956445
H1    H     H_    0.198916 0.595544 0.851874 0.184294
H2    H     H_    0.820959 0.189445 0.072961 0.161230
H3    H     H_    0.905084 0.192377 0.637504 0.164657
H4    H     H_    0.528257 0.896985 0.833700 0.136599
H5    H     H_    0.651239 0.882533 0.698660 0.231766
H6    H     H_    0.550842 0.117529 0.826728 0.065996
H7    H     H_    0.420970 0.322907 0.126052 0.201530
H8    H     H_    0.134986 0.773255 0.995892 0.165967
H9    H     H_    0.421693 0.322204 0.868339 0.150152
H10   H     H_    0.725265 0.598374 0.873669 0.224084
H11   H     H_    0.662775 0.754598 0.888807 0.205622
H12   H     H_    0.732271 0.585577 0.124646 0.203340
H13   H     H_    0.669845 0.745108 0.134575 0.199176
H14   H     H_    0.073140 0.740919 0.238694 0.141684
H15   H     H_    0.201927 0.385187 0.950308 0.194891
H16   H     H_    0.878465 0.567934 0.298678 0.163218
H17   H     H_    0.911061 0.530202 0.872410 0.148864
H18   H     H_    0.846491 0.417251 0.081520 0.155995
N1    N     N_R   0.500790 0.500930 0.147930 -0.190013
N2    N     N_R   0.500790 0.500890 0.852020 -0.185479
O1    O     O_R   0.500000 0.319640 0.618810 -0.581846
O2    O     O_R   0.500010 0.319680 0.381230 -0.555382
O3    O     O_R   0.319640 0.499990 0.618790 -0.541470
O4    O     O_R   0.319650 0.500030 0.381210 -0.611316
O5    O     O_R   0.499990 0.680320 0.618770 -0.581880
O6    O     O_R   0.500000 0.680360 0.381190 -0.582396
O7    O     O_R   0.680350 0.499970 0.618790 -0.574416
O8    O     O_R   0.680360 0.500010 0.381210 -0.589598
F1    F     F_    0.861146 0.050942 0.853490 -0.663496
F2    F     F_    0.381247 0.131234 0.265207 -0.726347
C37   C     C_3   0.343650 0.873102 0.257801 -0.324120
C38   C     C_3   0.412344 0.887132 0.121676 -0.749360
H19   H     H_    0.511705 0.875427 0.140331 0.243346
H20   H     H_    0.379677 0.816817 0.044928 0.210928
H21   H     H_    0.395996 0.979772 0.075174 0.276017
H22   H     H_    0.326582 0.773918 0.278044 0.209378
H23   H     H_    0.251456 0.915148 0.243846 0.203095
F3    F     F_    0.679708 0.108216 0.666923 -0.665616
C39   C     C_3   0.153364 0.308963 0.210399 -0.362854
C40   C     C_3   0.037191 0.255098 0.272610 -0.795888
H24   H     H_    0.044756 0.254821 0.388250 0.243816
H25   H     H_    0.954858 0.308240 0.242063 0.251238
H26   H     H_    0.024589 0.157695 0.237909 0.247052
H27   H     H_    0.182965 0.245089 0.126423 0.219051
H28   H     H_    0.227251 0.306239 0.291068 0.248141
F4    F     F_    0.137963 0.381739 0.709983 -0.706583

loop_
_geom_bond_atom_site_label_1
_geom_bond_atom_site_label_2
_ccdc_geom_bond_type
C31   O8    A    
C30   H13   S    
C16   C21   A    
C35   C36   A    
C7    C8    A    
C29   H11   S    
C39   C40   S    
C33   H14   S    
C26   C27   A    
Cu1   Cu2   S    
C28   C29   S    
C18   C19   A    
C1    O1    A    
C5    C6    A    
C3    H16   S    
C40   H25   S    
C39   H28   S    
C18   F2    S    
C2    C32   A    
C34   C35   A    
C36   H15   S    
C26   H7    S    
C2    H1    S    
Cu2   O8    S    
C16   C17   A    
Cu1   O7    S    
C38   H19   S    
C9    H17   S    
C10   H18   S    
C9    C10   A    
Cu1   N2    S    
C23   O5    A    
C30   H12   S    
C16   C24   S    
C13   C14   A    
C37   C38   S    
C25   N1    A    
Cu1   O5    S    
C33   C34   A    
Cu2   O6    S    
C7    C12   S    
C6    F4    S    
C29   H10   S    
C3    C8    A    
C1    O2    A    
C40   H24   S    
C24   F3    S    
C35   C39   S    
C25   C28   A    
C29   C30   S    
Cu2   N1    S    
C12   O4    A    
C22   H5    S    
C20   C23   S    
C38   H21   S    
C17   C18   A    
C37   H22   S    
C8    C34   S    
Cu1   O1    S    
C14   H3    S    
Cu2   O2    S    
C27   H9    S    
C23   O6    A    
C24   H6    S    
C22   C24   S    
C19   C37   S    
C3    C4    A    
C13   F1    S    
C2    C36   A    
C25   C30   S    
C31   O7    A    
C32   H8    S    
C4    C5    A    
C27   N2    A    
Cu1   O3    S    
C6    C7    A    
C28   N2    A    
C1    C17   S    
C32   C33   A    
C19   C20   A    
C9    C15   A    
C12   O3    A    
C11   C13   A    
C40   H26   S    
C22   H4    S    
C39   H27   S    
C37   H23   S    
C11   H2    S    
C26   N1    A    
C5    C15   S    
C4    C31   S    
C10   C11   A    
C20   C21   A    
C14   C15   A    
C38   H20   S    
C21   C22   S    
Cu2   O4    S    
