data_mof_unit_12252.cif
_audit_creation_date              2012-12-10T18:09:11-0500
_audit_creation_method            fapswitch 2.2
_symmetry_space_group_name_H-M    P1
_symmetry_Int_Tables_number       1
_space_group_crystal_system       triclinic
_cell_length_a                    12.67507
_cell_length_b                    13.193169
_cell_length_c                    13.661334
_cell_angle_alpha                 91.260525
_cell_angle_beta                  96.429043
_cell_angle_gamma                 97.19178
_cell_volume                      2250.77759676

loop_
_atom_site_label
_atom_site_type_symbol
_atom_type_description
_atom_site_fract_x
_atom_site_fract_y
_atom_site_fract_z
_atom_type_partial_charge
C1    C     C_R   0.559194 0.691008 0.513473 0.844275
C2    C     C_R   0.461840 0.034744 0.505156 0.071812
C3    C     C_R   0.368685 0.001322 0.550944 0.169182
C4    C     C_R   0.516263 0.495949 0.318321 0.896220
C5    C     C_R   0.357221 0.905812 0.592118 -0.276972
C6    C     C_R   0.435235 0.842207 0.586435 -0.205254
C7    C     C_R   0.472925 0.133521 0.470212 -0.268131
C8    C     C_R   0.308737 0.167075 0.532087 -0.203383
C9    C     C_R   0.595764 0.800318 0.517222 -0.105211
C10   C     C_R   0.898200 0.341418 0.622262 -0.346195
C11   C     C_R   0.218734 0.635131 0.393597 -0.050976
C12   C     C_1   0.524624 0.492109 0.216839 -0.169764
C13   C     C_R   0.119463 0.663198 0.361818 -0.085972
C14   C     C_R   0.026527 0.605154 0.389498 -0.043103
C15   C     C_R   0.037670 0.526343 0.459765 -0.056787
C16   C     C_R   0.440326 0.309256 0.489146 0.857775
C17   C     C_R   0.142854 0.501452 0.486767 0.212515
C18   C     C_R   0.953031 0.472718 0.507308 -0.004683
C19   C     C_R   0.976379 0.392596 0.571561 0.187733
C20   C     C_R   0.079396 0.367688 0.590677 -0.290439
C21   C     C_R   0.161662 0.423618 0.551156 -0.192780
C22   C     C_R   0.847762 0.498103 0.500233 -0.077920
C23   C     C_R   0.290632 0.066324 0.559880 -0.221184
C24   C     C_R   0.796674 0.370057 0.612185 0.126911
C25   C     C_R   0.482688 0.502131 0.681490 0.882387
C26   C     C_1   0.468337 0.496118 0.781640 -0.174373
C27   C     C_2   0.446677 0.482974 0.967929 -0.153341
C28   C     C_2   0.536735 0.490704 0.028297 -0.194519
C29   C     C_1   0.531080 0.490151 0.130801 -0.013292
C30   C     C_1   0.455227 0.489838 0.866123 -0.006409
C31   C     C_R   0.719748 0.321645 0.675544 0.170556
C32   C     C_R   0.711215 0.367486 0.767564 -0.125947
C33   C     C_R   0.646968 0.316757 0.832738 -0.149411
C34   C     C_R   0.402952 0.201294 0.491849 -0.034287
C35   C     C_R   0.592541 0.219399 0.807322 -0.123430
C36   C     C_R   0.604205 0.171685 0.717608 -0.136454
C37   C     C_R   0.668886 0.222053 0.652567 -0.134639
C38   C     C_R   0.924404 0.618808 0.330939 0.106946
C39   C     C_R   0.878116 0.544026 0.259097 -0.159940
C40   C     C_R   0.791961 0.563083 0.192213 -0.125094
C41   C     C_R   0.750328 0.656103 0.197626 -0.104267
C42   C     C_R   0.794268 0.729855 0.270629 -0.136207
C43   C     C_R   0.881433 0.711662 0.336955 -0.161521
C44   C     C_R   0.116524 0.751707 0.297237 0.119180
C45   C     C_R   0.694629 0.834082 0.484863 -0.200096
C46   C     C_R   0.151832 0.850744 0.337112 -0.169625
C47   C     C_R   0.150362 0.934901 0.276832 -0.130927
C48   C     C_R   0.114104 0.920623 0.176419 -0.117216
C49   C     C_R   0.079837 0.822106 0.136069 -0.139725
C50   C     C_R   0.081528 0.737688 0.196076 -0.113870
C51   C     C_R   0.717995 0.934798 0.459498 -0.162481
C52   C     C_R   0.641738 0.001525 0.463223 -0.197310
C53   C     C_R   0.542744 0.970313 0.500201 0.078268
C54   C     C_R   0.524602 0.870552 0.535254 0.088095
H1    H     H_    0.614651 0.501795 0.001202 0.140466
H2    H     H_    0.288619 0.880825 0.630358 0.149737
H3    H     H_    0.219272 0.041272 0.594243 0.134704
H4    H     H_    0.539673 0.163030 0.432381 0.141132
H5    H     H_    0.751332 0.781242 0.474057 0.156786
H6    H     H_    0.664173 0.077012 0.438067 0.125184
H7    H     H_    0.793590 0.960058 0.432291 0.139230
H8    H     H_    0.754526 0.442201 0.788818 0.122205
H9    H     H_    0.640265 0.352359 0.903374 0.135380
H10   H     H_    0.542969 0.180206 0.857908 0.132638
H11   H     H_    0.564537 0.095089 0.699347 0.147939
H12   H     H_    0.425386 0.770664 0.623673 0.170324
H13   H     H_    0.680479 0.183508 0.584820 0.126872
H14   H     H_    0.911635 0.472938 0.252368 0.129564
H15   H     H_    0.758949 0.506161 0.135236 0.125212
H16   H     H_    0.684421 0.671403 0.144964 0.132517
H17   H     H_    0.762216 0.801914 0.274502 0.135517
H18   H     H_    0.917542 0.770729 0.391075 0.125074
H19   H     H_    0.179923 0.862641 0.414843 0.140204
H20   H     H_    0.177343 0.011131 0.307983 0.143065
H21   H     H_    0.112892 0.985845 0.129817 0.124736
H22   H     H_    0.052255 0.811140 0.058233 0.127418
H23   H     H_    0.097587 0.307900 0.640748 0.147949
H24   H     H_    0.055631 0.661670 0.163916 0.129180
H25   H     H_    0.917086 0.282032 0.672695 0.147711
H26   H     H_    0.822241 0.560759 0.459675 0.160772
H27   H     H_    0.290146 0.676103 0.369550 0.166717
H28   H     H_    0.240570 0.406519 0.574393 0.209362
H29   H     H_    0.368392 0.473721 0.994420 0.157670
H30   H     H_    0.253027 0.219333 0.547992 0.148713
N1    N     N_R   0.773270 0.445590 0.549770 -0.124530
N2    N     N_R   0.227520 0.553880 0.450750 -0.138914
O1    O     O_R   0.631100 0.627590 0.523760 -0.617093
O2    O     O_R   0.455900 0.662370 0.491970 -0.620368
O3    O     O_R   0.600200 0.480080 0.377830 -0.602124
O4    O     O_R   0.425000 0.514870 0.346040 -0.609420
O5    O     O_R   0.544100 0.337630 0.508030 -0.608541
O6    O     O_R   0.368900 0.372410 0.476240 -0.638348
O7    O     O_R   0.575000 0.485130 0.653960 -0.601912
O8    O     O_R   0.399800 0.519920 0.622170 -0.633657
Zn1   Zn    Zn3+2 0.616980 0.476780 0.521230 0.947199
Zn2   Zn    Zn3+2 0.383020 0.523220 0.478770 0.925011

loop_
_geom_bond_atom_site_label_1
_geom_bond_atom_site_label_2
_ccdc_geom_bond_type
C1    O1    A    
C15   C18   A    
O2    Zn2   S    
C25   O7    A    
C43   H18   S    
C12   C29   T    
C11   C13   A    
C39   H14   S    
C5    H2    S    
C3    C23   A    
C19   C20   A    
C51   H7    S    
C53   C54   A    
C11   H27   S    
C9    C45   A    
C20   H23   S    
C28   C29   S    
C5    C6    A    
C45   C51   A    
C11   N2    A    
O6    Zn2   S    
C8    C23   A    
C15   C17   A    
C18   C19   A    
C41   C42   A    
C22   N1    A    
C52   H6    S    
C16   C34   S    
C2    C7    A    
O1    Zn1   S    
C35   H10   S    
C4    C12   S    
C24   N1    A    
C7    H4    S    
C1    O2    A    
C25   O8    A    
O7    Zn1   S    
C8    H30   S    
C13   C14   A    
C27   C30   S    
C48   H21   S    
C6    C54   A    
C50   H24   S    
C28   H1    S    
C44   C46   A    
C4    O4    A    
C40   H15   S    
C51   C52   A    
C47   C48   A    
C1    C9    S    
C39   C40   A    
C36   H11   S    
C10   C24   A    
C25   C26   S    
C17   C21   A    
C17   N2    A    
C35   C36   A    
O3    Zn1   S    
C14   C38   S    
C31   C32   A    
C10   C19   A    
C33   H9    S    
C49   H22   S    
C8    C34   A    
C20   C21   A    
O8    Zn2   S    
N2    Zn2   S    
C48   C49   A    
C16   O6    A    
C7    C34   A    
C42   C43   A    
C52   C53   A    
C4    O3    A    
C44   C50   A    
C23   H3    S    
C46   C47   A    
C45   H5    S    
C18   C22   A    
C47   H20   S    
C3    C5    A    
C2    C53   A    
C10   H25   S    
O4    Zn2   S    
C32   C33   A    
C27   H29   S    
C2    C3    A    
C24   C31   S    
C22   H26   S    
C38   C43   A    
N1    Zn1   S    
C38   C39   A    
C37   H13   S    
C42   H17   S    
C33   C35   A    
C46   H19   S    
O5    Zn1   S    
C31   C37   A    
C6    H12   S    
C21   H28   S    
C16   O5    A    
C36   C37   A    
C49   C50   A    
C27   C28   D    
C14   C15   A    
C40   C41   A    
C9    C54   A    
C32   H8    S    
C13   C44   S    
C41   H16   S    
C26   C30   T    
