data_mof_unit_17034.cif
_audit_creation_date              2012-12-10T18:23:10-0500
_audit_creation_method            fapswitch 2.2
_symmetry_space_group_name_H-M    P1
_symmetry_Int_Tables_number       1
_space_group_crystal_system       triclinic
_cell_length_a                    14.965963
_cell_length_b                    14.193594
_cell_length_c                    10.631119
_cell_angle_alpha                 90.166675
_cell_angle_beta                  88.064862
_cell_angle_gamma                 90.531557
_cell_volume                      2256.8781855

loop_
_atom_site_label
_atom_site_type_symbol
_atom_type_description
_atom_site_fract_x
_atom_site_fract_y
_atom_site_fract_z
_atom_type_partial_charge
C1    C     C_R   0.327233 0.499721 0.497639 0.992332
C2    C     C_R   0.955043 0.485264 0.270374 0.195955
C3    C     C_R   0.553923 0.798532 0.415190 0.056403
C4    C     C_R   0.435997 0.201372 0.569237 0.046589
C5    C     C_R   0.443980 0.798507 0.581539 0.123120
C6    C     C_R   0.562351 0.202194 0.427750 0.117592
C7    C     C_R   0.434636 0.898546 0.570716 0.027840
C8    C     C_R   0.558775 0.101430 0.416718 0.013863
C9    C     C_R   0.561135 0.899391 0.420400 0.020574
C10   C     C_R   0.436537 0.100336 0.575762 0.006751
C11   C     C_R   0.498086 0.949562 0.496020 0.006463
C12   C     C_R   0.672791 0.500482 0.502600 0.912819
C13   C     C_R   0.497865 0.050500 0.496235 0.027636
C14   C     C_R   0.365536 0.949211 0.635198 -0.029124
C15   C     C_R   0.616078 0.049748 0.332169 -0.056637
C16   C     C_R   0.626053 0.951632 0.347723 -0.060861
C17   C     C_R   0.374968 0.047189 0.653658 -0.073916
C18   C     C_R   0.498121 0.499485 0.258060 0.962878
C19   C     C_R   0.499843 0.500273 0.742097 1.039686
C20   C     C_3   0.437106 0.561309 0.044475 -0.101934
C21   C     C_3   0.557420 0.437062 0.956207 -0.115841
C22   C     C_3   0.520027 0.586378 0.960883 -0.082555
C23   C     C_R   0.953520 0.516512 0.497516 0.003271
C24   C     C_3   0.474560 0.412187 0.039606 -0.107027
C25   C     C_3   0.416539 0.476234 0.959311 -0.100205
C26   C     C_3   0.578020 0.522386 0.040874 -0.088103
C27   C     C_3   0.499331 0.500968 0.876409 -0.051312
C28   C     C_3   0.495418 0.497592 0.123948 -0.057699
C29   C     C_R   0.814983 0.490908 0.392664 -0.241073
C30   C     C_R   0.186397 0.541254 0.595482 -0.192647
C31   C     C_R   0.768556 0.502956 0.506081 -0.044286
C32   C     C_R   0.231613 0.500695 0.493646 -0.045141
C33   C     C_R   0.812684 0.522038 0.618085 -0.060874
C34   C     C_R   0.046950 0.514701 0.494067 0.003694
C35   C     C_R   0.186233 0.467853 0.388573 -0.054184
C36   C     C_R   0.906101 0.536903 0.612361 -0.033644
C37   C     C_R   0.094015 0.485700 0.382726 -0.059027
C38   C     C_2   0.324416 0.450745 0.918917 0.308985
C39   C     C_2   0.669339 0.543008 0.087157 0.405081
C40   C     C_2   0.368252 0.631840 0.087024 0.418420
C41   C     C_2   0.626021 0.364962 0.917251 0.402680
C42   C     C_2   0.543930 0.686012 0.925274 0.641664
C43   C     C_2   0.448170 0.311796 0.068398 0.494177
C44   C     C_2   0.763134 0.514656 0.740725 0.513114
C45   C     C_R   0.907538 0.496505 0.386280 0.051012
C46   C     C_2   0.232757 0.410012 0.290760 0.440626
C47   C     C_3   0.876009 0.705717 0.809254 -0.617151
C48   C     C_3   0.136314 0.585505 0.130548 -0.676654
C49   C     C_3   0.123914 0.701140 0.818724 -0.742972
C50   C     C_3   0.891873 0.392473 0.103398 -0.764052
C51   C     C_2   0.595453 0.745518 0.309498 0.555061
C52   C     C_2   0.362716 0.255973 0.627642 0.536471
C53   C     C_2   0.399909 0.747175 0.688053 0.457012
C54   C     C_2   0.637648 0.256679 0.371167 0.515122
C55   C     C_2   0.278525 0.903221 0.671707 0.424526
C56   C     C_R   0.093639 0.542219 0.601473 0.056273
C57   C     C_2   0.659657 0.094308 0.219131 0.412145
C58   C     C_2   0.709352 0.907251 0.296338 0.424282
C59   C     C_2   0.325278 0.089574 0.762666 0.417110
C60   C     C_R   0.953635 0.572337 0.716446 0.125792
C61   C     C_R   0.048199 0.482110 0.268091 0.137387
C62   C     C_R   0.047266 0.573657 0.710816 0.162166
H1    H     H_    0.777656 0.474269 0.310468 0.124669
H2    H     H_    0.200100 0.347555 0.254363 0.070439
H3    H     H_    0.938738 0.600988 0.909048 0.266146
H4    H     H_    0.933205 0.755594 0.797072 0.224133
H5    H     H_    0.835528 0.726570 0.894083 0.272406
H6    H     H_    0.833057 0.710201 0.726312 0.266949
H7    H     H_    0.126790 0.436937 0.111855 0.206797
H8    H     H_    0.180709 0.584056 0.045371 0.212364
H9    H     H_    0.177950 0.605036 0.211060 0.273689
H10   H     H_    0.084473 0.640011 0.119321 0.249751
H11   H     H_    0.140065 0.556220 0.848962 0.243133
H12   H     H_    0.224933 0.569040 0.671610 0.175271
H13   H     H_    0.198137 0.704793 0.813316 0.244594
H14   H     H_    0.100240 0.735203 0.907613 0.244271
H15   H     H_    0.097688 0.741335 0.738448 0.272617
H16   H     H_    0.859603 0.532119 0.147175 0.247417
H17   H     H_    0.862559 0.399572 0.009392 0.231056
H18   H     H_    0.843322 0.354359 0.166649 0.245011
H19   H     H_    0.954279 0.351013 0.092565 0.258022
H20   H     H_    0.637909 0.686055 0.325917 0.107462
H21   H     H_    0.376229 0.306462 0.700845 0.131951
H22   H     H_    0.368803 0.679385 0.675335 0.108143
H23   H     H_    0.273345 0.431496 0.989027 0.118008
H24   H     H_    0.625930 0.312679 0.305123 0.078547
H25   H     H_    0.242803 0.921826 0.758485 0.063765
H26   H     H_    0.729735 0.082579 0.195558 0.068917
H27   H     H_    0.733846 0.921792 0.201165 0.079515
H28   H     H_    0.253309 0.081420 0.773350 0.075529
H29   H     H_    0.704477 0.487690 0.133647 -0.016204
H30   H     H_    0.332476 0.670709 0.017241 0.071259
H31   H     H_    0.664255 0.330915 0.988822 0.070977
H32   H     H_    0.509464 0.743852 0.971937 0.107135
H33   H     H_    0.441503 0.262542 0.991169 0.124424
H34   H     H_    0.792446 0.478092 0.818521 0.063921
N1    N     N_R   0.500000 0.750030 0.500000 -0.192393
N2    N     N_R   0.500000 0.249970 0.500000 -0.178814
N3    N     N_2   0.907958 0.610686 0.824774 -0.326486
N4    N     N_2   0.093884 0.494317 0.149466 -0.298977
N5    N     N_2   0.094006 0.603713 0.818379 -0.322924
N6    N     N_2   0.911124 0.484985 0.153464 -0.298621
O1    O     O_R   0.367850 0.580280 0.500030 -0.641362
O2    O     O_2   0.704698 0.619950 0.070715 -0.528593
O3    O     O_2   0.352134 0.646206 0.198577 -0.516764
O4    O     O_2   0.638901 0.343554 0.807034 -0.530519
O5    O     O_2   0.603773 0.703143 0.847892 -0.482332
O6    O     O_2   0.433926 0.284700 0.175936 -0.501357
O7    O     O_2   0.690535 0.551220 0.757053 -0.530847
O8    O     O_2   0.306194 0.432770 0.247645 -0.566751
O9    O     O_2   0.581803 0.768347 0.201279 -0.595515
O10   O     O_2   0.286210 0.244861 0.593526 -0.580451
O11   O     O_2   0.397553 0.781485 0.793507 -0.657126
O12   O     O_R   0.632150 0.419720 0.499970 -0.622595
O13   O     O_2   0.714281 0.239422 0.399020 -0.594719
O14   O     O_2   0.244719 0.845272 0.602230 -0.576973
O15   O     O_2   0.616216 0.142848 0.149336 -0.568184
O16   O     O_2   0.752699 0.855553 0.362180 -0.563220
O17   O     O_2   0.365460 0.132240 0.843390 -0.580797
O18   O     O_R   0.632150 0.580280 0.499970 -0.629057
O19   O     O_R   0.367850 0.419720 0.500030 -0.597454
O20   O     O_R   0.499970 0.580260 0.313950 -0.618538
O21   O     O_R   0.500030 0.419740 0.686050 -0.616251
O22   O     O_R   0.500030 0.580260 0.686050 -0.638349
O23   O     O_R   0.499970 0.419740 0.313950 -0.610459
O24   O     O_2   0.306335 0.451431 0.808103 -0.645836
Zn1   Zn    Zn3+2 0.500000 0.607200 0.500000 1.004165
Zn2   Zn    Zn3+2 0.500000 0.392800 0.500000 1.026360

loop_
_geom_bond_atom_site_label_1
_geom_bond_atom_site_label_2
_ccdc_geom_bond_type
C21   C26   S    
C29   H1    S    
C34   C56   A    
C8    C13   A    
C23   C45   A    
C4    N2    A    
H16   N6    S    
C34   C37   A    
N1    Zn1   S    
C60   N3    S    
C50   H17   S    
O18   Zn1   S    
C39   O2    D    
C59   O17   D    
C7    C11   A    
C19   O21   A    
C4    C52   S    
C53   H22   S    
C44   H34   S    
C6    N2    A    
C5    C53   S    
C35   C37   A    
C9    C16   A    
C6    C54   S    
C18   O23   A    
C49   N5    S    
C30   H12   S    
C26   C39   S    
C20   C25   S    
C2    N6    S    
C10   C17   A    
C15   C16   A    
C58   O16   D    
C33   C36   A    
C47   N3    S    
C60   C62   A    
C39   H29   S    
O20   Zn1   S    
C12   O18   A    
C7    C14   A    
C41   H31   S    
O23   Zn2   S    
C43   H33   S    
C31   C33   A    
C19   C27   S    
C42   O5    D    
C1    O1    A    
C47   H4    S    
C2    C61   A    
C62   N5    S    
C44   O7    D    
N2    Zn2   S    
C14   C55   S    
C21   C27   S    
C15   C57   S    
C14   C17   A    
C48   H10   S    
C47   H5    S    
C38   O24   D    
C53   O11   D    
C12   O12   A    
C2    C45   A    
C48   N4    S    
C19   O22   A    
C41   O4    D    
C38   H23   S    
C32   C35   A    
C18   C28   S    
C24   C25   S    
H3    N3    S    
O19   Zn2   S    
C48   H8    S    
C54   H24   S    
C3    C51   S    
C6    C8    A    
C20   C28   S    
C30   C56   A    
C1    C32   S    
C29   C45   A    
C59   H28   S    
C52   H21   S    
C3    C9    A    
C25   C38   S    
O12   Zn2   S    
C3    N1    A    
C23   C34   A    
C54   O13   D    
C49   H13   S    
C49   H14   S    
C16   C58   S    
C40   H30   S    
C9    C11   A    
C51   H20   S    
C17   C59   S    
O22   Zn1   S    
C21   C41   S    
C18   O20   A    
C50   N6    S    
C8    C15   A    
C22   C27   S    
C46   O8    D    
C12   C31   S    
C22   C26   S    
C56   C62   A    
C61   N4    S    
C48   H9    S    
C4    C10   A    
C47   H6    S    
O1    Zn1   S    
C5    C7    A    
C51   O9    D    
C42   H32   S    
C33   C44   S    
C24   C28   S    
C20   C22   S    
C36   C60   A    
C10   C13   A    
C50   H18   S    
C37   C61   A    
C25   C27   S    
C26   C28   S    
C57   H26   S    
C29   C31   A    
C30   C32   A    
C11   C13   A    
O21   Zn2   S    
C22   C42   S    
C20   C40   S    
H11   N5    S    
C49   H15   S    
C5    N1    A    
C43   O6    D    
C55   H25   S    
C58   H27   S    
C1    O19   A    
C57   O15   D    
H7    N4    S    
C23   C36   A    
C55   O14   D    
C21   C24   S    
C46   H2    S    
C24   C43   S    
C52   O10   D    
C35   C46   S    
C50   H19   S    
C40   O3    D    
