data_mof_unit_37226.cif
_audit_creation_date              2012-10-26T20:00:43-0400
_audit_creation_method            fapswitch 2.2
_symmetry_space_group_name_H-M    P1
_symmetry_Int_Tables_number       1
_space_group_crystal_system       triclinic
_cell_length_a                    11.724976
_cell_length_b                    12.995444
_cell_length_c                    13.428569
_cell_angle_alpha                 93.027924
_cell_angle_beta                  76.092869
_cell_angle_gamma                 99.500924
_cell_volume                      1958.72015942

loop_
_atom_site_label
_atom_site_type_symbol
_atom_type_description
_atom_site_fract_x
_atom_site_fract_y
_atom_site_fract_z
_atom_type_partial_charge
C1    C     C_R   0.520730 0.700683 0.501397 0.558756
C2    C     C_R   0.396975 0.494986 0.808896 0.010052
C3    C     C_R   0.467917 0.185947 0.496577 0.000914
C4    C     C_R   0.436428 0.499228 0.696185 0.550357
C5    C     C_R   0.532488 0.814067 0.502672 0.006745
C6    C     C_R   0.647871 0.983969 0.519131 -0.136218
C7    C     C_R   0.637503 0.875883 0.517226 -0.136260
C8    C     C_R   0.437960 0.861056 0.489738 -0.113489
C9    C     C_R   0.447439 0.969050 0.492012 0.049148
C10   C     C_R   0.553266 0.030993 0.506714 0.047603
C11   C     C_R   0.562823 0.139016 0.508780 -0.128687
C12   C     C_R   0.446993 0.501137 0.976479 0.035414
C13   C     C_R   0.362804 0.124093 0.482283 -0.134772
C14   C     C_R   0.352678 0.016029 0.479912 -0.132156
C15   C     C_R   0.941777 0.599776 0.594667 -0.156703
C16   C     C_R   0.479415 0.299327 0.498307 0.546223
C17   C     C_R   0.824782 0.590115 0.584860 0.044516
C18   C     C_R   0.858120 0.456880 0.458990 0.045754
C19   C     C_R   0.978135 0.464563 0.465333 -0.008596
C20   C     C_R   0.020647 0.536330 0.535164 0.023077
C21   C     C_R   0.140363 0.542603 0.543242 0.229107
C22   C     C_R   0.174564 0.412417 0.412557 0.025274
C23   C     C_R   0.475337 0.533363 0.872897 0.031200
C24   C     C_R   0.056023 0.402570 0.403912 -0.184832
C25   C     C_R   0.563851 0.505631 0.304193 0.541520
C26   C     C_R   0.732172 0.615256 0.048176 -0.127984
C27   C     C_R   0.600862 0.522207 0.193442 -0.001402
C28   C     C_R   0.283828 0.440385 0.852313 -0.115654
C29   C     C_R   0.250832 0.418214 0.956176 -0.137116
C30   C     C_R   0.331666 0.445855 0.017444 -0.117962
C31   C     C_R   0.534767 0.526477 0.034882 0.032754
C32   C     C_R   0.644662 0.590020 0.991708 0.052312
C33   C     C_R   0.664700 0.630360 0.893887 -0.137755
C34   C     C_R   0.580366 0.604140 0.836213 -0.116979
C35   C     C_R   0.516865 0.490880 0.135128 -0.126202
C36   C     C_R   0.710113 0.581989 0.148917 -0.135903
Cu1   Cu    Cu3+1 0.386470 0.492430 0.492410 0.973803
Cu2   Cu    Cu3+1 0.613530 0.507570 0.507590 0.935628
H1    H     H_    0.775735 0.607263 0.193387 0.131236
H2    H     H_    0.745798 0.682893 0.861850 0.105360
H3    H     H_    0.823793 0.401672 0.405968 0.114902
H4    H     H_    0.816112 0.663720 0.015511 0.116107
H5    H     H_    0.221837 0.411709 0.805225 0.145985
H6    H     H_    0.299892 0.424473 0.096855 0.099521
H7    H     H_    0.163139 0.376073 0.988879 0.118782
H8    H     H_    0.597120 0.642180 0.763430 0.129107
H9    H     H_    0.644193 0.186285 0.520021 0.123437
H10   H     H_    0.729449 0.030626 0.530496 0.105956
H11   H     H_    0.436816 0.440348 0.171265 0.109494
H12   H     H_    0.288569 0.159090 0.472554 0.129533
H13   H     H_    0.271057 0.969342 0.468670 0.111838
H14   H     H_    0.711492 0.840846 0.527468 0.128214
H15   H     H_    0.356865 0.813869 0.477862 0.145432
H16   H     H_    0.233598 0.364390 0.364516 0.119744
H17   H     H_    0.967889 0.657997 0.648524 0.128826
H18   H     H_    0.025614 0.346922 0.349256 0.089894
H19   H     H_    0.766385 0.640324 0.629743 0.113484
I1    I     I_    0.196148 0.647891 0.657741 -0.405566
N1    N     N_R   0.215880 0.481050 0.481000 -0.219971
N2    N     N_R   0.784100 0.518950 0.519000 -0.229544
O1    O     O_R   0.419710 0.645650 0.494620 -0.474781
O2    O     O_R   0.611450 0.658430 0.507430 -0.519170
O3    O     O_R   0.357340 0.490460 0.641450 -0.469739
O4    O     O_R   0.549080 0.503250 0.654260 -0.506920
O5    O     O_R   0.388550 0.341570 0.492570 -0.511339
O6    O     O_R   0.580290 0.354350 0.505380 -0.507857
O7    O     O_R   0.450920 0.496750 0.345740 -0.508173
O8    O     O_R   0.642660 0.509540 0.358550 -0.505280

loop_
_geom_bond_atom_site_label_1
_geom_bond_atom_site_label_2
_ccdc_geom_bond_type
C8    H15   S    
C6    C10   A    
C5    C8    A    
Cu1   O1    S    
C9    C14   A    
C35   H11   S    
C6    C7    A    
C34   H8    S    
C27   C36   A    
C25   C27   S    
C29   C30   A    
C9    C10   A    
C4    O4    A    
C28   H5    S    
C2    C4    S    
C14   H13   S    
C3    C13   A    
C23   C34   A    
C27   C35   A    
C32   C33   A    
C17   H19   S    
C19   C24   A    
C21   I1    S    
C22   H16   S    
C31   C32   A    
C13   C14   A    
C1    O2    A    
C26   C32   A    
C12   C23   A    
C30   H6    S    
Cu1   N1    S    
C25   O8    A    
C6    H10   S    
Cu2   N2    S    
Cu1   O7    S    
C4    O3    A    
C28   C29   A    
Cu1   O3    S    
Cu1   Cu2   S    
C33   C34   A    
C7    H14   S    
C21   N1    A    
C22   C24   A    
C12   C31   A    
C15   C20   A    
C31   C35   A    
C33   H2    S    
C24   H18   S    
C10   C11   A    
C17   N2    A    
C1    O1    A    
C13   H12   S    
Cu2   O6    S    
C22   N1    A    
C1    C5    S    
C3    C11   A    
C20   C21   A    
C26   H4    S    
C18   N2    A    
C5    C7    A    
C18   C19   A    
C18   H3    S    
C26   C36   A    
C2    C23   A    
C15   C17   A    
Cu2   O4    S    
C16   O6    A    
C2    C28   A    
C16   O5    A    
C25   O7    A    
C12   C30   A    
C11   H9    S    
C36   H1    S    
C29   H7    S    
C3    C16   S    
C19   C20   A    
Cu1   O5    S    
Cu2   O8    S    
C8    C9    A    
Cu2   O2    S    
C15   H17   S    
