data_mof_unit_23744.cif
_audit_creation_date              2013-03-05T15:53:19-0500
_audit_creation_method            fapswitch 2.2
_symmetry_space_group_name_H-M    P1
_symmetry_Int_Tables_number       1
_space_group_crystal_system       triclinic
_cell_length_a                    27.305247
_cell_length_b                    7.228485
_cell_length_c                    22.671468
_cell_angle_alpha                 90.263939
_cell_angle_beta                  100.971131
_cell_angle_gamma                 89.4339
_cell_volume                      4392.77760591

loop_
_atom_site_label
_atom_site_type_symbol
_atom_site_description
_atom_site_fract_x
_atom_site_fract_y
_atom_site_fract_z
_atom_type_partial_charge
O1    O     O_R   0.207310 0.594030 0.676830 -0.581272
O2    O     O_R   0.792690 0.405970 0.323170 -0.597384
O3    O     O_R   0.292690 0.094030 0.823170 -0.573640
O4    O     O_R   0.707310 0.905970 0.176830 -0.592784
O5    O     O_R   0.197320 0.262370 0.795700 -0.569171
O6    O     O_R   0.802680 0.737630 0.204300 -0.559944
O7    O     O_R   0.302680 0.762370 0.704300 -0.589899
O8    O     O_R   0.697320 0.237630 0.295700 -0.582086
C1    C     C_R   0.184379 0.434659 0.811630 1.011670
C2    C     C_R   0.815713 0.565323 0.188501 1.002942
C3    C     C_R   0.314507 0.931624 0.687082 1.035533
C4    C     C_R   0.686030 0.068239 0.313611 1.044270
O9    O     O_R   0.201410 0.264250 0.675590 -0.561154
O10   O     O_R   0.798590 0.735750 0.324410 -0.545549
O11   O     O_R   0.298590 0.764250 0.824410 -0.596247
O12   O     O_R   0.701410 0.235750 0.175590 -0.584030
O13   O     O_R   0.296810 0.094940 0.702210 -0.553567
O14   O     O_R   0.703190 0.905060 0.297790 -0.564742
O15   O     O_R   0.203190 0.594940 0.797790 -0.549881
O16   O     O_R   0.796810 0.405060 0.202210 -0.552601
C5    C     C_R   0.189596 0.433443 0.653794 1.060456
C6    C     C_R   0.810058 0.566492 0.346470 1.060551
C7    C     C_R   0.310429 0.932370 0.846276 1.033743
C8    C     C_R   0.689644 0.067241 0.153741 1.045751
O17   O     O_3   0.281300 0.427390 0.758870 -0.283451
O18   O     O_3   0.718700 0.572610 0.241130 -0.291487
O19   O     O_3   0.218700 0.927390 0.741130 -0.243420
O20   O     O_3   0.781300 0.072610 0.258870 -0.242829
V1    V     V_3+5 0.244190 0.152150 0.748350 1.333398
V2    V     V_3+5 0.755810 0.847850 0.251650 1.326687
V3    V     V_3+5 0.255810 0.652150 0.751650 1.303237
V4    V     V_3+5 0.744190 0.347850 0.248350 1.295793
C9    C     C_R   0.653885 0.056566 0.096074 -0.265153
C10   C     C_R   0.346450 0.935592 0.903966 -0.263122
C11   C     C_R   0.844845 0.550146 0.404753 -0.262587
C12   C     C_R   0.153366 0.444209 0.596403 -0.275472
C13   C     C_R   0.641585 0.030059 0.987962 -0.140410
C14   C     C_R   0.363377 0.853995 0.009241 -0.136587
C15   C     C_R   0.856794 0.447180 0.507865 -0.132482
C16   C     C_R   0.140145 0.453463 0.487967 -0.134514
C17   C     C_R   0.673214 0.038000 0.043639 -0.184664
C18   C     C_R   0.331211 0.859757 0.953962 -0.161778
C19   C     C_R   0.825694 0.481340 0.453070 -0.096855
C20   C     C_R   0.171854 0.435057 0.543211 -0.107532
C21   C     C_R   0.601419 0.063771 0.092727 0.267973
C22   C     C_R   0.395785 0.003503 0.909305 0.263902
C23   C     C_R   0.896754 0.583840 0.411481 0.253439
C24   C     C_R   0.101671 0.476977 0.594146 0.261323
C25   C     C_R   0.568487 0.031837 0.036129 -0.037773
C26   C     C_R   0.431320 0.974802 0.964237 -0.036290
C27   C     C_R   0.930047 0.524359 0.465282 -0.031163
C28   C     C_R   0.067761 0.478053 0.537109 -0.035547
C29   C     C_R   0.589739 0.026914 0.983659 0.142923
C30   C     C_R   0.412997 0.909848 0.014871 0.139434
C31   C     C_R   0.908503 0.465823 0.514288 0.129200
C32   C     C_R   0.088663 0.474521 0.484332 0.129390
C33   C     C_R   0.515781 0.998194 0.029319 0.075650
C34   C     C_R   0.484395 0.999982 0.970757 0.082143
C35   C     C_R   0.983526 0.512245 0.471900 0.079502
C36   C     C_R   0.014157 0.478856 0.529857 0.074802
C37   C     C_R   0.507861 0.001945 0.920539 -0.085947
C38   C     C_R   0.494702 0.938825 0.077984 -0.080054
C39   C     C_R   0.990190 0.425321 0.576781 -0.078613
C40   C     C_R   0.006861 0.508367 0.421597 -0.074016
C41   C     C_R   0.559325 0.012751 0.926979 -0.203886
C42   C     C_R   0.444654 0.893745 0.070679 -0.188830
C43   C     C_R   0.938641 0.417991 0.568972 -0.177530
C44   C     C_R   0.058128 0.488541 0.427748 -0.179755
H1    H     H_    0.575601 0.006779 0.886948 0.147518
H2    H     H_    0.430760 0.841977 0.109138 0.150834
H3    H     H_    0.922162 0.370157 0.605994 0.152976
H4    H     H_    0.074048 0.482117 0.387455 0.152265
H5    H     H_    0.657854 0.021693 0.947975 0.143067
H6    H     H_    0.349749 0.799756 0.047543 0.142117
H7    H     H_    0.840433 0.398218 0.544824 0.150705
H8    H     H_    0.156030 0.449623 0.447638 0.152540
H9    H     H_    0.487617 0.978231 0.875583 0.175262
H10   H     H_    0.517138 0.909636 0.121443 0.179571
H11   H     H_    0.010525 0.372497 0.618790 0.182415
H12   H     H_    0.985921 0.505109 0.376290 0.180203
C45   C     C_R   0.653102 0.911456 0.398249 0.245525
C46   C     C_R   0.348007 0.083002 0.602236 0.259133
C47   C     C_R   0.868608 0.371421 0.128201 0.258130
C48   C     C_R   0.131559 0.628639 0.872001 0.262722
C49   C     C_R   0.617051 0.896165 0.435301 0.251141
C50   C     C_R   0.384865 0.099428 0.566367 0.245914
C51   C     C_R   0.904190 0.359490 0.090571 0.258573
C52   C     C_R   0.095979 0.640649 0.909631 0.259013
C53   C     C_R   0.577661 0.027443 0.431117 -0.098572
C54   C     C_R   0.425348 0.972297 0.572947 -0.091592
C55   C     C_R   0.929009 0.519155 0.077119 -0.121609
C56   C     C_R   0.071149 0.481030 0.923099 -0.120711
C57   C     C_R   0.576049 0.174394 0.390192 -0.087045
C58   C     C_R   0.427367 0.828833 0.615201 -0.089596
C59   C     C_R   0.918568 0.687624 0.102920 -0.094439
C60   C     C_R   0.081586 0.312519 0.897323 -0.089510
H13   H     H_    0.546569 0.277557 0.385970 0.164436
H14   H     H_    0.457687 0.728825 0.621168 0.158636
H15   H     H_    0.938577 0.809603 0.094946 0.225127
H16   H     H_    0.061570 0.190577 0.905313 0.224505
C61   C     C_R   0.611523 0.188839 0.353129 -0.047446
C62   C     C_R   0.391181 0.814277 0.651342 -0.085252
C63   C     C_R   0.881832 0.701590 0.138144 -0.060319
C64   C     C_R   0.118320 0.298469 0.862101 -0.065813
C65   C     C_R   0.649960 0.056961 0.355721 -0.319247
C66   C     C_R   0.351552 0.942068 0.646196 -0.296776
C67   C     C_R   0.855568 0.545835 0.151026 -0.334843
C68   C     C_R   0.144582 0.454187 0.849186 -0.318816
N1    N     N_R   0.512154 0.165259 0.480948 -0.041351
N2    N     N_R   0.491374 0.834779 0.523975 -0.041832
N3    N     N_R   0.958838 0.396591 0.987921 -0.010473
N4    N     N_R   0.041312 0.603672 0.012284 -0.011077
N5    N     N_R   0.476822 0.152522 0.514091 -0.019419
N6    N     N_R   0.526696 0.847532 0.490812 -0.018197
N7    N     N_R   0.992423 0.385208 0.952359 -0.034637
N8    N     N_R   0.007727 0.615055 0.047847 -0.035493
C69   C     C_R   0.465406 0.987000 0.536213 0.204850
C70   C     C_R   0.538078 0.013004 0.468609 0.208876
C71   C     C_R   0.034338 0.488982 0.963719 0.247610
C72   C     C_R   0.965813 0.511272 0.036489 0.247653
N9    N     N_R   0.407418 0.116905 0.862034 0.218923
O21   O     O_R   0.426727 0.279637 0.874436 -0.383542
O22   O     O_R   0.398052 0.060108 0.806510 -0.455777
N10   N     N_R   0.582558 0.126222 0.144459 0.212923
O23   O     O_R   0.550842 0.263423 0.139651 -0.385760
O24   O     O_R   0.597858 0.050211 0.196711 -0.463482
N11   N     N_R   0.085746 0.534356 0.648287 0.217142
O25   O     O_R   0.061781 0.690305 0.649749 -0.351901
O26   O     O_R   0.096750 0.435206 0.696839 -0.432895
N12   N     N_R   0.914027 0.694573 0.367227 0.223086
O27   O     O_R   0.941022 0.839854 0.383794 -0.366617
O28   O     O_R   0.902237 0.653389 0.310385 -0.428824
H17   H     H_    0.293604 0.808367 0.950435 0.168826
H18   H     H_    0.713193 0.034377 0.045743 0.177396
H19   H     H_    0.211452 0.420742 0.544405 0.209882
H20   H     H_    0.786118 0.455377 0.448428 0.184920
N13   N     N_R   0.695089 0.786955 0.407603 0.247089
O29   O     O_R   0.688832 0.611163 0.396523 -0.378821
O30   O     O_R   0.739910 0.850450 0.425397 -0.411540
N14   N     N_R   0.304399 0.198641 0.589630 0.241498
O31   O     O_R   0.307842 0.376415 0.598463 -0.377771
O32   O     O_R   0.260706 0.123942 0.573589 -0.424956
N15   N     N_R   0.850134 0.202580 0.147688 0.243826
O33   O     O_R   0.868530 0.139839 0.201099 -0.367629
O34   O     O_R   0.812110 0.121488 0.114737 -0.413400
N16   N     N_R   0.150034 0.797444 0.852488 0.242758
O35   O     O_R   0.131583 0.860216 0.799096 -0.349899
O36   O     O_R   0.188125 0.878380 0.885366 -0.414189
N17   N     N_R   0.623146 0.754958 0.480321 0.254927
O37   O     O_R   0.614479 0.582964 0.465078 -0.351790
O38   O     O_R   0.635079 0.799385 0.536872 -0.347836
N18   N     N_R   0.378507 0.236412 0.519975 0.253952
O39   O     O_R   0.384398 0.410771 0.533738 -0.343033
O40   O     O_R   0.368942 0.186281 0.463797 -0.345533
N19   N     N_R   0.917616 0.181888 0.069858 0.231598
O41   O     O_R   0.883919 0.079029 0.037380 -0.370559
O42   O     O_R   0.964120 0.128507 0.079922 -0.400374
N20   N     N_R   0.082565 0.818284 0.930329 0.231526
O43   O     O_R   0.116275 0.921186 0.962765 -0.370076
O44   O     O_R   0.036063 0.871680 0.920280 -0.397805
H21   H     H_    0.608254 0.301944 0.321407 0.179142
H22   H     H_    0.394720 0.704349 0.684226 0.166788
H23   H     H_    0.874515 0.834689 0.156030 0.233058
H24   H     H_    0.125630 0.165334 0.844234 0.229488

loop_
_geom_bond_atom_site_label_1
_geom_bond_atom_site_label_2
_geom_bond_distance
_ccdc_geom_bond_type
O17   V3    1.757138 S    
C47   C51   1.411523 A    
C25   C29   1.419510 A    
O1    C5    1.327977 A    
C51   C55   1.407730 A    
O19   V1    1.768424 S    
C9    C21   1.420545 A    
O3    C7    1.331327 A    
C10   C18   1.395765 A    
N4    N8    1.333089 A    
O15   V3    1.979263 S    
C25   C33   1.440877 A    
C33   C38   1.408449 A    
C5    C12   1.478894 S    
C39   H11   1.076608 S    
C1    C68   1.507904 S    
O7    C3    1.346736 A    
C6    C11   1.477732 S    
N13   O30   1.301031 A    
C35   C40   1.408310 A    
C26   C30   1.420119 A    
C18   H17   1.083897 S    
C40   C44   1.386163 A    
O9    V1    2.000595 S    
C56   C71   1.487402 S    
N14   O32   1.301135 A    
C14   C18   1.387292 A    
N17   O38   1.300890 A    
O16   V4    1.979260 S    
C4    C65   1.499453 S    
O4    C8    1.328182 A    
C59   H15   1.075737 S    
C44   H4    1.084429 S    
C43   H3    1.084430 S    
N19   O42   1.301619 A    
C58   H14   1.082946 S    
N15   O33   1.301273 A    
O1    V3    1.989228 S    
O13   V1    1.971296 S    
O2    V4    1.989232 S    
O3    V1    1.987005 S    
C46   N14   1.432194 S    
C28   C36   1.441406 A    
C1    O15   1.334559 A    
C15   C31   1.399360 A    
C52   C56   1.407710 A    
C37   H9    1.076820 S    
C16   C32   1.399210 A    
O2    C6    1.326717 A    
C22   N9    1.436726 S    
C12   C24   1.420291 A    
C10   C22   1.421543 A    
C52   N20   1.433046 S    
C11   C19   1.396058 A    
N2    N6    1.335051 A    
C16   C20   1.386559 A    
O5    V1    1.979883 S    
N1    N5    1.334978 A    
C13   C29   1.400790 A    
C34   C37   1.408896 A    
O11   C7    1.329781 A    
C11   C23   1.419757 A    
C35   C36   1.436993 A    
O12   C8    1.331870 A    
N20   O44   1.301621 A    
C40   H12   1.076592 S    
C2    C67   1.507891 S    
O10   V2    2.000597 S    
N2    C69   1.359098 A    
C17   H18   1.083639 S    
C59   C63   1.398670 A    
N1    C70   1.359305 A    
C54   C58   1.408578 A    
N16   O36   1.300990 A    
C21   N10   1.437022 S    
C61   C65   1.403901 A    
C39   C43   1.386343 A    
O7    V3    1.993990 S    
C38   C42   1.386804 A    
C23   N12   1.436912 S    
C15   H7    1.084098 S    
C26   C34   1.441772 A    
C54   C69   1.500341 S    
N14   O31   1.301196 A    
C50   C54   1.416719 A    
C57   C61   1.402784 A    
C49   C53   1.417085 A    
O18   V4    1.757137 S    
C23   C27   1.440191 A    
C46   C50   1.415301 A    
C53   C57   1.408461 A    
N8    C72   1.357171 A    
N3    C72   1.360433 A    
O8    V4    1.993990 S    
N12   O28   1.301314 A    
N11   O26   1.301046 A    
O5    C1    1.357210 A    
C50   N18   1.433018 S    
N3    N7    1.333071 A    
C31   C43   1.394186 A    
C14   C30   1.399833 A    
C21   C25   1.438953 A    
O8    C4    1.348652 A    
C7    C10   1.479562 S    
C3    C66   1.499032 S    
O9    C5    1.334578 A    
C53   C70   1.501442 S    
N9    O21   1.301354 A    
N6    C70   1.361285 A    
N5    C69   1.361130 A    
O6    V2    1.979884 S    
N18   O40   1.301035 A    
N7    C71   1.357162 A    
C60   C64   1.398640 A    
N20   O43   1.300825 A    
C36   C39   1.408369 A    
C12   C20   1.394220 A    
C27   C35   1.441095 A    
N11   O25   1.301314 A    
C57   H13   1.082918 S    
C64   C68   1.402076 A    
C29   C41   1.394870 A    
C62   H22   1.083097 S    
N10   O24   1.301100 A    
N16   O35   1.301290 A    
C14   H6    1.084080 S    
N15   O34   1.300923 A    
C45   C65   1.421024 A    
C13   H5    1.084023 S    
C3    O13   1.338982 A    
C38   H10   1.077130 S    
C48   C52   1.411518 A    
C64   H24   1.073980 S    
N4    C71   1.360440 A    
C15   C19   1.386555 A    
C56   C60   1.398717 A    
O11   V3    2.003789 S    
C30   C42   1.394540 A    
C51   N19   1.433072 S    
C48   N16   1.428691 S    
O12   V4    2.003786 S    
N13   O29   1.300770 A    
C22   C26   1.440118 A    
C63   H23   1.073971 S    
C8    C9    1.477581 S    
C9    C17   1.394891 A    
O10   C6    1.335495 A    
C61   H21   1.083129 S    
N12   O27   1.301356 A    
C32   C44   1.394114 A    
N17   O37   1.300715 A    
C24   N11   1.436199 S    
C47   N15   1.428689 S    
C33   C34   1.436729 A    
C42   H2    1.084394 S    
C2    O16   1.334627 A    
C20   H19   1.080350 S    
C41   H1    1.084350 S    
C60   H16   1.075717 S    
O20   V2    1.768423 S    
C48   C68   1.428049 A    
C47   C67   1.428045 A    
C62   C66   1.403916 A    
C27   C31   1.420397 A    
C46   C66   1.418158 A    
C37   C41   1.387834 A    
C13   C17   1.388480 A    
C19   H20   1.083798 S    
C49   N17   1.432794 S    
N9    O22   1.301294 A    
O6    C2    1.357169 A    
O14   V2    1.971301 S    
C55   C59   1.398751 A    
C16   H8    1.084134 S    
C24   C28   1.440053 A    
N18   O39   1.301157 A    
C58   C62   1.403465 A    
C45   C49   1.415847 A    
C4    O14   1.337407 A    
N19   O41   1.300827 A    
C45   N13   1.434591 S    
C55   C72   1.487408 S    
C63   C67   1.402100 A    
O4    V2    1.987000 S    
C28   C32   1.420359 A    
N10   O23   1.301355 A    
