data_mof_unit_68291.cif
_audit_creation_date              2012-12-11T17:48:28-0500
_audit_creation_method            fapswitch 2.2
_symmetry_space_group_name_H-M    P1
_symmetry_Int_Tables_number       1
_space_group_crystal_system       triclinic
_cell_length_a                    8.261629
_cell_length_b                    12.696185
_cell_length_c                    14.912159
_cell_angle_alpha                 95.900668
_cell_angle_beta                  97.707117
_cell_angle_gamma                 99.152251
_cell_volume                      1517.92285623

loop_
_atom_site_label
_atom_site_type_symbol
_atom_type_description
_atom_site_fract_x
_atom_site_fract_y
_atom_site_fract_z
_atom_type_partial_charge
Ba1   Ba    Ba6+2 0.843750 0.550210 0.455600 1.652680
Ba2   Ba    Ba6+2 0.346090 0.449880 0.544410 1.647255
C1    C     C_3   0.519604 0.914586 0.187921 -0.414749
C2    C     C_R   0.891962 0.455607 0.927026 -0.031519
C3    C     C_R   0.035340 0.465251 0.112633 -0.037684
C4    C     C_3   0.072780 0.773855 0.204690 0.363088
C5    C     C_R   0.870406 0.415503 0.080696 -0.040112
C6    C     C_R   0.797180 0.418560 0.991826 -0.117929
C7    C     C_R   0.107641 0.470565 0.205436 0.041159
C8    C     C_R   0.271061 0.523636 0.233071 -0.300846
C9    C     C_R   0.084786 0.538006 0.798852 -0.011508
C10   C     C_R   0.154908 0.550710 0.892499 -0.042170
C11   C     C_R   0.058665 0.507251 0.956473 0.028047
C12   C     C_3   0.582091 0.832270 0.244748 0.346206
C13   C     C_R   0.319050 0.602208 0.924023 -0.066608
C14   C     C_R   0.389201 0.607504 0.014858 -0.099183
C15   C     C_R   0.297297 0.562982 0.078769 -0.037541
C16   C     C_3   0.035396 0.801843 0.108099 -0.370760
C17   C     C_R   0.130007 0.512948 0.049657 0.006321
C18   C     C_R   0.367441 0.567230 0.171009 -0.004958
C19   C     C_R   0.927411 0.475396 0.770605 -0.268883
C20   C     C_R   0.770366 0.180545 0.529927 -0.279240
C21   C     C_R   0.414825 0.809932 0.469203 -0.247041
C22   C     C_R   0.387666 0.986180 0.428889 -0.114454
C23   C     C_3   0.412841 0.290730 0.265185 0.313681
C24   C     C_R   0.319788 0.879077 0.428878 -0.000809
C25   C     C_R   0.577642 0.847749 0.512952 0.057102
C26   C     C_R   0.646557 0.958531 0.516466 -0.061392
C27   C     C_R   0.549293 0.028188 0.473724 -0.062874
C28   C     C_3   0.183906 0.802875 0.753001 0.244224
C29   C     C_R   0.613806 0.139241 0.480661 0.039689
C30   C     C_R   0.869258 0.112788 0.567496 -0.006194
C31   C     C_R   0.808002 0.002865 0.562214 -0.093575
C32   C     C_3   0.255732 0.833679 0.853663 -0.445299
C33   C     C_3   0.927302 0.216727 0.345364 0.276746
C34   C     C_3   0.378781 0.263331 0.161897 -0.402940
C35   C     C_3   0.918422 0.096152 0.324781 -0.338197
C36   C     C_3   0.739341 0.684160 0.729489 0.344899
C37   C     C_3   0.760721 0.709255 0.833064 -0.420845
C38   C     C_3   0.006694 0.091881 0.852519 -0.226278
C39   C     C_3   0.901758 0.989234 0.800999 -0.362840
C40   C     C_3   0.501216 0.078703 0.786820 -0.194755
C41   C     C_3   0.497489 0.086852 0.686220 -0.294690
C42   C     C_3   0.050994 0.175717 0.788482 0.401489
C43   C     C_3   0.151381 0.276438 0.846635 -0.272546
C44   C     C_3   0.597450 0.182415 0.844262 0.379131
C45   C     C_3   0.613810 0.162569 0.944920 -0.405536
C46   C     C_R   0.828310 0.436837 0.832997 -0.021432
H1    H     H_    0.683848 0.873886 0.299216 0.071462
H2    H     H_    0.841848 0.646743 0.708065 -0.054466
H3    H     H_    0.626561 0.624602 0.707071 0.122839
H4    H     H_    0.476643 0.976870 0.232270 0.103332
H5    H     H_    0.885071 0.757070 0.860133 0.088165
H6    H     H_    0.747547 0.634341 0.865202 0.098951
H7    H     H_    0.664404 0.755103 0.852722 0.118977
H8    H     H_    0.478164 0.795930 0.278233 -0.059160
H9    H     H_    0.414832 0.874077 0.134843 0.111981
H10   H     H_    0.297808 0.308542 0.289391 0.018219
H11   H     H_    0.512138 0.362892 0.282414 0.061827
H12   H     H_    0.197002 0.775317 0.894882 0.088783
H13   H     H_    0.278232 0.192182 0.142125 0.125412
H14   H     H_    0.340234 0.332134 0.129637 0.059473
H15   H     H_    0.492990 0.245250 0.136519 0.117088
H16   H     H_    0.619914 0.953647 0.153498 0.127150
H17   H     H_    0.059226 0.736961 0.058365 0.067194
H18   H     H_    0.934254 0.196769 0.754649 -0.068758
H19   H     H_    0.197933 0.336726 0.803229 0.153621
H20   H     H_    0.071395 0.310189 0.891146 0.021819
H21   H     H_    0.255801 0.256973 0.892891 0.135956
H22   H     H_    0.722891 0.200937 0.825879 -0.027321
H23   H     H_    0.392388 0.838095 0.864428 0.128337
H24   H     H_    0.631861 0.078995 0.953170 0.087028
H25   H     H_    0.501101 0.176688 0.974044 0.121245
H26   H     H_    0.987661 0.698534 0.210018 0.095750
H27   H     H_    0.724553 0.214330 0.985623 0.087235
H28   H     H_    0.793311 0.373706 0.123115 0.110289
H29   H     H_    0.666701 0.385935 0.973750 0.109200
H30   H     H_    0.516994 0.646702 0.033706 0.107201
H31   H     H_    0.396302 0.639545 0.879313 0.108482
H32   H     H_    0.326332 0.527464 0.303589 0.074464
H33   H     H_    0.877018 0.461541 0.698734 0.068175
H34   H     H_    0.228442 0.913281 0.878259 0.090190
H35   H     H_    0.310270 0.036005 0.395557 0.101203
H36   H     H_    0.887827 0.954360 0.595081 0.101886
H37   H     H_    0.819510 0.265578 0.534858 0.060521
H38   H     H_    0.202835 0.760277 0.216591 -0.072215
H39   H     H_    0.359994 0.726511 0.468499 0.082898
H40   H     H_    0.903387 0.810767 0.092630 0.149412
H41   H     H_    0.115359 0.878468 0.100658 0.109948
H42   H     H_    0.198371 0.877295 0.719610 0.061003
H43   H     H_    0.051069 0.771686 0.743838 0.012937
H44   H     H_    0.798389 0.007066 0.753663 0.117121
H45   H     H_    0.807259 0.233275 0.362092 0.003606
H46   H     H_    0.977352 0.945871 0.759940 0.137079
H47   H     H_    0.851611 0.937957 0.850163 0.128163
H48   H     H_    0.121471 0.072382 0.889981 0.099346
H49   H     H_    0.937091 0.125086 0.904253 0.074440
H50   H     H_    0.446349 0.158349 0.667961 0.203622
H51   H     H_    0.625360 0.097310 0.671263 0.051343
H52   H     H_    0.422301 0.012845 0.645606 0.120257
H53   H     H_    0.557404 0.007951 0.803263 0.065323
H54   H     H_    0.373166 0.062796 0.802747 0.151957
H55   H     H_    0.026931 0.246952 0.404224 0.074181
H56   H     H_    0.824473 0.064036 0.263965 0.115742
H57   H     H_    0.883367 0.055591 0.383270 0.085694
H58   H     H_    0.041002 0.078716 0.311201 0.139531
O1    O     O_2   0.827880 0.435260 0.277750 -0.472356
O2    O     O_2   0.197463 0.118244 0.556993 -0.490039
O3    O     O_3   0.145975 0.134738 0.725601 -0.598458
O4    O     O_3   0.100280 0.438960 0.391170 -0.495709
O5    O     O_3   0.587780 0.631850 0.546230 -0.488296
O6    O     O_2   0.332590 0.233690 0.456160 -0.465261
O7    O     O_3   0.462135 0.202452 0.303631 -0.648952
O8    O     O_2   0.514075 0.463146 0.820657 -0.482488
O9    O     O_3   0.504862 0.265422 0.830472 -0.590216
O10   O     O_3   0.625580 0.634130 0.333250 -0.476153
O11   O     O_2   0.706930 0.562418 0.175922 -0.495245
O12   O     O_3   0.730884 0.779391 0.690431 -0.646540
O13   O     O_3   0.958197 0.263359 0.267257 -0.640722
O14   O     O_3   0.644610 0.757807 0.187999 -0.598271
O15   O     O_2   0.857130 0.766340 0.543890 -0.462230
O16   O     O_3   0.056550 0.691050 0.379010 -0.481960
O17   O     O_2   0.984305 0.880032 0.433881 -0.479494
O18   O     O_3   0.048432 0.858567 0.267093 -0.604083
O19   O     O_2   0.361830 0.564780 0.722310 -0.451319
O20   O     O_3   0.089430 0.561130 0.608830 -0.465613
O21   O     O_3   0.564130 0.365960 0.666760 -0.472421
O22   O     O_3   0.272348 0.733520 0.709067 -0.597309
O23   O     O_3   0.601940 0.368240 0.453770 -0.478715
O24   O     O_3   0.133170 0.309040 0.621000 -0.476939
P1    P     P_3+3 0.998730 0.403530 0.291970 0.965145
P2    P     P_3+3 0.687380 0.751030 0.571310 0.991776
P3    P     P_3+3 0.103022 0.828896 0.378200 0.968663
P4    P     P_3+3 0.190990 0.596560 0.708040 0.995102
P5    P     P_3+3 0.084499 0.168961 0.616832 0.948293
P6    P     P_3+3 0.585322 0.628002 0.215552 0.948206
P7    P     P_3+3 0.504502 0.234077 0.422412 0.931057
P8    P     P_3+3 0.609871 0.376408 0.786847 0.919078

loop_
_geom_bond_atom_site_label_1
_geom_bond_atom_site_label_2
_ccdc_geom_bond_type
O19   P4    D    
C12   H8    S    
O3    P5    S    
C42   H18   S    
O24   P5    S    
C41   H50   S    
C4    O18   S    
C2    C6    A    
Ba1   P2    S    
Ba2   O23   S    
C5    C6    A    
C39   H47   S    
C1    H16   S    
C16   H17   S    
C3    C7    A    
Ba2   O6    S    
Ba2   P4    S    
C20   C30   A    
C44   O9    S    
O17   P3    D    
C26   C27   A    
C33   C35   S    
C22   H35   S    
C41   H51   S    
O10   P6    S    
C33   H55   S    
C36   C37   S    
C20   H37   S    
C37   H6    S    
C13   C14   A    
C15   C18   A    
Ba1   Ba2   S    
C40   C44   S    
C21   C24   A    
C2    C11   A    
Ba1   O16   S    
C15   C17   A    
C22   C27   A    
C33   O13   S    
C13   H31   S    
C8    C18   A    
C14   C15   A    
C1    H9    S    
C43   H19   S    
O13   P1    S    
C10   C13   A    
Ba1   O10   S    
C21   C25   A    
C29   P7    S    
C34   H15   S    
C7    C8    A    
C28   H42   S    
C19   C46   A    
C37   H7    S    
Ba2   O21   S    
C33   H45   S    
C21   H39   S    
C32   H12   S    
C25   P2    S    
C38   H48   S    
C34   H14   S    
C40   H54   S    
C4    H26   S    
C7    P1    S    
C4    C16   S    
C28   O22   S    
Ba2   O5    S    
C20   C29   A    
C28   C32   S    
C43   H21   S    
C41   H52   S    
C45   H25   S    
O2    P5    D    
O1    P1    D    
C9    P4    S    
C38   H49   S    
C3    C5    A    
C8    H32   S    
C11   C17   A    
C36   H3    S    
C9    C19   A    
C16   H40   S    
O14   P6    S    
C36   O12   S    
O16   P3    S    
C35   H57   S    
O22   P4    S    
Ba1   O4    S    
C30   P5    S    
C39   H46   S    
O9    P8    S    
C9    C10   A    
C43   H20   S    
O4    P1    S    
C18   P6    S    
C1    C12   S    
Ba1   O1    S    
C36   H2    S    
C23   O7    S    
O18   P3    S    
C38   C39   S    
O21   P8    S    
C19   H33   S    
C26   C31   A    
C12   O14   S    
Ba1   O20   S    
C6    H29   S    
O7    P7    S    
C40   C41   S    
O15   P2    D    
C34   H13   S    
C40   H53   S    
Ba2   O20   S    
C42   C43   S    
C2    C46   A    
C44   C45   S    
Ba2   O4    S    
C16   H41   S    
O6    P7    D    
C22   C24   A    
C28   H43   S    
Ba1   P1    S    
C35   H56   S    
C1    H4    S    
C5    H28   S    
C3    C17   A    
C23   H11   S    
Ba1   O23   S    
C4    H38   S    
C46   P8    S    
C30   C31   A    
C45   H27   S    
C35   H58   S    
C27   C29   A    
C24   P3    S    
C42   O3    S    
C37   H5    S    
Ba2   O24   S    
C14   H30   S    
O8    P8    D    
C31   H36   S    
Ba1   O15   S    
C45   H24   S    
C44   H22   S    
O12   P2    S    
C23   C34   S    
C12   H1    S    
Ba2   O19   S    
O5    P2    S    
C38   C42   S    
C39   H44   S    
O23   P7    S    
C10   C11   A    
O20   P4    S    
C23   H10   S    
C25   C26   A    
C32   H34   S    
O11   P6    D    
C32   H23   S    
Ba1   O5    S    
