data_mof_unit_35785.cif
_audit_creation_date              2012-12-11T14:44:00-0500
_audit_creation_method            fapswitch 2.2
_symmetry_space_group_name_H-M    P1
_symmetry_Int_Tables_number       1
_space_group_crystal_system       triclinic
_cell_length_a                    19.03543
_cell_length_b                    10.901981
_cell_length_c                    18.848221
_cell_angle_alpha                 90.144267
_cell_angle_beta                  90.283354
_cell_angle_gamma                 90.331378
_cell_volume                      3911.33032385

loop_
_atom_site_label
_atom_site_type_symbol
_atom_type_description
_atom_site_fract_x
_atom_site_fract_y
_atom_site_fract_z
_atom_type_partial_charge
C1    C     C_R   0.726986 0.369668 0.143164 0.550992
C2    C     C_R   0.288688 0.329913 0.861395 0.546186
C3    C     C_R   0.226986 0.869669 0.143164 0.550991
C4    C     C_R   0.788689 0.829912 0.861395 0.546188
C5    C     C_R   0.513848 0.391521 0.928924 0.401236
C6    C     C_R   0.480951 0.386536 0.073256 0.417361
C7    C     C_R   0.013849 0.891518 0.928925 0.401230
C8    C     C_R   0.980952 0.886540 0.073257 0.417357
C9    C     C_R   0.007810 0.001427 0.966673 0.035286
C10   C     C_R   0.988573 0.999086 0.038642 0.051079
C11   C     C_R   0.507807 0.501429 0.966673 0.035288
C12   C     C_R   0.488570 0.499083 0.038642 0.051088
C13   C     C_R   0.717356 0.815780 0.048267 0.096713
C14   C     C_R   0.300589 0.853431 0.959300 0.091857
C15   C     C_R   0.217357 0.315785 0.048267 0.096705
C16   C     C_R   0.800586 0.353423 0.959299 0.091863
C17   C     C_R   0.727714 0.787390 0.976180 -0.111277
C18   C     C_R   0.295941 0.842874 0.032967 -0.129200
C19   C     C_R   0.227717 0.287389 0.976181 -0.111299
C20   C     C_R   0.795939 0.342865 0.032965 -0.129191
C21   C     C_R   0.778053 0.852201 0.936771 0.002087
C22   C     C_R   0.237753 0.890751 0.068249 0.021092
C23   C     C_R   0.278051 0.352206 0.936770 0.002087
C24   C     C_R   0.737752 0.390748 0.068249 0.021092
C25   C     C_R   0.820862 0.939036 0.970222 -0.154639
C26   C     C_R   0.181777 0.938691 0.029207 -0.157673
C27   C     C_R   0.320853 0.439054 0.970218 -0.154630
C28   C     C_R   0.681776 0.438694 0.029207 -0.157663
C29   C     C_R   0.809458 0.970152 0.039285 -0.133645
C30   C     C_R   0.186598 0.950747 0.957220 -0.168237
C31   C     C_R   0.309448 0.470172 0.039281 -0.133647
C32   C     C_R   0.686598 0.450750 0.957220 -0.168234
C33   C     C_R   0.756771 0.912379 0.078888 0.080263
C34   C     C_R   0.247190 0.915006 0.921822 0.076669
C35   C     C_R   0.256767 0.412389 0.078886 0.080271
C36   C     C_R   0.747189 0.415005 0.921821 0.076669
C37   C     C_R   0.472839 0.064765 0.454715 -0.134681
C38   C     C_R   0.463498 0.060846 0.527022 -0.130224
C39   C     C_R   0.972940 0.564660 0.454739 -0.134749
C40   C     C_R   0.963622 0.560746 0.527047 -0.130265
C41   C     C_R   0.481788 0.162245 0.569633 0.015179
C42   C     C_R   0.502401 0.168915 0.423777 0.048057
C43   C     C_R   0.981800 0.662239 0.569634 0.015190
C44   C     C_R   0.002386 0.668890 0.423772 0.047967
C45   C     C_R   0.530227 0.154791 0.146568 0.590724
C46   C     C_R   0.470375 0.155830 0.852799 0.581106
C47   C     C_R   0.030226 0.654792 0.146570 0.590713
C48   C     C_R   0.970374 0.655829 0.852800 0.581119
C49   C     C_R   0.506549 0.270187 0.538369 -0.138586
C50   C     C_R   0.517249 0.273389 0.465412 -0.075468
C51   C     C_R   0.006439 0.770250 0.538341 -0.138563
C52   C     C_R   0.017125 0.773442 0.465380 -0.075422
C53   C     C_R   0.816516 0.920005 0.455998 0.359824
C54   C     C_R   0.211663 0.028143 0.525273 0.363434
C55   C     C_R   0.316514 0.419962 0.455994 0.359833
C56   C     C_R   0.711650 0.528129 0.525274 0.363405
C57   C     C_R   0.822506 0.908552 0.528488 -0.095091
C58   C     C_R   0.211425 0.014239 0.452829 -0.090070
C59   C     C_R   0.322506 0.408498 0.528483 -0.095079
C60   C     C_R   0.711412 0.514231 0.452830 -0.090096
C61   C     C_R   0.762213 0.896457 0.570806 -0.020804
C62   C     C_R   0.250718 0.921204 0.421792 -0.033216
C63   C     C_R   0.262214 0.396450 0.570806 -0.020772
C64   C     C_R   0.750720 0.421218 0.421789 -0.033214
C65   C     C_R   0.695797 0.889378 0.539621 -0.098407
C66   C     C_R   0.296369 0.849849 0.463251 -0.163105
C67   C     C_R   0.195796 0.389421 0.539627 -0.098383
C68   C     C_R   0.796390 0.349890 0.463244 -0.163066
C69   C     C_R   0.689509 0.901992 0.466685 -0.173786
C70   C     C_R   0.298217 0.865653 0.536279 -0.207232
C71   C     C_R   0.189505 0.402040 0.466692 -0.173776
C72   C     C_R   0.798239 0.365693 0.536271 -0.207163
C73   C     C_R   0.749785 0.921785 0.424983 0.025819
C74   C     C_R   0.254188 0.952061 0.567893 0.029303
C75   C     C_R   0.249781 0.421790 0.424984 0.025816
C76   C     C_R   0.754192 0.452069 0.567890 0.029303
C77   C     C_R   0.742105 0.966911 0.148168 0.578314
C78   C     C_R   0.258296 0.967309 0.851755 0.565385
C79   C     C_R   0.242104 0.466913 0.148167 0.578330
C80   C     C_R   0.758296 0.467309 0.851754 0.565385
C81   C     C_R   0.730431 0.379618 0.351742 0.543371
C82   C     C_R   0.272393 0.373908 0.645607 0.554564
C83   C     C_R   0.230430 0.879615 0.351743 0.543386
C84   C     C_R   0.772393 0.873909 0.645607 0.554564
C85   C     C_R   0.532006 0.157690 0.353311 0.558089
C86   C     C_R   0.464327 0.156548 0.644416 0.550210
C87   C     C_R   0.032001 0.657687 0.353309 0.558091
C88   C     C_R   0.964325 0.656547 0.644414 0.550245
C89   C     C_R   0.741312 0.970258 0.354102 0.582975
C90   C     C_R   0.260135 0.978569 0.643038 0.566143
C91   C     C_R   0.241311 0.470259 0.354103 0.582988
C92   C     C_R   0.760136 0.478573 0.643036 0.566144
C93   C     C_R   0.503938 0.165054 0.924010 0.012081
C94   C     C_R   0.499015 0.161139 0.073945 0.010732
C95   C     C_R   0.003933 0.665050 0.924013 0.012078
C96   C     C_R   0.999009 0.661142 0.073949 0.010735
C97   C     C_R   0.503061 0.277232 0.962583 -0.090560
C98   C     C_R   0.494564 0.274931 0.037460 -0.092747
C99   C     C_R   0.003059 0.777230 0.962585 -0.090563
C100  C     C_R   0.994562 0.774933 0.037462 -0.092740
C101  C     C_R   0.498787 0.051277 0.033669 0.118820
C102  C     C_R   0.512456 0.054683 0.961605 0.116646
C103  C     C_R   0.998773 0.551278 0.033674 0.118825
C104  C     C_R   0.012445 0.554679 0.961611 0.116647
Cr1   Cr    Cr6+3 0.772000 0.169640 0.250110 1.082533
Cr2   Cr    Cr6+3 0.228000 0.169640 0.749890 1.095111
Cr3   Cr    Cr6+3 0.272000 0.669640 0.250110 1.082533
Cr4   Cr    Cr6+3 0.728000 0.669640 0.749890 1.095116
Cr5   Cr    Cr6+3 0.614960 0.323350 0.249260 1.110258
Cr6   Cr    Cr6+3 0.385040 0.323350 0.750740 1.091685
Cr7   Cr    Cr6+3 0.114960 0.823350 0.249260 1.110243
Cr8   Cr    Cr6+3 0.885040 0.823350 0.750740 1.091669
Cr9   Cr    Cr6+3 0.616670 0.010620 0.250840 1.029734
Cr10  Cr    Cr6+3 0.383330 0.010620 0.749160 1.041817
Cr11  Cr    Cr6+3 0.116670 0.510620 0.250840 1.029738
Cr12  Cr    Cr6+3 0.883330 0.510620 0.749160 1.041806
H1    H     H_    0.874795 0.908116 0.551396 0.162224
H2    H     H_    0.176585 0.071061 0.421482 0.161930
H3    H     H_    0.374796 0.408018 0.551388 0.162272
H4    H     H_    0.676560 0.571036 0.421487 0.161947
H5    H     H_    0.649208 0.876215 0.571566 0.173481
H6    H     H_    0.327221 0.777000 0.440023 0.171076
H7    H     H_    0.149206 0.376292 0.571575 0.173419
H8    H     H_    0.827254 0.277062 0.440012 0.171063
H9    H     H_    0.637250 0.903508 0.443688 0.157958
H10   H     H_    0.332870 0.809243 0.568015 0.145662
H11   H     H_    0.137245 0.403593 0.443699 0.157930
H12   H     H_    0.832906 0.309303 0.568004 0.145646
H13   H     H_    0.696652 0.716082 0.950911 0.127731
H14   H     H_    0.337293 0.797055 0.062114 0.128478
H15   H     H_    0.196659 0.216077 0.950913 0.127727
H16   H     H_    0.837289 0.297040 0.062112 0.128490
H17   H     H_    0.861832 0.987946 0.942376 0.146307
H18   H     H_    0.133584 0.967261 0.054153 0.145690
H19   H     H_    0.361818 0.487972 0.942370 0.146312
H20   H     H_    0.633584 0.467266 0.054154 0.145691
H21   H     H_    0.840625 0.044869 0.060423 0.166032
H22   H     H_    0.144563 0.996474 0.929842 0.199957
H23   H     H_    0.340609 0.544897 0.060416 0.166012
H24   H     H_    0.644564 0.496480 0.929843 0.199952
H25   H     H_    0.460452 0.983725 0.423551 0.141300
H26   H     H_    0.441331 0.977893 0.549388 0.149656
H27   H     H_    0.960636 0.483552 0.423599 0.141343
H28   H     H_    0.941553 0.477720 0.549430 0.149661
H29   H     H_    0.518696 0.350379 0.570286 0.149213
H30   H     H_    0.540628 0.354787 0.442377 0.166543
H31   H     H_    0.018492 0.850513 0.570236 0.149191
H32   H     H_    0.040406 0.854910 0.442322 0.166678
O1    O     O_R   0.787540 0.042690 0.170470 -0.493530
O2    O     O_R   0.212460 0.042690 0.829530 -0.517915
O3    O     O_R   0.287540 0.542690 0.170470 -0.493526
O4    O     O_R   0.712460 0.542690 0.829530 -0.517913
O5    O     O_R   0.556540 0.252920 0.323970 -0.479758
O6    O     O_R   0.443460 0.252920 0.676030 -0.493674
O7    O     O_R   0.056540 0.752920 0.323970 -0.479780
O8    O     O_R   0.943460 0.752920 0.676030 -0.493687
O9    O     O_R   0.545870 0.051100 0.330840 -0.529737
O10   O     O_R   0.454130 0.051100 0.669160 -0.521259
O11   O     O_R   0.045870 0.551100 0.330840 -0.529756
O12   O     O_R   0.954130 0.551100 0.669160 -0.521286
O13   O     O_R   0.681340 0.959300 0.325510 -0.523822
O14   O     O_R   0.318660 0.959300 0.674490 -0.523108
O15   O     O_R   0.181340 0.459300 0.325510 -0.523817
O16   O     O_R   0.818660 0.459300 0.674490 -0.523096
O17   O     O_3   0.667880 0.167870 0.250070 -0.283857
O18   O     O_3   0.332120 0.167870 0.749930 -0.306150
O19   O     O_3   0.167880 0.667870 0.250070 -0.283850
O20   O     O_3   0.832120 0.667870 0.749930 -0.306147
O21   O     O_R   0.765660 0.292160 0.175050 -0.515026
O22   O     O_R   0.234340 0.292160 0.824950 -0.500845
O23   O     O_R   0.265660 0.792160 0.175050 -0.515027
O24   O     O_R   0.734340 0.792160 0.824950 -0.500842
O25   O     O_R   0.670190 0.408980 0.168550 -0.504841
O26   O     O_R   0.329810 0.408980 0.831450 -0.502266
O27   O     O_R   0.170190 0.908980 0.168550 -0.504843
O28   O     O_R   0.829810 0.908980 0.831450 -0.502265
O29   O     O_R   0.556580 0.251450 0.175160 -0.433039
O30   O     O_R   0.443420 0.251450 0.824840 -0.445727
O31   O     O_R   0.056580 0.751450 0.175160 -0.433042
O32   O     O_R   0.943420 0.751450 0.824840 -0.445723
O33   O     O_R   0.545920 0.049510 0.170320 -0.541140
O34   O     O_R   0.454080 0.049510 0.829680 -0.527042
O35   O     O_R   0.045920 0.549510 0.170320 -0.541137
O36   O     O_R   0.954080 0.549510 0.829680 -0.527046
O37   O     O_R   0.681390 0.957840 0.176710 -0.502761
O38   O     O_R   0.318610 0.957840 0.823290 -0.466201
O39   O     O_R   0.181390 0.457840 0.176710 -0.502745
O40   O     O_R   0.818610 0.457840 0.823290 -0.466206
O41   O     O_R   0.787500 0.044280 0.330990 -0.437174
O42   O     O_R   0.212500 0.044280 0.669010 -0.427229
O43   O     O_R   0.287500 0.544280 0.330990 -0.437196
O44   O     O_R   0.712500 0.544280 0.669010 -0.427230
O45   O     O_R   0.765610 0.293630 0.323860 -0.504052
O46   O     O_R   0.234390 0.293630 0.676140 -0.462650
O47   O     O_R   0.265610 0.793630 0.323860 -0.504063
O48   O     O_R   0.734390 0.793630 0.676140 -0.462667
O49   O     O_R   0.670140 0.410570 0.329080 -0.518383
O50   O     O_R   0.329860 0.410570 0.670920 -0.524055
O51   O     O_R   0.170140 0.910570 0.329080 -0.518362
O52   O     O_R   0.829860 0.910570 0.670920 -0.524068
N1    N     N_3   0.481977 0.934123 0.064047 -0.630477
H33   H     H_    0.527629 0.893615 0.083076 0.255873
H34   H     H_    0.445839 0.944835 0.105181 0.245090
N2    N     N_3   0.541389 0.946762 0.929014 -0.613578
H35   H     H_    0.503605 0.898984 0.899798 0.269002
H36   H     H_    0.582367 0.972703 0.895381 0.244775
N3    N     N_3   0.981953 0.434130 0.064055 -0.630465
H37   H     H_    0.027603 0.393605 0.083079 0.255867
H38   H     H_    0.945822 0.444857 0.105195 0.245092
N4    N     N_3   0.041376 0.446753 0.929024 -0.613593
H39   H     H_    0.003596 0.398986 0.899795 0.269006
H40   H     H_    0.082367 0.472688 0.895403 0.244769
F1    F     F_    0.875637 0.934319 0.416727 -0.618354
F2    F     F_    0.169963 0.116602 0.552979 -0.628818
F3    F     F_    0.375633 0.434234 0.416716 -0.618278
F4    F     F_    0.669931 0.616560 0.552984 -0.628817
F5    F     F_    0.538090 0.397205 0.861292 -0.597743
F6    F     F_    0.455972 0.386945 0.140670 -0.583456
F7    F     F_    0.038092 0.897199 0.861293 -0.597744
F8    F     F_    0.955974 0.886953 0.140671 -0.583467
N5    N     N_3   0.022452 0.114378 0.930854 -0.568790
H41   H     H_    0.977199 0.167334 0.931059 0.229664
H42   H     H_    0.061607 0.161848 0.958815 0.218559
N6    N     N_3   0.978438 0.109977 0.078164 -0.562050
H43   H     H_    0.026022 0.157731 0.080063 0.222114
H44   H     H_    0.942107 0.164464 0.051309 0.212670
N7    N     N_3   0.522451 0.614381 0.930857 -0.568788
H45   H     H_    0.477198 0.667338 0.931063 0.229662
H46   H     H_    0.561605 0.661849 0.958818 0.218556
N8    N     N_3   0.478434 0.609973 0.078165 -0.562040
H47   H     H_    0.526016 0.657731 0.080064 0.222115
H48   H     H_    0.442101 0.664458 0.051312 0.212666
N9    N     N_3   0.669461 0.745101 0.090339 -0.598921
H49   H     H_    0.627235 0.800902 0.103068 0.236920
H50   H     H_    0.648226 0.674215 0.059821 0.206145
N10   N     N_3   0.359446 0.802770 0.923321 -0.597574
H51   H     H_    0.404379 0.836212 0.948768 0.242533
H52   H     H_    0.357620 0.707952 0.930814 0.214239
N11   N     N_3   0.169459 0.245114 0.090339 -0.598907
H53   H     H_    0.127225 0.300917 0.103049 0.236910
H54   H     H_    0.148237 0.174209 0.059825 0.206154
N12   N     N_3   0.859442 0.302755 0.923318 -0.597580
H55   H     H_    0.904376 0.336191 0.948765 0.242535
H56   H     H_    0.857612 0.207936 0.930809 0.214249

loop_
_geom_bond_atom_site_label_1
_geom_bond_atom_site_label_2
_ccdc_geom_bond_type
C58   C62   A    
Cr8   O8    S    
C62   C83   S    
C101  C102  A    
Cr2   O2    S    
C48   C95   S    
C55   C59   A    
Cr6   O50   S    
C31   H23   S    
C77   O37   A    
N1    H33   S    
C14   C18   A    
Cr5   O49   S    
N11   H53   S    
C42   C50   A    
C104  N4    S    
N10   H52   S    
C72   C76   A    
C91   O15   A    
N6    H43   S    
C68   H8    S    
Cr3   O47   S    
C97   C98   A    
C37   H25   S    
C45   O33   A    
Cr2   O46   S    
Cr3   O23   S    
C84   O52   A    
C15   C19   A    
C41   C86   S    
Cr12  O40   S    
C1    O25   A    
N5    H41   S    
C57   C61   A    
C7    C99   A    
C46   O30   A    
C72   H12   S    
C8    F8    S    
C43   C88   S    
Cr2   O18   S    
C5    F5    S    
C103  N3    S    
Cr12  O12   S    
C11   N7    S    
C81   O49   A    
Cr5   O25   S    
Cr10  O14   S    
C94   C98   A    
C95   C99   A    
Cr8   O20   S    
C15   N11   S    
C58   H2    S    
N10   H51   S    
C25   C29   A    
C7    C9    A    
C4    O28   A    
C41   C49   A    
C37   C42   A    
C15   C35   A    
C102  N2    S    
Cr10  O10   S    
C47   O31   A    
C26   H18   S    
Cr7   O51   S    
C54   C74   A    
C76   C92   S    
C40   C43   A    
Cr9   O33   S    
C20   C24   A    
C29   C33   A    
C87   O11   A    
C89   O41   A    
C70   C74   A    
N12   H56   S    
C47   C96   S    
C66   H6    S    
C69   C73   A    
C78   O38   A    
C65   H5    S    
Cr4   O48   S    
C44   C87   S    
C25   H17   S    
C9    C10   A    
C30   H22   S    
C68   C72   A    
Cr8   O32   S    
C55   C75   A    
C70   H10   S    
C32   C36   A    
Cr4   O20   S    
Cr7   O7    S    
C69   H9    S    
C52   H32   S    
Cr4   O4    S    
Cr7   O31   S    
N1    H34   S    
C71   H11   S    
C85   O9    A    
C20   H16   S    
C45   C94   S    
C6    C12   A    
C89   O13   A    
Cr10  O18   S    
C63   C67   A    
Cr1   O1    S    
Cr6   O26   S    
C19   H15   S    
Cr3   O19   S    
C75   C91   S    
C71   C75   A    
C82   O46   A    
C30   C34   A    
C63   C82   S    
C27   C31   A    
N3    H37   S    
C6    C98   A    
C11   C12   A    
Cr1   O41   S    
C28   C32   A    
C94   C101  A    
C38   C41   A    
C47   O35   A    
C36   C80   S    
C77   O1    A    
C39   C40   A    
C48   O36   A    
C83   O47   A    
C62   C66   A    
C19   C23   A    
C1    O21   A    
Cr10  O34   S    
C17   H13   S    
C17   C21   A    
C56   C60   A    
Cr11  O11   S    
C93   C102  A    
Cr1   O45   S    
C13   C33   A    
C37   C38   A    
Cr6   O6    S    
C61   C65   A    
Cr11  O39   S    
C93   C97   A    
N7    H45   S    
C46   O34   A    
C51   H31   S    
C16   C20   A    
Cr9   O37   S    
C2    C23   S    
C54   C58   A    
N12   H55   S    
C80   O40   A    
C49   H29   S    
N11   H54   S    
C42   C85   S    
C85   O5    A    
N8    H48   S    
N9    H50   S    
Cr5   O17   S    
C2    O22   A    
C53   C57   A    
C26   C30   A    
C3    O27   A    
Cr8   O28   S    
C39   H27   S    
N4    H39   S    
C23   C27   A    
C56   C76   A    
C3    O23   A    
C5    C11   A    
C22   C26   A    
Cr1   O21   S    
Cr7   O27   S    
C59   C63   A    
C18   H14   S    
Cr7   O19   S    
Cr2   O42   S    
C57   H1    S    
C83   O51   A    
C88   O8    A    
C64   C68   A    
C14   N10   S    
C48   O32   A    
Cr5   O5    S    
C95   C104  A    
C78   O2    A    
C13   N9    S    
C90   O42   A    
C79   O3    A    
C54   F2    S    
C21   C25   A    
C59   H3    S    
C4    O24   A    
N7    H46   S    
C28   H20   S    
C67   H7    S    
Cr12  O16   S    
C53   C73   A    
C24   C28   A    
Cr9   O17   S    
N2    H36   S    
C10   N6    S    
C61   C84   S    
N6    H44   S    
C44   C52   A    
C14   C34   A    
Cr11  O35   S    
C12   N8    S    
C86   O10   A    
C82   O50   A    
C39   C44   A    
C18   C22   A    
C45   O29   A    
C73   C89   S    
C29   H21   S    
C50   H30   S    
Cr12  O36   S    
C90   O14   A    
N4    H40   S    
C53   F1    S    
Cr10  O38   S    
C79   O39   A    
C13   C17   A    
C33   C77   S    
C60   C64   A    
C27   H19   S    
C6    F6    S    
C40   H28   S    
C92   O16   A    
C86   O6    A    
Cr3   O3    S    
C51   C52   A    
N5    H42   S    
C101  N1    S    
C99   C100  A    
C16   C36   A    
C55   F3    S    
C4    C21   S    
Cr6   O18   S    
C43   C51   A    
C8    C100  A    
C66   C70   A    
C46   C93   S    
C91   O43   A    
C84   O48   A    
Cr4   O24   S    
C65   C69   A    
C74   C90   S    
C96   C100  A    
C31   C35   A    
C35   C79   S    
Cr1   O17   S    
C38   H26   S    
C67   C71   A    
C88   O12   A    
C32   H24   S    
Cr11  O15   S    
N8    H47   S    
C64   C81   S    
C56   F4    S    
C2    O26   A    
C60   H4    S    
Cr9   O13   S    
C9    N5    S    
C5    C97   A    
N2    H35   S    
C1    C24   S    
C8    C10   A    
C49   C50   A    
Cr2   O22   S    
C96   C103  A    
Cr3   O43   S    
C103  C104  A    
N3    H38   S    
Cr5   O29   S    
Cr6   O30   S    
Cr12  O20   S    
C3    C22   S    
C81   O45   A    
C7    F7    S    
Cr9   O9    S    
C80   O4    A    
Cr11  O19   S    
Cr8   O52   S    
C34   C78   S    
C87   O7    A    
C92   O44   A    
N9    H49   S    
Cr4   O44   S    
C16   N12   S    
