data_mof_unit_20387.cif
_audit_creation_date              2012-12-11T14:30:51-0500
_audit_creation_method            fapswitch 2.2
_symmetry_space_group_name_H-M    P1
_symmetry_Int_Tables_number       1
_space_group_crystal_system       triclinic
_cell_length_a                    17.403707
_cell_length_b                    24.431001
_cell_length_c                    14.955126
_cell_angle_alpha                 89.900914
_cell_angle_beta                  125.430953
_cell_angle_gamma                 90.198073
_cell_volume                      5181.18802407

loop_
_atom_site_label
_atom_site_type_symbol
_atom_type_description
_atom_site_fract_x
_atom_site_fract_y
_atom_site_fract_z
_atom_type_partial_charge
C1    C     C_R   0.850727 0.652432 0.907409 -0.163551
C2    C     C_R   0.036652 0.501088 0.712644 0.129852
C3    C     C_R   0.449314 0.000933 0.271639 0.130747
C4    C     C_R   0.447267 0.001703 0.639630 0.129740
C5    C     C_R   0.675499 0.500296 0.716624 0.107466
C6    C     C_R   0.307771 0.500750 0.358480 0.135025
C7    C     C_R   0.175624 0.000317 0.717707 0.108333
C8    C     C_R   0.808966 0.000817 0.357108 0.134845
C9    C     C_3   0.511009 0.448644 0.589350 -0.400086
C10   C     C_3   0.476861 0.463883 0.470508 -0.366157
C11   C     C_3   0.009988 0.949389 0.591995 -0.397340
C12   C     C_R   0.190753 0.626157 0.094477 -0.147907
C13   C     C_3   0.977421 0.961929 0.472599 -0.368700
C14   C     C_3   0.433059 0.485475 0.576266 0.771407
C15   C     C_3   0.542156 0.513808 0.514782 0.768345
C16   C     C_3   0.932672 0.988155 0.575254 0.770753
C17   C     C_3   0.044137 0.011219 0.514505 0.769011
C18   C     C_3   0.400413 0.500523 0.460308 -0.025744
C19   C     C_3   0.575855 0.499467 0.631620 -0.031930
C20   C     C_3   0.901598 0.000542 0.458876 -0.026560
C21   C     C_3   0.076248 0.999511 0.631783 -0.032502
C22   C     C_3   0.465892 0.550717 0.503064 -0.323711
C23   C     C_R   0.351306 0.152517 0.906791 -0.164677
C24   C     C_3   0.499290 0.535858 0.621325 -0.312910
C25   C     C_3   0.968454 0.050017 0.499189 -0.322068
C26   C     C_3   0.000243 0.037866 0.617832 -0.314715
C27   C     C_2   0.251234 0.686128 0.915165 -0.109510
C28   C     C_2   0.886473 0.768607 0.087006 -0.115207
C29   C     C_2   0.751174 0.185474 0.914012 -0.109669
C30   C     C_2   0.384715 0.267342 0.086165 -0.117198
C31   C     C_2   0.263352 0.666111 0.005800 -0.182495
C32   C     C_2   0.864398 0.741915 0.996853 -0.194109
C33   C     C_2   0.765483 0.162785 0.003931 -0.183424
C34   C     C_R   0.691684 0.124567 0.093236 -0.145481
C35   C     C_2   0.363181 0.241799 0.995423 -0.197244
C36   C     C_2   0.803141 0.234567 0.921519 -0.116854
C37   C     C_2   0.321894 0.309158 0.079003 -0.113409
C38   C     C_2   0.305402 0.733605 0.921101 -0.115874
C39   C     C_2   0.832432 0.816233 0.080330 -0.110768
C40   C     C_R   0.935623 0.353957 0.094039 -0.144639
C41   C     C_R   0.079876 0.361058 0.908254 -0.147151
C42   C     C_R   0.439265 0.852407 0.093317 -0.161488
C43   C     C_R   0.589853 0.872394 0.905127 -0.143010
C44   C     C_2   0.837339 0.269611 0.005737 -0.195869
C45   C     C_R   0.868203 0.324323 0.002883 0.134020
C46   C     C_2   0.228941 0.306365 0.999952 -0.198434
C47   C     C_2   0.343588 0.768172 0.006352 -0.192239
C48   C     C_2   0.744074 0.824347 0.991734 -0.183037
C49   C     C_2   0.097843 0.461555 0.525141 -0.080485
C50   C     C_2   0.100755 0.457923 0.624110 -0.121544
C51   C     C_2   0.387271 0.957452 0.364252 -0.103896
C52   C     C_2   0.384484 0.960797 0.460284 -0.136104
C53   C     C_2   0.047647 0.501296 0.451732 -0.193032
C54   C     C_2   0.087662 0.503001 0.663732 -0.174612
C55   C     C_2   0.397178 0.002337 0.320270 -0.186857
C56   C     C_R   0.164343 0.342870 0.000129 0.137695
C57   C     C_2   0.422596 0.003688 0.528959 -0.181869
C58   C     C_R   0.027447 0.546962 0.290381 -0.137568
C59   C     C_R   0.006364 0.546432 0.737747 -0.148667
C60   C     C_R   0.479548 0.046773 0.245801 -0.139712
C61   C     C_R   0.458181 0.046966 0.700668 -0.155772
C62   C     C_R   0.731842 0.454837 0.746201 -0.159296
C63   C     C_R   0.258307 0.455319 0.298837 -0.149053
C64   C     C_R   0.231956 0.954848 0.747126 -0.161186
C65   C     C_R   0.758847 0.955368 0.298308 -0.152525
C66   C     C_R   0.030188 0.455131 0.291793 -0.116634
C67   C     C_R   0.372879 0.822770 0.002388 0.137926
C68   C     C_R   0.008366 0.455483 0.740791 -0.119582
C69   C     C_R   0.482731 0.955313 0.249272 -0.108785
C70   C     C_R   0.455636 0.955956 0.698904 -0.137769
C71   C     C_R   0.730385 0.546694 0.745717 -0.100392
C72   C     C_R   0.258986 0.546544 0.301031 -0.132846
C73   C     C_R   0.230465 0.046686 0.746130 -0.097265
C74   C     C_R   0.759726 0.046614 0.300215 -0.132681
C75   C     C_R   0.845175 0.353083 0.910852 -0.122240
C76   C     C_R   0.176418 0.365830 0.091459 -0.120791
C77   C     C_R   0.347273 0.852346 0.910510 -0.120721
C78   C     C_R   0.677115 0.856935 0.996102 0.130363
C79   C     C_R   0.683576 0.872990 0.089135 -0.114497
C80   C     C_R   0.941632 0.651762 0.090150 -0.115738
C81   C     C_R   0.095176 0.631946 0.911906 -0.110451
C82   C     C_R   0.443386 0.152496 0.089253 -0.128428
C83   C     C_R   0.598783 0.124851 0.909551 -0.112714
C84   C     C_R   0.881570 0.683647 0.999111 0.138617
C85   C     C_R   0.185869 0.642073 0.003080 0.132087
C86   C     C_R   0.383391 0.184152 0.998005 0.143758
C87   C     C_R   0.688652 0.137071 0.001112 0.131570
C88   C     C_3   0.350101 0.418791 0.596713 -0.262344
C89   C     C_R   0.030167 0.500850 0.345646 0.136994
C90   C     C_3   0.658298 0.490970 0.489186 -0.252630
C91   C     C_3   0.843354 0.924970 0.592935 -0.255448
C92   C     C_3   0.160662 0.984414 0.491945 -0.247827
H1    H     H_    0.814410 0.667448 0.824201 0.095408
H2    H     H_    0.509959 0.564551 0.685118 0.157058
H3    H     H_    0.951780 0.090957 0.459876 0.148373
H4    H     H_    0.011006 0.068180 0.679371 0.156042
H5    H     H_    0.190530 0.674747 0.834162 0.113620
H6    H     H_    0.933433 0.750597 0.167741 0.113905
H7    H     H_    0.690422 0.174514 0.832761 0.116822
H8    H     H_    0.437462 0.251460 0.167327 0.116144
H9    H     H_    0.328154 0.673292 0.086338 0.131450
H10   H     H_    0.822372 0.761048 0.916623 0.128060
H11   H     H_    0.829696 0.171126 0.084435 0.132875
H12   H     H_    0.250777 0.629923 0.178852 0.100002
H13   H     H_    0.314341 0.260102 0.915135 0.131391
H14   H     H_    0.800624 0.245708 0.849610 0.118723
H15   H     H_    0.350342 0.338130 0.146218 0.122007
H16   H     H_    0.300350 0.744647 0.847551 0.116971
H17   H     H_    0.859042 0.838315 0.155963 0.115825
H18   H     H_    0.838310 0.259873 0.077147 0.131506
H19   H     H_    0.198691 0.276708 0.933740 0.132797
H20   H     H_    0.347408 0.758921 0.079696 0.129048
H21   H     H_    0.714713 0.802123 0.915821 0.126915
H22   H     H_    0.126310 0.427691 0.506216 0.108835
H23   H     H_    0.314070 0.167060 0.823168 0.094113
H24   H     H_    0.095445 0.417342 0.649613 0.113758
H25   H     H_    0.397796 0.916996 0.343451 0.115006
H26   H     H_    0.365360 0.923906 0.483655 0.114184
H27   H     H_    0.015604 0.534593 0.467011 0.126556
H28   H     H_    0.101091 0.543309 0.644581 0.130629
H29   H     H_    0.380050 0.042504 0.334862 0.129840
H30   H     H_    0.444375 0.040483 0.508663 0.132015
H31   H     H_    0.977190 0.339929 0.178209 0.091996
H32   H     H_    0.045117 0.345487 0.825926 0.085979
H33   H     H_    0.483197 0.837371 0.176730 0.093006
H34   H     H_    0.751219 0.129743 0.177510 0.098858
H35   H     H_    0.561508 0.864870 0.820126 0.097059
H36   H     H_    0.037963 0.588991 0.317925 0.093859
H37   H     H_    0.005420 0.587427 0.711173 0.087808
H38   H     H_    0.465452 0.088953 0.253001 0.098626
H39   H     H_    0.442011 0.088748 0.671447 0.094848
H40   H     H_    0.709691 0.412606 0.727319 0.103330
H41   H     H_    0.273227 0.413184 0.325636 0.084783
H42   H     H_    0.209790 0.912597 0.728534 0.103190
H43   H     H_    0.773774 0.913289 0.325525 0.085767
H44   H     H_    0.041569 0.413000 0.318749 0.082260
H45   H     H_    0.531753 0.407211 0.626486 0.147159
H46   H     H_    0.012848 0.413693 0.722468 0.085929
H47   H     H_    0.472505 0.913001 0.260359 0.087477
H48   H     H_    0.438909 0.914188 0.669855 0.082884
H49   H     H_    0.707294 0.588801 0.727858 0.107995
H50   H     H_    0.273252 0.588271 0.330611 0.090643
H51   H     H_    0.207334 0.088778 0.728002 0.104680
H52   H     H_    0.774363 0.088348 0.329788 0.092131
H53   H     H_    0.803428 0.338705 0.826995 0.080180
H54   H     H_    0.231543 0.357550 0.176581 0.087962
H55   H     H_    0.305677 0.838202 0.826479 0.078777
H56   H     H_    0.466116 0.435061 0.406795 0.150496
H57   H     H_    0.740892 0.865618 0.173645 0.087370
H58   H     H_    0.988802 0.665621 0.174048 0.081777
H59   H     H_    0.064678 0.646727 0.830287 0.079976
H60   H     H_    0.491143 0.166688 0.172821 0.083859
H61   H     H_    0.572232 0.129913 0.824643 0.089677
H62   H     H_    0.413132 0.394968 0.659834 0.140494
H63   H     H_    0.321512 0.403288 0.513037 0.121379
H64   H     H_    0.295469 0.412256 0.611788 0.171440
H65   H     H_    0.637671 0.448570 0.494593 0.114463
H66   H     H_    0.730986 0.499155 0.562179 0.167941
H67   H     H_    0.029169 0.908617 0.632122 0.147989
H68   H     H_    0.659749 0.492691 0.416065 0.170198
H69   H     H_    0.903122 0.899854 0.658083 0.139969
H70   H     H_    0.817165 0.908877 0.510367 0.121951
H71   H     H_    0.785065 0.921090 0.602694 0.176959
H72   H     H_    0.139517 0.942871 0.501066 0.110238
H73   H     H_    0.233649 0.993024 0.563873 0.172062
H74   H     H_    0.161660 0.983570 0.418470 0.174153
H75   H     H_    0.966520 0.931518 0.411082 0.149747
H76   H     H_    0.447926 0.592351 0.466607 0.148211
N1    N     N_R   0.892320 0.603520 0.941090 -0.040699
N2    N     N_R   0.973240 0.529450 0.794410 -0.041149
N3    N     N_R   0.526760 0.029450 0.205590 -0.041621
N4    N     N_R   0.473240 0.029450 0.794410 -0.038979
N5    N     N_R   0.819350 0.473090 0.793940 -0.048817
N6    N     N_R   0.180650 0.473090 0.206060 -0.039550
N7    N     N_R   0.319350 0.973090 0.793940 -0.047950
N8    N     N_R   0.680650 0.973090 0.206060 -0.039659
N9    N     N_R   0.027860 0.473090 0.206590 -0.042949
N10   N     N_R   0.972140 0.473090 0.793410 -0.046573
N11   N     N_R   0.527860 0.973090 0.206590 -0.043833
N12   N     N_R   0.107680 0.603520 0.058910 -0.042620
N13   N     N_R   0.472140 0.973090 0.793410 -0.040142
N14   N     N_R   0.818250 0.529450 0.792940 -0.049194
N15   N     N_R   0.181750 0.529450 0.207060 -0.040900
N16   N     N_R   0.318250 0.029450 0.792940 -0.047185
N17   N     N_R   0.681750 0.029450 0.207060 -0.041183
N18   N     N_R   0.896320 0.399020 0.944720 -0.040475
N19   N     N_R   0.103680 0.399020 0.055280 -0.041949
N20   N     N_R   0.396320 0.899020 0.944720 -0.039832
N21   N     N_R   0.603680 0.899020 0.055280 -0.043036
N22   N     N_R   0.949790 0.603520 0.054810 -0.043741
N23   N     N_R   0.392320 0.103520 0.941090 -0.039705
N24   N     N_R   0.050210 0.603520 0.945190 -0.042352
N25   N     N_R   0.449790 0.103520 0.054810 -0.043292
N26   N     N_R   0.550210 0.103520 0.945190 -0.044585
N27   N     N_R   0.607680 0.103520 0.058910 -0.042677
N28   N     N_R   0.953790 0.399020 0.058440 -0.040156
N29   N     N_R   0.046210 0.399020 0.941560 -0.038415
N30   N     N_R   0.453790 0.899020 0.058440 -0.039066
N31   N     N_R   0.546210 0.899020 0.941560 -0.040992
N32   N     N_R   0.026760 0.529450 0.205590 -0.042249
Ni1   Ni    Ni4+2 0.934100 0.565890 0.869590 0.214168
Ni2   Ni    Ni4+2 0.065900 0.565890 0.130410 0.212976
Ni3   Ni    Ni4+2 0.434100 0.065890 0.869590 0.213459
Ni4   Ni    Ni4+2 0.565900 0.065890 0.130410 0.214969
Ni5   Ni    Ni4+2 0.068420 0.436630 0.132700 0.210096
Ni6   Ni    Ni4+2 0.931580 0.436630 0.867300 0.202067
Ni7   Ni    Ni4+2 0.568420 0.936630 0.132700 0.212094
Ni8   Ni    Ni4+2 0.431580 0.936630 0.867300 0.201337
O1    O     O_3   0.371189 0.475052 0.606589 -0.613897
O2    O     O_3   0.597524 0.532440 0.479527 -0.626436
O3    O     O_3   0.869682 0.980453 0.604823 -0.617412
O4    O     O_3   0.100895 0.027284 0.479498 -0.626246

loop_
_geom_bond_atom_site_label_1
_geom_bond_atom_site_label_2
_ccdc_geom_bond_type
C34   N27   A    
C69   H47   S    
C44   H18   S    
C83   C87   A    
C21   C26   S    
C55   H29   S    
C38   H16   S    
C70   H48   S    
C31   C85   S    
C54   H28   S    
N14   Ni1   S    
C11   C13   S    
C14   C18   S    
C68   H46   S    
C67   C77   A    
C80   C84   A    
C17   O4    S    
C91   H71   S    
C23   N23   A    
C11   H67   S    
N8    N17   A    
C7    C73   A    
C75   H53   S    
C1    C84   A    
C80   H58   S    
C29   C36   S    
C58   N32   A    
C50   C54   D    
N25   Ni4   S    
C12   C85   A    
N2    N10   A    
C56   C76   A    
C31   H9    S    
C41   H32   S    
N18   N28   A    
C3    C69   A    
C10   C18   S    
C37   H15   S    
C15   O2    S    
C2    C68   A    
C10   C15   S    
C73   H51   S    
C35   C86   S    
C13   H75   S    
C20   C25   S    
C27   C38   S    
C48   C78   S    
C47   H20   S    
C30   H8    S    
N28   Ni5   S    
C14   C24   S    
N3    Ni4   S    
C82   N25   A    
C42   H33   S    
C57   H30   S    
C15   C19   S    
C3    C55   S    
C92   H73   S    
C9    C19   S    
C15   C22   S    
C59   H37   S    
C79   H57   S    
C29   C33   D    
N2    Ni1   S    
C23   C86   A    
C4    C57   S    
N6    Ni5   S    
N24   Ni1   S    
C91   H70   S    
N5    Ni6   S    
C59   N2    A    
C9    C10   S    
C77   H55   S    
C51   C55   D    
C13   C20   S    
C34   H34   S    
C71   H49   S    
C74   N17   A    
C22   H76   S    
C3    C60   A    
N21   N31   A    
C83   N26   A    
N26   N27   A    
C76   H54   S    
C8    C65   A    
N16   Ni3   S    
C33   H11   S    
C46   H19   S    
C42   N30   A    
N15   Ni2   S    
C71   N14   A    
N3    N11   A    
N29   Ni6   S    
N23   Ni3   S    
N7    Ni8   S    
C32   C84   S    
N4    N13   A    
C4    C70   A    
C66   C89   A    
C64   H42   S    
C16   C26   S    
C40   C45   A    
C6    C18   S    
C66   N9    A    
N11   Ni7   S    
N18   Ni6   S    
C36   H14   S    
C51   C52   S    
C88   H63   S    
C62   H40   S    
C28   C32   D    
N13   Ni8   S    
N12   N24   A    
C91   O3    S    
C2    C54   S    
C43   H35   S    
C90   O2    S    
C73   N16   A    
C29   H7    S    
C2    C59   A    
N22   Ni2   S    
N27   Ni4   S    
C28   C39   S    
C25   C26   S    
C81   H59   S    
C62   N5    A    
C27   C31   D    
C4    C61   A    
C11   C21   S    
C17   C21   S    
C30   C37   S    
C43   C78   A    
C88   H62   S    
C6    C63   A    
C90   H66   S    
N4    Ni3   S    
C72   H50   S    
C9    C14   S    
N23   N25   A    
C81   N24   A    
N1    N22   A    
C24   H2    S    
N9    N32   A    
C11   C16   S    
C70   N13   A    
N20   N30   A    
C16   C20   S    
N19   Ni5   S    
C8    C74   A    
C47   C67   S    
C61   N4    A    
C8    C20   S    
C64   N7    A    
C38   C47   D    
C65   H43   S    
C76   N19   A    
C66   H44   S    
C30   C35   D    
C41   N29   A    
C12   N12   A    
N19   N29   A    
N5    N14   A    
C25   H3    S    
C88   O1    S    
C65   N8    A    
C53   C89   S    
C42   C67   A    
C22   C24   S    
C36   C44   D    
C75   N18   A    
C60   H38   S    
C52   C57   D    
C88   H64   S    
N1    Ni1   S    
C44   C45   S    
N8    Ni7   S    
C63   N6    A    
C40   N28   A    
C28   H6    S    
C40   H31   S    
C74   H52   S    
C63   H41   S    
N20   Ni8   S    
C14   O1    S    
N30   Ni7   S    
C18   C22   S    
C60   N3    A    
C80   N22   A    
C16   O3    S    
C41   C56   A    
C72   N15   A    
C39   C48   D    
C46   C56   S    
N6    N15   A    
C53   H27   S    
C12   H12   S    
C5    C19   S    
C32   H10   S    
N12   Ni2   S    
C13   C17   S    
C45   C75   A    
C17   C25   S    
C26   H4    S    
C90   H65   S    
C19   C24   S    
C33   C87   S    
C9    H45   S    
C5    C71   A    
C82   C86   A    
C58   H36   S    
C69   N11   A    
C7    C21   S    
C78   C79   A    
C92   H72   S    
C83   H61   S    
N21   Ni7   S    
C49   C53   D    
N26   Ni3   S    
N10   Ni6   S    
C1    N1    A    
N31   Ni8   S    
C51   H25   S    
N9    Ni5   S    
C5    C62   A    
C49   H22   S    
C50   H24   S    
C34   C87   A    
N7    N16   A    
C90   H68   S    
C58   C89   A    
C82   H60   S    
C7    C64   A    
C92   O4    S    
C27   H5    S    
C61   H39   S    
C23   H23   S    
C92   H74   S    
C39   H17   S    
C68   N10   A    
C1    H1    S    
C49   C50   S    
C79   N21   A    
N17   Ni4   S    
C77   N20   A    
C91   H69   S    
C43   N31   A    
C35   H13   S    
C37   C46   D    
N32   Ni2   S    
C81   C85   A    
C10   H56   S    
C48   H21   S    
C6    C72   A    
C52   H26   S    
