data_mof_unit_59236.cif
_audit_creation_date              2012-12-10T16:32:42-0500
_audit_creation_method            fapswitch 2.2
_symmetry_space_group_name_H-M    P1
_symmetry_Int_Tables_number       1
_space_group_crystal_system       triclinic
_cell_length_a                    17.021556
_cell_length_b                    16.867323
_cell_length_c                    16.817562
_cell_angle_alpha                 64.563667
_cell_angle_beta                  64.975698
_cell_angle_gamma                 65.483766
_cell_volume                      3787.14416954

loop_
_atom_site_label
_atom_site_type_symbol
_atom_type_description
_atom_site_fract_x
_atom_site_fract_y
_atom_site_fract_z
_atom_type_partial_charge
C1    C     C_R   0.591877 0.018104 0.601345 0.101391
C2    C     C_R   0.822297 0.564816 0.032289 0.926602
C3    C     C_R   0.244181 0.738550 0.859756 -0.060904
C4    C     C_R   0.321762 0.677647 0.820964 -0.091627
C5    C     C_R   0.377183 0.609551 0.874523 -0.145543
C6    C     C_R   0.306082 0.012731 0.594310 0.104128
C7    C     C_R   0.255661 0.958249 0.672727 -0.182362
C8    C     C_R   0.161290 0.989721 0.701336 -0.131773
C9    C     C_R   0.116800 0.075410 0.651874 -0.054881
C10   C     C_R   0.166623 0.130468 0.574548 -0.106346
C11   C     C_R   0.260884 0.099333 0.545792 -0.148950
C12   C     C_R   0.647193 0.038158 0.396292 0.118449
C13   C     C_R   0.433305 0.969318 0.179109 0.941223
C14   C     C_R   0.728144 0.998015 0.337985 -0.213138
C15   C     C_R   0.784526 0.050870 0.268236 -0.166731
C16   C     C_R   0.762010 0.143532 0.257695 -0.048652
C17   C     C_R   0.681428 0.184552 0.314634 -0.094460
C18   C     C_R   0.623797 0.132430 0.383086 -0.147890
C19   C     C_R   0.583927 0.291664 0.045701 0.112618
C20   C     C_R   0.661242 0.253029 0.982678 -0.175134
C21   C     C_R   0.704243 0.159119 0.007761 -0.122004
C22   C     C_R   0.672015 0.103435 0.096720 -0.073024
C23   C     C_R   0.596110 0.141599 0.160219 -0.105558
C24   C     C_R   0.560997 0.041329 0.820715 0.937498
C25   C     C_R   0.551394 0.235060 0.134524 -0.149429
C26   C     C_R   0.394236 0.559330 0.163071 0.131034
C27   C     C_R   0.345495 0.643596 0.180762 -0.174129
C28   C     C_R   0.299158 0.645959 0.271377 -0.110401
C29   C     C_R   0.299984 0.564705 0.344868 -0.118154
C30   C     C_R   0.347865 0.480613 0.327951 -0.150453
C31   C     C_R   0.394812 0.477838 0.237637 -0.136244
C32   C     C_R   0.999645 0.604928 0.294420 0.111980
C33   C     C_R   0.932815 0.685348 0.265897 -0.169501
C34   C     C_R   0.941371 0.729895 0.172164 -0.165444
C35   C     C_R   0.567922 0.823571 0.022826 0.969505
C36   C     C_R   0.016341 0.694648 0.106406 -0.069159
C37   C     C_R   0.083106 0.615346 0.134411 -0.080352
C38   C     C_R   0.075172 0.570462 0.227941 -0.171523
C39   C     C_R   0.083604 0.394483 0.619258 0.133431
C40   C     C_R   0.054245 0.339674 0.710232 -0.211517
C41   C     C_R   0.116872 0.272801 0.756168 -0.110227
C42   C     C_R   0.209449 0.260407 0.711680 -0.029849
C43   C     C_R   0.239521 0.314596 0.621137 -0.133003
C44   C     C_R   0.176959 0.381333 0.575137 -0.145216
C45   C     C_R   0.438712 0.179172 0.959754 0.917673
C46   C     C_R   0.030458 0.566978 0.820689 0.981053
C47   C     C_R   0.951339 0.442612 0.177913 0.907042
C48   C     C_R   0.822161 0.027328 0.567495 0.979361
C49   C     C_R   0.177851 0.954607 0.441294 0.910225
C50   C     C_R   0.544787 0.992237 0.559857 -0.014056
C51   C     C_R   0.403007 0.948527 0.423018 0.113545
C52   C     C_R   0.450584 0.959351 0.475095 -0.005522
C53   C     C_R   0.024692 0.556522 0.526449 -0.013419
C54   C     C_R   0.973460 0.473632 0.443164 -0.012900
C55   C     C_R   0.542917 0.524261 0.051449 0.000649
C56   C     C_R   0.454498 0.437319 0.013480 -0.015883
C57   C     C_R   0.584400 0.984277 0.468934 -0.049842
C58   C     C_R   0.405918 0.979511 0.560352 -0.044588
C59   C     C_R   0.019009 0.464946 0.567604 -0.053767
C60   C     C_R   0.993057 0.559751 0.393686 -0.043969
C61   C     C_R   0.448409 0.553360 0.068722 -0.065631
C62   C     C_R   0.046557 0.598321 0.577254 0.103600
C63   C     C_R   0.543333 0.392315 0.023846 -0.053729
C64   C     C_R   0.545034 0.946431 0.439615 -0.059304
C65   C     C_R   0.457999 0.976804 0.609343 -0.049150
C66   C     C_R   0.412767 0.526182 0.025307 -0.044434
C67   C     C_R   0.591397 0.443387 0.024688 -0.047791
C68   C     C_R   0.974820 0.434422 0.536039 -0.052420
C69   C     C_R   0.006850 0.605263 0.439262 -0.040193
C70   C     C_R   0.544370 0.053456 0.676271 -0.233474
C71   C     C_R   0.435539 0.969307 0.326199 -0.254882
C72   C     C_R   0.079297 0.675761 0.533217 -0.246992
C73   C     C_R   0.952583 0.422328 0.401474 0.118872
C74   C     C_R   0.973411 0.325554 0.433475 -0.243772
C75   C     C_R   0.673653 0.544266 0.072466 -0.237709
C76   C     C_R   0.313379 0.428038 0.999142 -0.249945
C77   C     C_R   0.322680 0.922588 0.466184 -0.224676
C78   C     C_R   0.686138 0.004569 0.569924 -0.240966
C79   C     C_R   0.454557 0.322265 0.950332 -0.242411
C80   C     C_R   0.551281 0.676148 0.040814 -0.248968
C81   C     C_R   0.918650 0.465974 0.325290 -0.246767
C82   C     C_R   0.027262 0.565452 0.674436 -0.236865
C83   C     C_R   0.590925 0.065001 0.720948 -0.138660
C84   C     C_R   0.588571 0.580968 0.057606 0.117257
C85   C     C_R   0.397687 0.950098 0.278348 -0.151320
C86   C     C_R   0.079416 0.722499 0.585145 -0.139020
C87   C     C_R   0.950578 0.278194 0.397686 -0.150767
C88   C     C_R   0.728932 0.601764 0.039572 -0.142121
C89   C     C_R   0.273254 0.395700 0.964368 -0.149564
C90   C     C_R   0.276048 0.924479 0.413294 -0.139946
C91   C     C_R   0.726500 0.037821 0.603430 -0.140152
C92   C     C_R   0.408149 0.278130 0.938120 -0.137377
C93   C     C_R   0.605016 0.730214 0.024040 -0.147451
C94   C     C_R   0.918797 0.414393 0.278238 -0.152680
C95   C     C_R   0.407558 0.396103 0.986684 0.099259
C96   C     C_R   0.049770 0.602039 0.721357 -0.147782
C97   C     C_R   0.675709 0.075738 0.674451 0.338606
C98   C     C_R   0.321832 0.918282 0.325673 0.343773
C99   C     C_R   0.084982 0.676152 0.673072 0.346118
C100  C     C_R   0.914450 0.326053 0.324392 0.348004
C101  C     C_R   0.696537 0.694798 0.003643 0.303356
C102  C     C_R   0.323849 0.324331 0.927073 0.334666
C103  C     C_R   0.429342 0.939046 0.711712 0.111257
C104  C     C_R   0.352592 0.987614 0.767021 -0.177001
C105  C     C_R   0.324535 0.947883 0.862628 -0.110420
C106  C     C_R   0.969906 0.179205 0.432831 0.961644
C107  C     C_R   0.372198 0.859250 0.903704 -0.048395
C108  C     C_R   0.448419 0.810469 0.849348 -0.117400
C109  C     C_R   0.477272 0.850336 0.753854 -0.144296
C110  C     C_R   0.602059 0.866007 0.405639 0.135046
C111  C     C_R   0.644797 0.875004 0.311428 -0.171924
C112  C     C_R   0.692168 0.797414 0.281891 -0.131438
C113  C     C_R   0.698666 0.710043 0.346237 -0.114152
C114  C     C_R   0.658168 0.700196 0.440262 -0.142945
C115  C     C_R   0.609684 0.777730 0.469876 -0.142092
C116  C     C_R   0.001491 0.703801 0.393205 0.112033
C117  C     C_R   0.047412 0.822115 0.557703 0.918596
C118  C     C_R   0.068944 0.731910 0.311710 -0.178001
C119  C     C_R   0.063176 0.824760 0.267772 -0.140867
C120  C     C_R   0.989740 0.890202 0.304301 -0.060541
C121  C     C_R   0.921664 0.862718 0.384097 -0.088780
C122  C     C_R   0.927184 0.769979 0.428604 -0.174630
C123  C     C_R   0.905450 0.387004 0.605074 0.134049
C124  C     C_R   0.928883 0.294053 0.655917 -0.203204
C125  C     C_R   0.861749 0.250984 0.718269 -0.087139
C126  C     C_R   0.770605 0.300512 0.730110 -0.046931
C127  C     C_R   0.746420 0.393271 0.680494 -0.149240
C128  C     C_R   0.177792 0.432462 0.973208 0.967340
C129  C     C_R   0.813454 0.436384 0.618101 -0.140965
C130  C     C_R   0.691383 0.415167 0.989709 0.111603
C131  C     C_R   0.743417 0.339506 0.043341 -0.164975
C132  C     C_R   0.837698 0.314186 0.008963 -0.116504
C133  C     C_R   0.880307 0.364087 0.921233 -0.058859
C134  C     C_R   0.828787 0.438626 0.867071 -0.118172
C135  C     C_R   0.734630 0.464144 0.901091 -0.144732
C136  C     C_R   0.354273 0.600375 0.968368 0.120728
C137  C     C_R   0.277482 0.664096 0.005549 -0.208862
C138  C     C_R   0.223221 0.733172 0.951207 -0.169883
Cl1   Cl    Cl    0.715388 0.136115 0.706886 -0.633193
Cl2   Cl    Cl    0.282775 0.870071 0.279064 -0.656370
Cl3   Cl    Cl    0.135541 0.713271 0.719089 -0.637348
Cl4   Cl    Cl    0.864363 0.279065 0.287861 -0.646690
Cl5   Cl    Cl    0.768370 0.766003 0.922788 -0.585274
Cl6   Cl    Cl    0.285396 0.292438 0.865042 -0.629247
H1    H     H_    0.472287 0.067917 0.704280 0.175117
H2    H     H_    0.482952 0.708725 0.037389 0.159146
H3    H     H_    0.897391 0.538893 0.296717 0.171718
H4    H     H_    0.994391 0.512036 0.714175 0.160642
H5    H     H_    0.314643 0.055934 0.735845 0.130265
H6    H     H_    0.265446 0.985558 0.904776 0.111842
H7    H     H_    0.349733 0.828340 0.977573 0.108498
H8    H     H_    0.484716 0.741375 0.880882 0.131576
H9    H     H_    0.535848 0.811350 0.712430 0.123429
H10   H     H_    0.641415 0.941680 0.260884 0.119635
H11   H     H_    0.723770 0.805067 0.209051 0.140134
H12   H     H_    0.489874 0.000420 0.287960 0.156569
H13   H     H_    0.735541 0.650039 0.323260 0.132822
H14   H     H_    0.663623 0.632490 0.490160 0.131509
H15   H     H_    0.577290 0.769089 0.542921 0.121503
H16   H     H_    0.125494 0.681681 0.282416 0.146211
H17   H     H_    0.115671 0.845854 0.205632 0.141558
H18   H     H_    0.985775 0.962154 0.271109 0.109787
H19   H     H_    0.865644 0.913172 0.412922 0.152465
H20   H     H_    0.874161 0.749721 0.490656 0.131561
H21   H     H_    0.999007 0.255255 0.646776 0.126886
H22   H     H_    0.880311 0.179155 0.757074 0.129217
H23   H     H_    0.100345 0.705046 0.459849 0.184819
H24   H     H_    0.718632 0.267005 0.777625 0.160922
H25   H     H_    0.675748 0.431652 0.690038 0.132651
H26   H     H_    0.793757 0.508286 0.579625 0.121136
H27   H     H_    0.710533 0.301459 0.111777 0.137877
H28   H     H_    0.878005 0.256623 0.050368 0.115696
H29   H     H_    0.953276 0.345564 0.896199 0.121444
H30   H     H_    0.861321 0.477123 0.798910 0.118264
H31   H     H_    0.695365 0.522165 0.858704 0.127917
H32   H     H_    0.256869 0.658541 0.077356 0.139235
H33   H     H_    0.163753 0.781406 0.980673 0.126497
H34   H     H_    0.007733 0.286727 0.485465 0.156877
H35   H     H_    0.200124 0.789738 0.819065 0.147736
H36   H     H_    0.338800 0.683013 0.749463 0.153602
H37   H     H_    0.437530 0.563432 0.842934 0.130695
H38   H     H_    0.289788 0.890853 0.709792 0.145404
H39   H     H_    0.122410 0.947464 0.761096 0.121060
H40   H     H_    0.043737 0.098275 0.673149 0.107040
H41   H     H_    0.132669 0.196960 0.536158 0.113058
H42   H     H_    0.298691 0.142249 0.485271 0.124705
H43   H     H_    0.749433 0.925430 0.347892 0.146002
H44   H     H_    0.846403 0.019640 0.223108 0.124334
H45   H     H_    0.699654 0.471835 0.103364 0.177311
H46   H     H_    0.807231 0.183383 0.205597 0.146049
H47   H     H_    0.663539 0.256760 0.305594 0.151390
H48   H     H_    0.560969 0.165518 0.425972 0.129764
H49   H     H_    0.688412 0.296324 0.914840 0.133314
H50   H     H_    0.763575 0.129908 0.958859 0.121321
H51   H     H_    0.706900 0.031116 0.116445 0.098119
H52   H     H_    0.572873 0.099646 0.230098 0.118917
H53   H     H_    0.493604 0.263854 0.184873 0.117304
H54   H     H_    0.342020 0.707366 0.125088 0.122543
H55   H     H_    0.261200 0.710821 0.284671 0.193218
H56   H     H_    0.271106 0.478317 0.034794 0.161625
H57   H     H_    0.263407 0.566979 0.414800 0.142104
H58   H     H_    0.349190 0.417502 0.384745 0.122813
H59   H     H_    0.432389 0.412090 0.225732 0.120559
H60   H     H_    0.874698 0.713434 0.316425 0.150256
H61   H     H_    0.890088 0.791763 0.150489 0.126660
H62   H     H_    0.022602 0.728538 0.033758 0.114205
H63   H     H_    0.140375 0.587754 0.083607 0.151555
H64   H     H_    0.127664 0.509261 0.248550 0.131264
H65   H     H_    0.982981 0.348901 0.745380 0.133100
H66   H     H_    0.093654 0.230652 0.826295 0.119379
H67   H     H_    0.292661 0.904836 0.539460 0.185212
H68   H     H_    0.257841 0.209110 0.747464 0.148105
H69   H     H_    0.311275 0.304838 0.586540 0.132080
H70   H     H_    0.201083 0.422440 0.504772 0.121778
H71   H     H_    0.728397 0.968692 0.519613 0.161777
H72   H     H_    0.526291 0.294807 0.934028 0.179633
O1    O     O_R   0.982940 0.138950 0.510160 -0.638580
O2    O     O_R   0.982940 0.510160 0.138950 -0.636130
O3    O     O_R   0.861050 0.017060 0.489840 -0.647657
O4    O     O_R   0.138950 0.982940 0.510160 -0.629692
O5    O     O_R   0.867700 0.025880 0.612340 -0.562026
O6    O     O_R   0.132300 0.974120 0.387660 -0.583654
O7    O     O_R   0.025880 0.612340 0.867700 -0.548868
O8    O     O_R   0.974120 0.387660 0.132300 -0.580267
O9    O     O_R   0.612340 0.867700 0.025880 -0.582622
O10   O     O_R   0.387660 0.132300 0.974120 -0.582378
O11   O     O_R   0.387660 0.974120 0.132300 -0.563805
O12   O     O_R   0.017060 0.861050 0.489840 -0.632720
O13   O     O_R   0.612340 0.025880 0.867700 -0.560722
O14   O     O_R   0.132300 0.387660 0.974120 -0.569437
O15   O     O_R   0.867700 0.612340 0.025880 -0.591162
O16   O     O_R   0.974120 0.132300 0.387660 -0.568099
O17   O     O_R   0.025880 0.867700 0.612340 -0.576179
O18   O     O_R   0.138950 0.510160 0.982940 -0.643491
O19   O     O_R   0.861050 0.489840 0.017060 -0.627452
O20   O     O_R   0.510160 0.982940 0.138950 -0.646252
O21   O     O_R   0.489840 0.017060 0.861050 -0.632611
O22   O     O_R   0.489840 0.861050 0.017060 -0.640389
O23   O     O_R   0.510160 0.138950 0.982940 -0.629219
O24   O     O_R   0.017060 0.489840 0.861050 -0.645394
Zn1   Zn    Zn3+2 0.004880 0.004880 0.583590 1.017952
Zn2   Zn    Zn3+2 0.995120 0.995120 0.416410 1.004395
Zn3   Zn    Zn3+2 0.004880 0.583590 0.004880 1.009800
Zn4   Zn    Zn3+2 0.995120 0.416410 0.995120 1.002646
Zn5   Zn    Zn3+2 0.583590 0.004880 0.004880 1.012906
Zn6   Zn    Zn3+2 0.416410 0.995120 0.995120 1.012390

loop_
_geom_bond_atom_site_label_1
_geom_bond_atom_site_label_2
_ccdc_geom_bond_type
C56   C95   S    
C47   O8    A    
C117  O12   A    
C126  C127  A    
C81   C94   A    
C89   C102  A    
C5    C136  A    
C11   H42   S    
C41   C42   A    
C6    C58   S    
C118  H16   S    
C19   C20   A    
C49   C90   S    
C80   C84   A    
C53   C69   A    
C119  H17   S    
C51   C77   A    
C114  C115  A    
O6    Zn2   S    
C7    C8    A    
C69   C116  S    
O5    Zn1   S    
C17   H47   S    
C105  H6    S    
C105  C107  A    
C18   H48   S    
C26   C27   A    
C37   C38   A    
C116  C122  A    
C45   O23   A    
C44   H70   S    
C28   C29   A    
C75   H45   S    
C24   C83   S    
C111  C112  A    
C113  C114  A    
C126  H24   S    
C76   C95   A    
C30   C31   A    
C49   O6    A    
C75   C84   A    
C54   C68   A    
C48   O5    A    
C97   Cl1   S    
C15   C16   A    
C121  H19   S    
C96   C99   A    
O24   Zn4   S    
C10   H41   S    
C122  H20   S    
C108  C109  A    
C17   C18   A    
C73   C74   A    
C5    H37   S    
C45   C92   S    
C3    H35   S    
C110  C111  A    
C114  H14   S    
C85   C98   A    
C103  C104  A    
O12   Zn2   S    
C108  H8    S    
C61   C66   A    
C130  C135  A    
C19   C63   S    
C8    C9    A    
C81   H3    S    
C48   C91   S    
C23   H52   S    
C107  C108  A    
C2    C88   S    
C46   O24   A    
C74   C87   A    
C109  H9    S    
C9    C10   A    
C31   H59   S    
C53   C59   A    
C92   C102  A    
C76   C89   A    
C107  H7    S    
C80   H2    S    
C62   C82   A    
C137  C138  A    
C26   C31   A    
C71   C85   A    
C21   C22   A    
C123  C129  A    
O9    Zn5   S    
C1    C78   A    
C37   H63   S    
C27   H54   S    
C102  Cl6   S    
C4    H36   S    
C19   C25   A    
C68   C123  S    
C73   C81   A    
C118  C119  A    
C50   C65   A    
C99   Cl3   S    
O10   Zn6   S    
C35   C93   S    
C34   H61   S    
C128  O18   A    
C30   H58   S    
C47   O2    A    
C63   C67   A    
C77   C90   A    
C28   H55   S    
C29   H57   S    
C49   O4    A    
C51   C52   S    
C35   O22   A    
C129  H26   S    
C123  C124  A    
C82   C96   A    
C137  H32   S    
C24   O13   A    
C76   H56   S    
O7    Zn3   S    
C39   C40   A    
C70   H1    S    
C16   C17   A    
C54   C60   A    
O4    Zn1   S    
C40   H65   S    
C112  H11   S    
C46   O7    A    
C115  H15   S    
C135  H31   S    
C104  H5    S    
C82   H4    S    
O15   Zn3   S    
C43   C44   A    
C127  C129  A    
C79   C95   A    
C29   C30   A    
C70   C83   A    
C132  C133  A    
C59   C68   A    
C54   C73   S    
C53   C62   S    
C2    O19   A    
C58   C65   A    
C64   C110  S    
C74   H34   S    
C117  O17   A    
C39   C59   S    
O22   Zn6   S    
C12   C18   A    
C33   C34   A    
C121  C122  A    
C56   C63   A    
C62   C72   A    
C3    C138  A    
C36   H62   S    
O2    Zn3   S    
C91   C97   A    
C86   C99   A    
C79   C92   A    
C6    C7    A    
C52   C58   A    
C2    O15   A    
C13   O20   A    
C66   C136  S    
C12   C57   S    
C89   C128  S    
C8    H39   S    
O17   Zn1   S    
C40   C41   A    
C12   C14   A    
C32   C38   A    
C52   C64   A    
C133  C134  A    
C21   H50   S    
C72   H23   S    
O16   Zn2   S    
C22   H51   S    
C67   C130  S    
C42   C43   A    
C65   C103  S    
C93   C101  A    
C3    C4    A    
C43   H69   S    
C20   H49   S    
C6    C11   A    
C42   H68   S    
C120  C121  A    
C57   C64   A    
C87   C100  A    
C1    C50   S    
C16   H46   S    
C128  O14   A    
C134  H30   S    
C7    H38   S    
C35   O9    A    
C50   C57   A    
O20   Zn5   S    
C26   C61   S    
C22   C23   A    
C88   C101  A    
C136  C137  A    
C78   H71   S    
C13   O11   A    
C55   C67   A    
C119  C120  A    
C51   C71   A    
C25   H53   S    
C39   C44   A    
C131  H27   S    
C120  H18   S    
C78   C91   A    
C127  H25   S    
C15   H44   S    
O18   Zn3   S    
C33   H60   S    
O8    Zn4   S    
C1    C70   A    
O3    Zn2   S    
O23   Zn5   S    
C41   H66   S    
C103  C109  A    
C32   C33   A    
C125  H22   S    
C55   C84   S    
O13   Zn5   S    
C9    H40   S    
C100  Cl4   S    
O11   Zn6   S    
C14   H43   S    
C101  Cl5   S    
C125  C126  A    
C87   C106  S    
C60   C69   A    
C56   C66   A    
C71   H12   S    
C55   C61   A    
C47   C94   S    
C116  C118  A    
O21   Zn6   S    
C130  C131  A    
C86   C117  S    
C112  C113  A    
C45   O10   A    
C23   C25   A    
C94   C100  A    
C134  C135  A    
C111  H10   S    
O1    Zn1   S    
O19   Zn4   S    
O14   Zn4   S    
C10   C11   A    
C77   H67   S    
C124  H21   S    
C75   C88   A    
C4    C5    A    
C106  O1    A    
C46   C96   S    
C20   C21   A    
C34   C36   A    
C36   C37   A    
C79   H72   S    
C83   C97   A    
C13   C85   S    
C27   C28   A    
C106  O16   A    
C32   C60   S    
C14   C15   A    
C132  H28   S    
C72   C86   A    
C113  H13   S    
C80   C93   A    
C38   H64   S    
C138  H33   S    
C133  H29   S    
C110  C115  A    
C90   C98   A    
C98   Cl2   S    
C24   O21   A    
C131  C132  A    
C104  C105  A    
C124  C125  A    
C48   O3    A    
