data_mof_unit_49774.cif
_audit_creation_date              2012-12-10T20:27:14-0500
_audit_creation_method            fapswitch 2.2
_symmetry_space_group_name_H-M    P1
_symmetry_Int_Tables_number       1
_space_group_crystal_system       triclinic
_cell_length_a                    10.784746
_cell_length_b                    10.72439
_cell_length_c                    10.007508
_cell_angle_alpha                 90.508621
_cell_angle_beta                  105.017326
_cell_angle_gamma                 93.090631
_cell_volume                      1115.99692338

loop_
_atom_site_label
_atom_site_type_symbol
_atom_type_description
_atom_site_fract_x
_atom_site_fract_y
_atom_site_fract_z
_atom_type_partial_charge
C1    C     C_R   0.495487 0.260660 0.498273 0.906545
C2    C     C_R   0.601255 0.552688 0.102308 -0.170302
C3    C     C_R   0.602648 0.555187 0.958654 0.418627
C4    C     C_R   0.259290 0.504523 0.441172 0.930641
C5    C     C_R   0.390960 0.467689 0.899509 0.032152
C6    C     C_3   0.303315 0.351800 0.870726 -0.226709
C7    C     C_3   0.304878 0.353408 0.024132 -0.532705
C8    C     C_R   0.500054 0.739842 0.500430 0.910668
C9    C     C_R   0.740240 0.498027 0.559351 1.017673
C10   C     C_2   0.120478 0.504664 0.408166 -0.289213
C11   C     C_2   0.066096 0.532591 0.510706 -0.052820
C12   C     C_R   0.482834 0.128429 0.496173 -0.061257
C13   C     C_2   0.877511 0.513504 0.597610 -0.302861
C14   C     C_2   0.946241 0.463376 0.519312 -0.075302
C15   C     C_R   0.520405 0.068256 0.621017 0.191412
C16   C     C_2   0.904859 0.339436 0.445429 0.523217
C17   C     C_2   0.709018 0.609833 0.209904 0.665280
C18   C     C_2   0.362803 0.239527 0.829543 0.531774
C19   C     C_2   0.129791 0.629699 0.619483 0.486023
C20   C     C_R   0.432920 0.059812 0.372543 -0.197873
C21   C     C_R   0.436215 0.930711 0.374023 -0.181806
C22   C     C_R   0.490031 0.871926 0.498930 -0.098218
C23   C     C_R   0.524882 0.941071 0.622985 0.170764
C24   C     C_3   0.650818 0.951013 0.731194 -0.422285
C25   C     C_3   0.643036 0.090626 0.730382 -0.506803
C26   C     C_R   0.390944 0.468659 0.039857 0.185881
H1    H     H_    0.719849 0.140365 0.692092 0.239898
H2    H     H_    0.732085 0.922077 0.691124 0.213498
H3    H     H_    0.628920 0.129659 0.828047 0.212003
H4    H     H_    0.956102 0.302556 0.375474 0.059880
H5    H     H_    0.694005 0.688259 0.271890 0.045255
H6    H     H_    0.807986 0.732146 0.767788 0.350455
H7    H     H_    0.458170 0.216466 0.887207 0.039248
H8    H     H_    0.125850 0.618898 0.726013 0.049285
H9    H     H_    0.207348 0.369329 0.801378 0.182372
H10   H     H_    0.210081 0.372620 0.041879 0.219943
H11   H     H_    0.353263 0.275063 0.084718 0.194515
H12   H     H_    0.915021 0.590939 0.668977 0.118427
H13   H     H_    0.067070 0.456332 0.313426 0.154479
H14   H     H_    0.396890 0.105630 0.275268 0.160612
H15   H     H_    0.401295 0.877813 0.277597 0.178278
H16   H     H_    0.643639 0.910712 0.831074 0.259136
N1    N     N_R   0.499160 0.499140 0.142600 -0.162232
N2    N     N_R   0.499160 0.499180 0.856960 -0.174662
O1    O     O_R   0.500020 0.316790 0.614700 -0.621651
O2    O     O_2   0.815098 0.567304 0.232972 -0.541674
O3    O     O_2   0.810258 0.725847 0.029195 -0.313929
O4    O     O_2   0.837781 0.527647 0.922674 -0.291100
O5    O     O_3   0.720872 0.702712 0.773331 -0.574454
O6    O     O_2   0.302973 0.172437 0.732582 -0.569428
O7    O     O_2   0.187480 0.722194 0.589895 -0.546018
O8    O     O_R   0.500000 0.316760 0.385350 -0.608558
O9    O     O_R   0.317820 0.500020 0.571850 -0.610344
O10   O     O_R   0.317800 0.499980 0.342510 -0.612353
O11   O     O_R   0.500000 0.683240 0.614650 -0.536008
O12   O     O_R   0.499980 0.683210 0.385300 -0.665898
O13   O     O_R   0.682200 0.500020 0.657490 -0.532103
O14   O     O_R   0.682180 0.499980 0.428150 -0.617314
O15   O     O_2   0.816356 0.273650 0.467092 -0.595621
S1    S     S_3+6 0.745254 0.627754 0.921952 0.036423
Zn1   Zn    Zn3+2 0.500010 0.500020 0.653140 1.041030
Zn2   Zn    Zn3+2 0.499990 0.499980 0.346860 0.966108

loop_
_geom_bond_atom_site_label_1
_geom_bond_atom_site_label_2
_ccdc_geom_bond_type
O14   Zn2   S    
C8    C22   S    
C23   C24   S    
O13   Zn1   S    
C6    C7    S    
C14   C16   S    
N2    Zn1   S    
C25   H1    S    
C24   H16   S    
C7    H10   S    
C12   C15   A    
C2    N1    A    
C11   C19   S    
C3    S1    S    
C12   C20   A    
N1    Zn2   S    
C15   C23   A    
C2    C3    A    
C7    H11   S    
C17   O2    D    
O5    S1    S    
O8    Zn2   S    
C21   C22   A    
C6    H9    S    
C2    C17   S    
C8    O12   A    
C1    C12   S    
C1    O1    A    
C13   H12   S    
C7    C26   S    
O9    Zn1   S    
C17   H5    S    
O11   Zn1   S    
C8    O11   A    
O1    Zn1   S    
C11   C14   S    
C5    N2    A    
C26   N1    A    
O4    S1    D    
C9    O13   A    
C1    O8    A    
C25   H3    S    
C5    C6    S    
C6    C18   S    
C18   H7    S    
O12   Zn2   S    
C3    N2    A    
C15   C25   S    
C4    O9    A    
H6    O5    S    
C10   C11   D    
C16   H4    S    
C5    C26   A    
C19   O7    D    
O3    S1    D    
C24   C25   S    
C18   O6    D    
C9    O14   A    
C21   H15   S    
C9    C13   S    
C22   C23   A    
O10   Zn2   S    
C4    O10   A    
C20   C21   A    
C13   C14   D    
C20   H14   S    
C16   O15   D    
C24   H2    S    
C4    C10   S    
C10   H13   S    
C19   H8    S    
