data_mof_unit_22079.cif
_audit_creation_date              2012-12-10T16:59:15-0500
_audit_creation_method            fapswitch 2.2
_symmetry_space_group_name_H-M    P1
_symmetry_Int_Tables_number       1
_space_group_crystal_system       triclinic
_cell_length_a                    7.724851
_cell_length_b                    8.613992
_cell_length_c                    27.785683
_cell_angle_alpha                 91.167377
_cell_angle_beta                  86.4327
_cell_angle_gamma                 93.429827
_cell_volume                      1841.76445515

loop_
_atom_site_label
_atom_site_type_symbol
_atom_type_description
_atom_site_fract_x
_atom_site_fract_y
_atom_site_fract_z
_atom_type_partial_charge
C1    C     C_R   0.545027 0.794400 0.498006 0.884544
C2    C     C_R   0.454973 0.205599 0.501994 0.884543
C3    C     C_R   0.496240 0.498091 0.898357 -0.049324
C4    C     C_R   0.503759 0.501910 0.101643 -0.049324
C5    C     C_R   0.531079 0.636917 0.872732 -0.026044
C6    C     C_R   0.468921 0.363083 0.127268 -0.026044
C7    C     C_R   0.567420 0.775969 0.897582 -0.137801
C8    C     C_R   0.432580 0.224032 0.102418 -0.137801
C9    C     C_R   0.460097 0.358229 0.872804 -0.024304
C10   C     C_R   0.539903 0.641772 0.127196 -0.024304
C11   C     C_R   0.508518 0.499098 0.646555 -0.113620
C12   C     C_R   0.491482 0.500903 0.353444 -0.113620
C13   C     C_R   0.538686 0.642209 0.025420 0.048213
C14   C     C_R   0.461314 0.357791 0.974580 0.048213
C15   C     C_R   0.463903 0.358642 0.025563 0.048151
C16   C     C_R   0.536097 0.641359 0.974437 0.048151
C17   C     C_R   0.502168 0.500909 0.050637 0.072715
C18   C     C_R   0.497831 0.499092 0.949363 0.072715
C19   C     C_R   0.577008 0.780027 0.052365 -0.225076
C20   C     C_R   0.422992 0.219974 0.947635 -0.225076
C21   C     C_R   0.576850 0.779498 0.102191 -0.137375
C22   C     C_R   0.423150 0.220503 0.897809 -0.137375
C23   C     C_R   0.503615 0.501433 0.593958 0.909461
C24   C     C_R   0.496384 0.498567 0.406042 0.909462
C25   C     C_R   0.570257 0.778520 0.947356 -0.223833
C26   C     C_R   0.429743 0.221480 0.052644 -0.223834
C27   C     C_2   0.563609 0.956180 0.490322 0.198619
C28   C     C_2   0.436391 0.043820 0.509678 0.198619
C29   C     C_R   0.529196 0.633362 0.822454 0.517222
C30   C     C_R   0.470804 0.366639 0.177545 0.517222
C31   C     C_R   0.462461 0.359318 0.822449 0.515237
C32   C     C_R   0.537539 0.640683 0.177551 0.515238
C33   C     C_R   0.349475 0.456650 0.723610 -0.074019
C34   C     C_R   0.650524 0.543351 0.276390 -0.074019
C35   C     C_R   0.353211 0.458434 0.673681 -0.209354
C36   C     C_R   0.646789 0.541567 0.326319 -0.209353
C37   C     C_R   0.662007 0.537577 0.670604 0.247296
C38   C     C_R   0.337993 0.462422 0.329396 0.247295
C39   C     C_R   0.656777 0.533370 0.720687 -0.116320
C40   C     C_R   0.343223 0.466629 0.279313 -0.116320
C41   C     C_R   0.501152 0.494169 0.747121 0.246125
C42   C     C_R   0.498847 0.505832 0.252879 0.246124
H1    H     H_    0.013199 0.376771 0.465774 0.241740
H2    H     H_    0.986801 0.623229 0.534226 0.241739
H3    H     H_    0.773531 0.562976 0.739385 0.171983
H4    H     H_    0.226469 0.437023 0.260615 0.171983
H5    H     H_    0.595102 0.884110 0.878593 0.193268
H6    H     H_    0.404898 0.115890 0.121407 0.193268
H7    H     H_    0.766031 0.572354 0.343710 0.207366
H8    H     H_    0.233969 0.427648 0.656289 0.207367
H9    H     H_    0.771414 0.573090 0.255896 0.162542
H10   H     H_    0.228585 0.426912 0.744104 0.162541
H11   H     H_    0.606605 0.888210 0.121067 0.194685
H12   H     H_    0.393394 0.111791 0.878933 0.194685
H13   H     H_    0.608409 0.891536 0.036387 0.140212
H14   H     H_    0.391591 0.108464 0.963613 0.140212
H15   H     H_    0.600123 0.891062 0.963176 0.139159
H16   H     H_    0.399877 0.108939 0.036824 0.139159
N1    N     N_R   0.496862 0.495633 0.798499 -0.352953
N2    N     N_R   0.503137 0.504368 0.201501 -0.352954
N3    N     N_2   0.950320 0.457960 0.486880 -0.149331
N4    N     N_2   0.049680 0.542040 0.513120 -0.149331
O1    O     O_R   0.389250 0.738570 0.503220 -0.555413
O2    O     O_R   0.610750 0.261430 0.496780 -0.555413
O3    O     O_R   0.678390 0.711630 0.494810 -0.647437
O4    O     O_R   0.321610 0.288370 0.505190 -0.647437
O5    O     O_R   0.355440 0.513440 0.575450 -0.600961
O6    O     O_R   0.644560 0.486560 0.424550 -0.600961
O7    O     O_R   0.644590 0.486500 0.567040 -0.596152
O8    O     O_R   0.355410 0.513500 0.432960 -0.596152
O9    O     O_2   0.558618 0.766415 0.797604 -0.519167
O10   O     O_2   0.441382 0.233586 0.202396 -0.519168
O11   O     O_2   0.567419 0.774779 0.202491 -0.523514
O12   O     O_2   0.432581 0.225222 0.797509 -0.523513
Zn1   Zn    Zn3+2 0.306940 0.517990 0.505620 1.037268
Zn2   Zn    Zn3+2 0.693060 0.482010 0.494380 1.037268
Br1   Br    Br    0.880307 0.606185 0.638841 -0.499708
Br2   Br    Br    0.119693 0.393813 0.361159 -0.499707
O13   O     O_3   0.697602 0.017245 0.459271 -0.748390
H17   H     H_    0.768310 0.932464 0.445821 0.354289
O14   O     O_3   0.302398 0.982755 0.540729 -0.748390
H18   H     H_    0.231690 0.067535 0.554179 0.354289

loop_
_geom_bond_atom_site_label_1
_geom_bond_atom_site_label_2
_ccdc_geom_bond_type
C21   H11   S    
C8    C26   A    
C14   C18   A    
C34   C42   A    
C20   H14   S    
O14   H18   S    
C24   O8    A    
C39   C41   A    
C33   H10   S    
C40   H4    S    
C34   H9    S    
O3    Zn2   S    
C3    C18   A    
C19   C21   A    
C27   O13   S    
C9    C22   A    
C31   N1    A    
O7    Zn2   S    
C23   O5    A    
C11   C37   A    
C23   O7    A    
C29   N1    A    
C30   N2    A    
C1    O3    A    
C12   C36   A    
C39   H3    S    
C40   C42   A    
N3    Zn2   S    
C22   H12   S    
C25   H15   S    
C1    O1    A    
C2    O2    A    
C5    C29   A    
C10   C21   A    
C13   C19   A    
C14   C20   A    
C41   N1    S    
C4    C6    A    
C42   N2    S    
C32   O11   S    
C5    C7    A    
C24   O6    A    
C15   C26   A    
C6    C8    A    
C38   Br2   S    
H2    N4    S    
C37   Br1   S    
C7    H5    S    
C8    H6    S    
C3    C9    A    
C35   H8    S    
O2    Zn2   S    
C26   H16   S    
C4    C17   A    
C6    C30   A    
C20   C22   A    
N4    Zn1   S    
O5    Zn1   S    
C32   N2    A    
C4    C10   A    
O8    Zn1   S    
H1    N3    S    
C19   H13   S    
C16   C25   A    
C15   C17   A    
C28   O14   S    
C3    C5    A    
C30   O10   S    
C2    O4    A    
O6    Zn2   S    
C12   C24   S    
C7    C25   A    
C13   C17   A    
C33   C41   A    
C11   C35   A    
C37   C39   A    
C38   C40   A    
O1    Zn1   S    
O4    Zn1   S    
C11   C23   S    
C33   C35   A    
C34   C36   A    
C12   C38   A    
N3    N4    D    
C31   O12   S    
C9    C31   A    
O13   H17   S    
C10   C32   A    
C16   C18   A    
C13   C16   A    
C27   C28   D    
C1    C27   S    
C14   C15   A    
C2    C28   S    
C36   H7    S    
C29   O9    S    
