data_mof_unit_30531.cif
_audit_creation_date              2012-12-10T16:49:24-0500
_audit_creation_method            fapswitch 2.2
_symmetry_space_group_name_H-M    P1
_symmetry_Int_Tables_number       1
_space_group_crystal_system       triclinic
_cell_length_a                    7.763075
_cell_length_b                    8.573974
_cell_length_c                    12.778279
_cell_angle_alpha                 90.475891
_cell_angle_beta                  87.115145
_cell_angle_gamma                 93.491252
_cell_volume                      847.861321096

loop_
_atom_site_label
_atom_site_type_symbol
_atom_type_description
_atom_site_fract_x
_atom_site_fract_y
_atom_site_fract_z
_atom_type_partial_charge
Br1   Br    Br    0.397098 0.789849 0.192519 -0.535489
Br2   Br    Br    0.602794 0.210131 0.807494 -0.535500
C1    C     C_R   0.454788 0.205327 0.497223 0.975629
C2    C     C_R   0.639076 0.365599 0.145050 -0.240102
C3    C     C_R   0.520190 0.399792 0.871353 0.194421
C4    C     C_R   0.479815 0.600244 0.128647 0.194424
C5    C     C_R   0.536885 0.432494 0.977552 0.072432
C6    C     C_R   0.463149 0.567561 0.022443 0.072433
C7    C     C_2   0.431013 0.041847 0.495577 -0.325781
C8    C     C_2   0.568987 0.958153 0.504423 -0.325786
C9    C     C_R   0.545212 0.794673 0.502777 0.975610
C10   C     C_R   0.463931 0.499866 0.699552 0.931779
C11   C     C_R   0.536071 0.500144 0.300448 0.931768
C12   C     C_R   0.560102 0.493685 0.189316 -0.098743
C13   C     C_R   0.439905 0.506346 0.810683 -0.098742
C14   C     C_R   0.371688 0.664825 0.960534 -0.125677
C15   C     C_R   0.628362 0.335240 0.039457 -0.125697
C16   C     C_R   0.360961 0.634452 0.854943 -0.240111
H1    H     H_    0.700866 0.284215 0.193367 0.179715
H2    H     H_    0.299171 0.715834 0.806623 0.179716
H3    H     H_    0.311228 0.766691 0.991791 0.206733
H4    H     H_    0.688847 0.233392 0.008194 0.206723
H5    H     H_    0.999182 0.615495 0.421852 0.209619
H6    H     H_    0.000818 0.384505 0.578148 0.209612
H7    H     H_    0.300654 0.990885 0.487054 0.185983
H8    H     H_    0.699346 0.009115 0.512946 0.185981
N1    N     N_2   0.054030 0.541640 0.471970 -0.168786
N2    N     N_2   0.945970 0.458360 0.528030 -0.168792
O1    O     O_R   0.609680 0.261530 0.506880 -0.603377
O2    O     O_R   0.390320 0.738470 0.493120 -0.603376
O3    O     O_R   0.323330 0.288220 0.488910 -0.631958
O4    O     O_R   0.676670 0.711780 0.511090 -0.631963
O5    O     O_R   0.619510 0.488830 0.661140 -0.580089
O6    O     O_R   0.380490 0.511170 0.338860 -0.580074
O7    O     O_R   0.333160 0.515520 0.643180 -0.634327
O8    O     O_R   0.666840 0.484480 0.356820 -0.634331
Zn1   Zn    Zn3+2 0.691200 0.482180 0.511990 0.988057
Zn2   Zn    Zn3+2 0.308800 0.517820 0.488010 0.988066

loop_
_geom_bond_atom_site_label_1
_geom_bond_atom_site_label_2
_ccdc_geom_bond_type
C13   C16   A    
O3    Zn2   S    
C14   H3    S    
C1    C7    S    
H5    N1    S    
C4    C12   A    
C3    C5    A    
C7    C8    D    
C15   H4    S    
C10   C13   S    
C8    H8    S    
C7    H7    S    
C11   O6    A    
C6    C14   A    
O6    Zn2   S    
C11   C12   S    
C10   O7    A    
C1    O3    A    
N2    Zn1   S    
C2    C15   A    
O8    Zn1   S    
C9    O4    A    
C16   H2    S    
C2    C12   A    
C3    C13   A    
Br2   C3    S    
C8    C9    S    
N1    Zn2   S    
Br1   C4    S    
C5    C6    A    
O7    Zn2   S    
O2    Zn2   S    
C11   O8    A    
C14   C16   A    
O1    Zn1   S    
N1    N2    D    
C1    O1    A    
C4    C6    A    
C10   O5    A    
O4    Zn1   S    
C2    H1    S    
O5    Zn1   S    
H6    N2    S    
C9    O2    A    
C5    C15   A    
