data_mof_unit_16443.cif
_audit_creation_date              2012-12-10T17:22:30-0500
_audit_creation_method            fapswitch 2.2
_symmetry_space_group_name_H-M    P1
_symmetry_Int_Tables_number       1
_space_group_crystal_system       triclinic
_cell_length_a                    18.837245
_cell_length_b                    18.803518
_cell_length_c                    18.466234
_cell_angle_alpha                 108.779326
_cell_angle_beta                  109.277542
_cell_angle_gamma                 109.956714
_cell_volume                      5059.45986324

loop_
_atom_site_label
_atom_site_type_symbol
_atom_type_description
_atom_site_fract_x
_atom_site_fract_y
_atom_site_fract_z
_atom_type_partial_charge
C1    C     C_R   0.380428 0.380543 0.500976 0.859097
C2    C     C_R   0.318777 0.323983 0.582200 0.058358
C3    C     C_3   0.737701 0.522475 0.425422 -0.294317
C4    C     C_1   0.981701 0.146396 0.969492 0.139964
C5    C     C_3   0.383867 0.917809 0.375702 -0.278869
C6    C     C_3   0.809690 0.746829 0.802045 -0.253358
C7    C     C_3   0.836104 0.694358 0.352435 -0.333996
C8    C     C_1   0.912831 0.657495 0.851151 0.311743
C9    C     C_3   0.530905 0.295325 0.641421 -0.300508
C10   C     C_R   0.184083 0.187128 0.499478 -0.194313
C11   C     C_R   0.622370 0.502405 0.621269 0.944798
C12   C     C_R   0.179970 0.176919 0.418758 0.071996
C13   C     C_R   0.240210 0.245984 0.419159 0.078454
C14   C     C_R   0.312441 0.315862 0.500895 -0.193575
C15   C     C_R   0.116730 0.099796 0.337337 -0.151774
C16   C     C_R   0.107622 0.096092 0.258014 -0.131428
C17   C     C_R   0.160796 0.168550 0.258055 -0.127559
C18   C     C_R   0.226504 0.242943 0.337565 -0.141378
C19   C     C_3   0.810849 0.504817 0.811336 -0.000573
C20   C     C_R   0.224279 0.480321 0.386045 -0.217816
C21   C     C_R   0.158853 0.488381 0.401344 0.606597
C22   C     C_R   0.104358 0.506845 0.346501 -0.273106
C23   C     C_R   0.622711 0.619686 0.501770 0.950861
C24   C     C_R   0.114273 0.513899 0.277201 -0.225222
C25   C     C_R   0.178215 0.501799 0.259550 0.071187
C26   C     C_R   0.238537 0.492872 0.319208 -0.020359
C27   C     C_R   0.182702 0.497130 0.183342 -0.142029
C28   C     C_R   0.249455 0.489167 0.168838 0.032210
C29   C     C_R   0.318756 0.497540 0.236798 0.083073
C30   C     C_3   0.829045 0.600411 0.841432 -0.271514
C31   C     C_R   0.311496 0.496659 0.310565 -0.155639
C32   C     C_R   0.248190 0.472638 0.087713 -0.298961
C33   C     C_R   0.320792 0.477144 0.078140 0.556647
C34   C     C_R   0.393866 0.495918 0.150674 -0.035174
C35   C     C_R   0.379676 0.499697 0.378702 0.834525
C36   C     C_R   0.392892 0.505726 0.228533 -0.277543
C37   C     C_R   0.578663 0.720402 0.428257 -0.374145
C38   C     C_R   0.556661 0.777065 0.405355 0.493843
C39   C     C_R   0.622575 0.855048 0.424302 0.496722
C40   C     C_R   0.709803 0.877172 0.469306 -0.345310
C41   C     C_3   0.718823 0.446944 0.795519 -0.455187
C42   C     C_R   0.732290 0.819272 0.490554 0.048205
C43   C     C_R   0.666201 0.741893 0.473383 0.014605
C44   C     C_R   0.819383 0.838090 0.530932 -0.187337
C45   C     C_R   0.841489 0.790485 0.572538 -0.039554
C46   C     C_R   0.775619 0.705984 0.541426 -0.094798
C47   C     C_3   0.748913 0.479768 0.656976 -0.298059
C48   C     C_R   0.688110 0.685881 0.499072 -0.124996
C49   C     C_R   0.926299 0.820464 0.640537 0.033928
C50   C     C_R   0.947948 0.761671 0.657894 -0.312333
C51   C     C_R   0.887236 0.674044 0.611462 -0.022484
C52   C     C_R   0.392117 0.391636 0.665230 -0.215529
C53   C     C_R   0.800421 0.645191 0.554265 0.487585
C54   C     C_R   0.998248 0.380372 0.877590 0.865283
C55   C     C_R   0.877055 0.501801 0.877862 0.869861
C56   C     C_R   0.997450 0.619958 0.117473 0.855784
C57   C     C_R   0.117489 0.499997 0.118439 0.853693
C58   C     C_R   0.999155 0.879085 0.380140 0.957381
C59   C     C_3   0.811582 0.468340 0.723823 -0.439478
C60   C     C_R   0.119320 0.119544 0.499215 0.839336
C61   C     C_R   0.000009 0.120074 0.619585 0.832565
C62   C     C_R   0.881747 0.890784 0.511778 0.912326
C63   C     C_R   0.391761 0.402555 0.743590 0.053605
C64   C     C_R   0.004358 0.394666 0.727124 -0.148061
C65   C     C_R   0.021101 0.408263 0.663212 -0.154476
C66   C     C_R   0.039387 0.353098 0.611620 -0.133670
C67   C     C_R   0.036098 0.281427 0.620438 -0.145594
C68   C     C_R   0.015524 0.264496 0.682581 0.068386
C69   C     C_R   0.006968 0.325595 0.741571 0.069572
C70   C     C_R   0.000848 0.186964 0.685566 -0.182370
C71   C     C_3   0.750781 0.599813 0.774850 0.409309
C72   C     C_R   0.984818 0.172665 0.750306 0.074914
C73   C     C_R   0.995939 0.241559 0.820396 0.055768
C74   C     C_R   0.318603 0.346849 0.740775 -0.180828
C75   C     C_R   0.000974 0.315377 0.812637 -0.217746
C76   C     C_R   0.957397 0.091021 0.746609 -0.140829
C77   C     C_R   0.953889 0.081810 0.817513 -0.165742
C78   C     C_R   0.979118 0.154087 0.893660 0.059306
C79   C     C_R   0.000168 0.233634 0.895415 -0.184305
C80   C     C_R   0.159150 0.761252 0.272203 -0.226530
C81   C     C_R   0.238259 0.837218 0.335856 0.590206
C82   C     C_R   0.236849 0.908743 0.389769 -0.268030
C83   C     C_3   0.647089 0.437056 0.715869 0.307851
C84   C     C_R   0.158241 0.902492 0.380562 -0.227258
C85   C     C_R   0.248289 0.277461 0.660422 -0.169361
C86   C     C_R   0.078239 0.824535 0.317556 0.070722
C87   C     C_R   0.078428 0.756469 0.257659 -0.002582
C88   C     C_R   0.998222 0.812506 0.313207 -0.199693
C89   C     C_R   0.917890 0.738366 0.242967 -0.054251
C90   C     C_R   0.918464 0.681812 0.172169 0.022709
C91   C     C_R   0.998074 0.686539 0.183763 -0.144642
C92   C     C_R   0.836497 0.717761 0.240277 0.553836
C93   C     C_R   0.758836 0.657030 0.160818 -0.201119
C94   C     C_R   0.760506 0.611109 0.086202 -0.220277
C95   C     C_3   0.690896 0.505154 0.691422 -0.055187
C96   C     C_R   0.249640 0.262489 0.580594 0.078387
C97   C     C_R   0.839225 0.621275 0.092055 -0.168133
C98   C     C_1   0.700715 0.619976 0.818943 0.075730
C99   C     C_1   0.466338 0.471614 0.827143 0.154471
C100  C     C_1   0.470796 0.503924 0.145499 0.240138
C101  C     C_3   0.113419 0.518018 0.505625 -0.331954
C102  C     C_3   0.265831 0.474535 0.942421 -0.286776
C103  C     C_1   0.915252 0.614117 0.623067 0.195487
C104  C     C_3   0.428803 0.745831 0.406580 -0.212032
C105  C     C_3   0.617781 0.916803 0.336595 -0.272752
C106  C     C_1   0.991069 0.910726 0.701486 0.181499
H1    H     H_    0.786157 0.531232 0.646137 0.225441
H2    H     H_    0.709827 0.418410 0.592979 0.229234
H3    H     H_    0.265289 0.297876 0.333906 0.152036
H4    H     H_    0.263275 0.463245 0.427165 0.174286
H5    H     H_    0.052375 0.513517 0.354815 0.142791
H6    H     H_    0.070816 0.528644 0.237803 0.172015
H7    H     H_    0.189836 0.454039 0.031323 0.151985
H8    H     H_    0.451178 0.520022 0.282097 0.168573
H9    H     H_    0.791002 0.398236 0.698241 0.201045
H10   H     H_    0.526474 0.658529 0.408715 0.155558
H11   H     H_    0.759499 0.941166 0.489920 0.183133
H12   H     H_    0.713995 0.476654 0.855214 0.134722
H13   H     H_    0.013322 0.784222 0.707166 0.171317
H14   H     H_    0.988239 0.438273 0.763452 0.156768
H15   H     H_    0.020478 0.462161 0.654146 0.153586
H16   H     H_    0.877772 0.501632 0.732844 0.190622
H17   H     H_    0.054081 0.364594 0.563145 0.162827
H18   H     H_    0.049487 0.239603 0.577860 0.148533
H19   H     H_    0.937880 0.033790 0.688667 0.131753
H20   H     H_    0.933757 0.018831 0.813755 0.140961
H21   H     H_    0.020274 0.288654 0.955889 0.156877
H22   H     H_    0.700408 0.564379 0.024766 0.181432
H23   H     H_    0.836546 0.627731 0.908502 0.087516
H24   H     H_    0.162354 0.706415 0.233887 0.171556
H25   H     H_    0.295953 0.969047 0.440560 0.141122
H26   H     H_    0.161485 0.960051 0.423076 0.167635
H27   H     H_    0.697029 0.643479 0.158024 0.179940
H28   H     H_    0.837264 0.581974 0.033103 0.151945
H29   H     H_    0.600713 0.451022 0.734658 0.059340
H30   H     H_    0.707982 0.381290 0.783833 0.228047
H31   H     H_    0.041803 0.483666 0.462843 0.168084
H32   H     H_    0.144084 0.586884 0.520586 0.161319
H33   H     H_    0.125907 0.518676 0.568968 0.195425
H34   H     H_    0.151930 0.166793 0.196390 0.151066
H35   H     H_    0.269557 0.537269 0.977767 0.170792
H36   H     H_    0.198286 0.419269 0.906151 0.173602
H37   H     H_    0.285289 0.478239 0.892637 0.193159
H38   H     H_    0.459119 0.809365 0.466235 0.164696
H39   H     H_    0.427944 0.695091 0.425182 0.143910
H40   H     H_    0.359937 0.725609 0.365848 0.230523
H41   H     H_    0.583230 0.851304 0.277973 0.172800
H42   H     H_    0.688668 0.949021 0.359768 0.159663
H43   H     H_    0.593067 0.956543 0.315589 0.184981
H44   H     H_    0.801982 0.532433 0.432831 0.142858
H45   H     H_    0.450886 0.435693 0.670772 0.154008
H46   H     H_    0.712537 0.550633 0.385543 0.160139
H47   H     H_    0.691781 0.451527 0.388572 0.194443
H48   H     H_    0.414668 0.956856 0.448275 0.158490
H49   H     H_    0.363917 0.953054 0.342324 0.151991
H50   H     H_    0.433805 0.908400 0.361552 0.248689
H51   H     H_    0.852606 0.789001 0.786362 0.183109
H52   H     H_    0.847956 0.766002 0.872300 0.145917
H53   H     H_    0.754208 0.758671 0.791926 0.182328
H54   H     H_    0.902912 0.704129 0.381118 0.164903
H55   H     H_    0.787850 0.624592 0.303730 0.152834
H56   H     H_    0.316439 0.355961 0.800872 0.167341
H57   H     H_    0.820454 0.710814 0.405925 0.194624
H58   H     H_    0.545416 0.300271 0.706950 0.154273
H59   H     H_    0.509158 0.227725 0.594951 0.193047
H60   H     H_    0.476913 0.307928 0.616547 0.164123
H61   H     H_    0.193072 0.236207 0.661973 0.157630
H62   H     H_    0.073769 0.041620 0.333675 0.144721
H63   H     H_    0.058126 0.037364 0.196349 0.142750
N1    N     N_1   0.662297 0.635769 0.853170 -0.198016
N2    N     N_1   0.526141 0.526972 0.894428 -0.192406
N3    N     N_1   0.532540 0.510431 0.141455 -0.217449
N4    N     N_1   0.938010 0.566176 0.632218 -0.252764
N5    N     N_1   0.045133 0.982145 0.751157 -0.202750
N6    N     N_1   0.983873 0.140286 0.030482 -0.211418
N7    N     N_1   0.978044 0.701973 0.858630 -0.211941
O1    O     O_R   0.408690 0.356690 0.448570 -0.619966
O2    O     O_R   0.052500 0.908420 0.460860 -0.628053
O3    O     O_R   0.039610 0.091640 0.448030 -0.628725
O4    O     O_R   0.408090 0.460090 0.551440 -0.622128
O5    O     O_R   0.143600 0.091610 0.551990 -0.628782
O6    O     O_R   0.947500 0.091600 0.539170 -0.634542
O7    O     O_R   0.051490 0.091570 0.643140 -0.616315
O8    O     O_R   0.856400 0.908420 0.448030 -0.579671
O9    O     O_R   0.960390 0.908390 0.552000 -0.617899
O10   O     O_R   0.592400 0.448300 0.540670 -0.582853
O11   O     O_R   0.591800 0.551700 0.643540 -0.631466
O12   O     O_R   0.049540 0.460090 0.906170 -0.642429
O13   O     O_R   0.591910 0.539910 0.448560 -0.590456
O14   O     O_R   0.591310 0.643310 0.551430 -0.623700
O15   O     O_R   0.408200 0.448300 0.356460 -0.634601
O16   O     O_R   0.407600 0.551700 0.459330 -0.631412
O17   O     O_R   0.946100 0.356720 0.906240 -0.612256
O18   O     O_3   0.149394 0.473057 0.467545 -0.609877
O19   O     O_3   0.322815 0.459592 0.999511 -0.617183
O20   O     O_3   0.470635 0.753093 0.356324 -0.584567
O21   O     O_3   0.601168 0.912403 0.404562 -0.602764
O22   O     O_3   0.742119 0.557115 0.507926 -0.607066
O23   O     O_R   0.853530 0.448360 0.905250 -0.632037
O24   O     O_3   0.313766 0.835516 0.343863 -0.629153
O25   O     O_3   0.778972 0.659113 0.743727 -0.617834
O26   O     O_3   0.831226 0.749043 0.315781 -0.593022
O27   O     O_3   0.604361 0.352124 0.643398 -0.582787
O28   O     O_R   0.956970 0.551730 0.905180 -0.624163
O29   O     O_R   0.945170 0.540000 0.088470 -0.627289
O30   O     O_R   0.048600 0.643370 0.088400 -0.618262
O31   O     O_R   0.037740 0.448360 0.089460 -0.627158
O32   O     O_R   0.141170 0.551730 0.089390 -0.615590
O33   O     O_R   0.948510 0.908450 0.356890 -0.595179
Zn1   Zn    Zn3+2 0.500400 0.430960 0.431310 0.979789
Zn2   Zn    Zn3+2 0.499600 0.569040 0.568690 0.969811
Zn3   Zn    Zn3+2 0.928290 0.431030 0.997370 0.950524
Zn4   Zn    Zn3+2 0.066410 0.569060 0.997270 0.958465
Zn5   Zn    Zn3+2 0.930570 0.000030 0.430590 0.966843
Zn6   Zn    Zn3+2 0.069430 0.999990 0.569430 0.969564

loop_
_geom_bond_atom_site_label_1
_geom_bond_atom_site_label_2
_ccdc_geom_bond_type
C61   C70   S    
O32   Zn4   S    
C87   C91   A    
C100  N3    T    
C11   O10   A    
C24   H6    S    
C18   H3    S    
C103  N4    T    
C72   C76   A    
C36   H8    S    
C67   H18   S    
C81   O24   S    
C30   C71   S    
C101  H33   S    
C50   C51   A    
C37   H10   S    
C77   C78   A    
C44   C45   A    
C60   O3    A    
C7    H55   S    
C57   O32   A    
C3    H46   S    
C93   C94   A    
C13   C18   A    
C11   O11   A    
C53   O22   S    
C28   C29   A    
C84   C86   A    
O9    Zn6   S    
C7    O26   S    
C93   H27   S    
O13   Zn1   S    
C52   H45   S    
C38   C39   A    
C85   C96   A    
C86   C88   A    
C71   C95   S    
C11   C95   S    
C5    H48   S    
C105  H41   S    
C9    H59   S    
C3    H47   S    
C3    O22   S    
C46   C53   A    
O23   Zn3   S    
C49   C50   A    
C63   C99   S    
C9    O27   S    
C1    O1    A    
C16   H63   S    
C56   C91   S    
C55   O23   A    
C56   O29   A    
C38   O20   S    
C16   C17   A    
C4    N6    T    
C34   C100  S    
C104  H38   S    
C69   C75   A    
C102  H35   S    
C65   H15   S    
C21   O18   S    
C43   C48   A    
C90   C97   A    
C83   H29   S    
C72   C73   A    
C88   C89   A    
C59   H16   S    
C40   C42   A    
C66   C67   A    
C39   O21   S    
C26   C31   A    
C54   O17   A    
C54   O12   A    
C21   C22   A    
C102  O19   S    
O7    Zn6   S    
C76   H19   S    
C73   C75   A    
C42   C44   A    
C97   H28   S    
C6    H52   S    
C81   C82   A    
C5    O24   S    
C106  N5    T    
C64   H14   S    
C71   C98   S    
C46   C48   A    
C61   O7    A    
C47   C59   S    
C80   H24   S    
C15   C16   A    
C67   C68   A    
C85   H61   S    
C104  H40   S    
C28   C32   A    
C24   C25   A    
C6    O25   S    
C58   O2    A    
C27   C57   S    
C39   C40   A    
C74   H56   S    
C101  H31   S    
C78   C79   A    
C68   C69   A    
O17   Zn3   S    
C7    H54   S    
C94   C97   A    
C44   C62   S    
C25   C26   A    
C5    H49   S    
C105  H42   S    
C7    H57   S    
O28   Zn4   S    
C84   H26   S    
C6    H53   S    
C50   H13   S    
C51   C53   A    
O1    Zn1   S    
C37   C43   A    
O4    Zn2   S    
C10   C60   S    
O14   Zn2   S    
O16   Zn2   S    
C4    C78   S    
C37   C38   A    
C2    C52   A    
C104  O20   S    
C47   H2    S    
O8    Zn5   S    
C45   C49   A    
C29   C36   A    
C12   C15   A    
C10   C96   A    
C101  H32   S    
C83   C95   S    
C20   C21   A    
C17   C18   A    
C61   O6    A    
O5    Zn6   S    
C64   C69   A    
C76   C77   A    
C89   C92   A    
C10   C12   A    
C62   O9    A    
C20   H4    S    
O2    Zn6   S    
O30   Zn4   S    
C83   O27   S    
O11   Zn2   S    
C65   C66   A    
C47   H1    S    
O10   Zn1   S    
O31   Zn3   S    
C41   H12   S    
C31   C35   S    
C15   H62   S    
C25   C27   A    
C102  H37   S    
C30   H23   S    
C23   O13   A    
C6    H51   S    
C92   O26   S    
C101  O18   S    
C58   O33   A    
C19   C55   S    
C60   O5    A    
C71   O25   S    
C79   H21   S    
C9    H60   S    
C3    H44   S    
C35   O15   A    
C23   C48   S    
C86   C87   A    
C104  H39   S    
C80   C81   A    
C73   C79   A    
C52   C63   A    
C58   C88   S    
C9    H58   S    
O12   Zn4   S    
C8    N7    T    
C49   C106  S    
C63   C74   A    
C94   H22   S    
C80   C87   A    
C5    H50   S    
C105  H43   S    
C57   O31   A    
C32   H7    S    
C82   C84   A    
O33   Zn5   S    
O29   Zn3   S    
C19   C59   S    
C32   C33   A    
C2    C96   A    
C89   C90   A    
C8    C30   S    
C29   C31   A    
C64   C65   A    
C90   C91   A    
C20   C26   A    
C35   O16   A    
C55   O28   A    
O3    Zn5   S    
C105  O21   S    
C92   C93   A    
C1    O4    A    
C34   C36   A    
C33   C34   A    
C40   H11   S    
C17   H34   S    
C22   C24   A    
C23   O14   A    
C74   C85   A    
C2    C14   A    
O15   Zn1   S    
C62   O8    A    
C54   C75   S    
C98   N1    T    
C45   C46   A    
C56   O30   A    
C12   C13   A    
C33   O19   S    
C59   H9    S    
C22   H5    S    
C42   C43   A    
C27   C28   A    
O6    Zn5   S    
C68   C70   A    
C47   C95   S    
C66   H17   S    
C70   C72   A    
C1    C14   S    
C102  H36   S    
C82   H25   S    
C13   C14   A    
C19   C30   S    
C51   C103  S    
C41   H30   S    
C77   H20   S    
C19   C41   S    
C99   N2    T    
C41   C83   S    
