data_mof_unit_61433.cif
_audit_creation_date              2013-03-05T16:17:15-0500
_audit_creation_method            fapswitch 2.2
_symmetry_space_group_name_H-M    P1
_symmetry_Int_Tables_number       1
_space_group_crystal_system       triclinic
_cell_length_a                    13.052711
_cell_length_b                    13.600684
_cell_length_c                    19.187175
_cell_angle_alpha                 90.180482
_cell_angle_beta                  92.590784
_cell_angle_gamma                 85.664427
_cell_volume                      3392.99946282

loop_
_atom_site_label
_atom_site_type_symbol
_atom_site_description
_atom_site_fract_x
_atom_site_fract_y
_atom_site_fract_z
_atom_type_partial_charge
O1    O     O_R   0.402510 0.634760 0.495940 -0.626889
O2    O     O_R   0.597490 0.365240 0.504060 -0.624346
O3    O     O_R   0.572960 0.644530 0.503060 -0.558932
O4    O     O_R   0.427040 0.355470 0.496940 -0.562904
C1    C     C_R   0.481179 0.685249 0.498731 0.940753
C2    C     C_R   0.518840 0.314726 0.500684 0.927541
O5    O     O_R   0.414750 0.495120 0.598300 -0.579663
O6    O     O_R   0.585250 0.504880 0.401700 -0.579287
O7    O     O_R   0.585190 0.504900 0.605420 -0.593185
O8    O     O_R   0.414810 0.495100 0.394580 -0.594520
C3    C     C_R   0.499155 0.500183 0.634472 0.973502
C4    C     C_R   0.500709 0.500652 0.365574 0.975723
Zn1   Zn    Zn3+2 0.386190 0.493480 0.495250 1.096978
Zn2   Zn    Zn3+2 0.613810 0.506520 0.504750 1.100125
C5    C     C_R   0.447348 0.432593 0.745729 0.182134
C6    C     C_R   0.546168 0.582466 0.257960 0.174530
C7    C     C_R   0.449855 0.433279 0.818691 0.212879
C8    C     C_R   0.538687 0.591642 0.185277 0.212341
C9    C     C_R   0.500543 0.507141 0.855058 -0.124595
C10   C     C_R   0.487365 0.521537 0.145528 -0.121990
C11   C     C_R   0.550698 0.578303 0.819367 -0.008381
C12   C     C_R   0.441808 0.443998 0.177668 -0.009085
C13   C     C_R   0.549112 0.576914 0.746387 0.255089
C14   C     C_R   0.448653 0.435271 0.250454 0.246743
C15   C     C_R   0.497020 0.504175 0.709942 -0.327060
C16   C     C_R   0.501297 0.504405 0.290135 -0.322752
N1    N     N_R   0.584271 0.520095 0.970209 -0.107170
N2    N     N_R   0.402009 0.517260 0.030222 -0.104972
N3    N     N_R   0.580827 0.524551 0.039126 -0.110981
N4    N     N_R   0.405449 0.512862 0.961286 -0.109121
C17   C     C_R   0.489701 0.523031 0.070017 0.415180
C18   C     C_R   0.496702 0.513584 0.930426 0.412195
C19   C     C_1   0.534004 0.211872 0.493774 -0.026135
C20   C     C_1   0.466456 0.787953 0.490252 -0.026268
C21   C     C_2   0.546005 0.021358 0.475331 0.181071
C22   C     C_2   0.455929 0.978188 0.470765 0.181789
C23   C     C_1   0.458103 0.874652 0.481141 0.083853
C24   C     C_1   0.542983 0.125037 0.485524 0.082525
N5    N     N_1   0.234540 0.484780 0.488910 -0.065535
N6    N     N_1   0.765460 0.515220 0.511090 -0.064809
C25   C     C_2   0.033015 0.472773 0.479789 0.029130
C26   C     C_2   0.966983 0.527237 0.520202 0.031018
C27   C     C_1   0.854609 0.519700 0.514475 0.218698
C28   C     C_1   0.145390 0.480305 0.485520 0.217903
N7    N     N_R   0.401212 0.354662 0.708260 0.235380
O9    O     O_R   0.444438 0.265345 0.711679 -0.318178
O10   O     O_R   0.309724 0.370233 0.678785 -0.306775
N8    N     N_R   0.591994 0.656949 0.299299 0.237623
O11   O     O_R   0.546763 0.745371 0.301847 -0.310324
O12   O     O_R   0.684545 0.640091 0.326830 -0.293235
N9    N     N_R   0.403089 0.357689 0.855643 0.244862
O13   O     O_R   0.454111 0.309253 0.906086 -0.322678
O14   O     O_R   0.310671 0.334660 0.837489 -0.264309
N10   N     N_R   0.581679 0.672894 0.152087 0.244993
O15   O     O_R   0.528033 0.724708 0.104457 -0.320169
O16   O     O_R   0.673704 0.696857 0.170431 -0.259536
N11   N     N_3   0.597500 0.655286 0.857747 -0.381082
H1    H     H_    0.676317 0.649660 0.849590 0.258070
H2    H     H_    0.565641 0.723492 0.838979 0.246565
N12   N     N_3   0.394894 0.370820 0.135476 -0.377478
H3    H     H_    0.316745 0.373081 0.145468 0.259094
H4    H     H_    0.429385 0.301240 0.149130 0.249193
N13   N     N_R   0.595513 0.652459 0.709370 0.219216
O17   O     O_R   0.540426 0.708763 0.665039 -0.387210
O18   O     O_R   0.692997 0.664560 0.719305 -0.357422
N14   N     N_R   0.406605 0.353727 0.283765 0.222568
O19   O     O_R   0.464322 0.296392 0.326026 -0.364950
O20   O     O_R   0.309949 0.338206 0.273602 -0.343811
N15   N     N_R   0.357188 0.033645 0.463227 0.219495
O21   O     O_R   0.275447 0.996017 0.484726 -0.309906
O22   O     O_R   0.345800 0.113636 0.425715 -0.307911
N16   N     N_R   0.644960 0.965851 0.477677 0.221248
O23   O     O_R   0.724500 0.003762 0.507379 -0.310759
O24   O     O_R   0.659521 0.885425 0.441335 -0.302315
N17   N     N_3   0.006983 0.594526 0.570323 -0.420528
H5    H     H_    0.983701 0.574759 0.619452 0.225516
H6    H     H_    0.972707 0.664911 0.558804 0.231847
N18   N     N_3   0.993017 0.405483 0.429668 -0.419922
H7    H     H_    0.016297 0.425252 0.380540 0.226741
H8    H     H_    0.027296 0.335098 0.441185 0.232964

loop_
_geom_bond_atom_site_label_1
_geom_bond_atom_site_label_2
_geom_bond_distance
_ccdc_geom_bond_type
N14   O20   1.300786 A    
N13   O18   1.300787 A    
N1    N3    1.326143 A    
C20   C23   1.188698 T    
C25   C26   1.361288 D    
C21   C22   1.352582 D    
O7    Zn2   1.984377 S    
C7    N9    1.439046 S    
N7    O9    1.300706 A    
O5    C3    1.281507 A    
C26   N17   1.433973 S    
O1    C1    1.276802 A    
C22   C23   1.420767 S    
C9    C11   1.405269 A    
C14   C16   1.407773 A    
C12   N12   1.436374 S    
N18   H8    1.045495 S    
N11   H2    1.045643 S    
C3    C15   1.450341 S    
N12   H4    1.045637 S    
O4    Zn1   1.912092 S    
N15   O22   1.301749 A    
N6    C27   1.168697 T    
C14   N14   1.438030 S    
N8    O12   1.300840 A    
N14   O19   1.301186 A    
C6    N8    1.434153 S    
O2    C2    1.276886 A    
C9    C18   1.451370 S    
N7    O10   1.300841 A    
C6    C16   1.407882 A    
N10   O16   1.301216 A    
N9    O13   1.301412 A    
C21   C24   1.420828 S    
N16   O24   1.301758 A    
C25   N18   1.433978 S    
N18   H7    1.045481 S    
C4    C16   1.448915 S    
N12   H3    1.044574 S    
N9    O14   1.301177 A    
N17   H5    1.045484 S    
C11   N11   1.436284 S    
O7    C3    1.282053 A    
O6    C4    1.281272 A    
C1    C20   1.404499 S    
N17   H6    1.045493 S    
O3    Zn2   1.912092 S    
O8    C4    1.281420 A    
O4    C2    1.280661 A    
N8    O11   1.300797 A    
C10   C12   1.406459 A    
C21   N16   1.444928 S    
C11   C13   1.399584 A    
C25   C28   1.477205 S    
C12   C14   1.400218 A    
O1    Zn1   1.949157 S    
C26   C27   1.477206 S    
C5    N7    1.433694 S    
C22   N15   1.444911 S    
C5    C7    1.398850 A    
N10   O15   1.301425 A    
O6    Zn2   1.995816 S    
N1    C18   1.353890 A    
N2    C17   1.354078 A    
N16   O23   1.301580 A    
O3    C1    1.280524 A    
O8    Zn1   1.984379 S    
N5    C28   1.168699 T    
C19   C24   1.188762 T    
C2    C19   1.404633 S    
N2    N4    1.326484 A    
N3    C17   1.354260 A    
N4    C18   1.354619 A    
N11   H1    1.044657 S    
C13   N13   1.436852 S    
C7    C9    1.410007 A    
C8    C10   1.409015 A    
C13   C15   1.408691 A    
N15   O21   1.301579 A    
O2    Zn2   1.949156 S    
Zn1   N5    1.990111 S    
C5    C15   1.406976 A    
C8    N10   1.439500 S    
Zn2   N6    1.990112 S    
N13   O17   1.300949 A    
O5    Zn1   1.995816 S    
C6    C8    1.398901 A    
C10   C17   1.450772 S    
