data_mof_unit_68233.cif
_audit_creation_date              2012-12-11T17:19:14-0500
_audit_creation_method            fapswitch 2.2
_symmetry_space_group_name_H-M    P1
_symmetry_Int_Tables_number       1
_space_group_crystal_system       triclinic
_cell_length_a                    15.115215
_cell_length_b                    7.493245
_cell_length_c                    13.159612
_cell_angle_alpha                 90.049401
_cell_angle_beta                  100.770411
_cell_angle_gamma                 89.599565
_cell_volume                      1464.191652

loop_
_atom_site_label
_atom_site_type_symbol
_atom_type_description
_atom_site_fract_x
_atom_site_fract_y
_atom_site_fract_z
_atom_type_partial_charge
O1    O     O_R   0.648180 0.355050 0.151550 -0.494567
O2    O     O_R   0.351820 0.644950 0.848450 -0.499078
O3    O     O_R   0.851820 0.855050 0.348450 -0.503098
O4    O     O_R   0.148180 0.144950 0.651550 -0.506163
O5    O     O_R   0.835240 0.681980 0.154280 -0.526424
O6    O     O_R   0.164760 0.318020 0.845720 -0.533314
O7    O     O_R   0.664760 0.181980 0.345720 -0.537349
O8    O     O_R   0.335240 0.818020 0.654280 -0.536792
C1    C     C_R   0.861409 0.515640 0.130648 0.829772
C2    C     C_R   0.138594 0.484441 0.869455 0.825089
C3    C     C_R   0.638944 0.016521 0.369831 0.829065
C4    C     C_R   0.361390 0.983486 0.630478 0.830503
O9    O     O_R   0.647870 0.684600 0.139630 -0.494757
O10   O     O_R   0.352130 0.315400 0.860370 -0.491656
O11   O     O_R   0.852130 0.184600 0.360370 -0.490281
O12   O     O_R   0.147870 0.815400 0.639630 -0.486918
O13   O     O_R   0.663110 0.857440 0.333700 -0.529291
O14   O     O_R   0.336890 0.142560 0.666300 -0.517797
O15   O     O_R   0.836890 0.357440 0.166300 -0.523489
O16   O     O_R   0.163110 0.642560 0.833700 -0.528819
C5    C     C_R   0.613001 0.517145 0.117567 0.778310
C6    C     C_R   0.387138 0.482819 0.882191 0.791317
C7    C     C_R   0.886641 0.016431 0.382852 0.790949
C8    C     C_R   0.113299 0.983551 0.617232 0.782242
O17   O     O_3   0.755220 0.522230 0.313690 -0.376188
O18   O     O_3   0.244780 0.477770 0.686310 -0.372883
O19   O     O_3   0.744780 0.022230 0.186310 -0.378252
O20   O     O_3   0.255220 0.977770 0.813690 -0.383494
V1    V     V_3+5 0.749030 0.796100 0.238190 1.772458
V2    V     V_3+5 0.250970 0.203900 0.761810 1.771701
V3    V     V_3+5 0.750970 0.296100 0.261810 1.760501
V4    V     V_3+5 0.249030 0.703900 0.738190 1.758066
C9    C     C_1   0.967034 0.005092 0.465013 0.148247
C10   C     C_1   0.033044 0.994722 0.534859 0.148437
C11   C     C_1   0.533142 0.506151 0.034606 0.145092
C12   C     C_1   0.467348 0.493279 0.964708 0.143569
C13   C     C_R   0.554250 0.985138 0.724686 0.243400
C14   C     C_R   0.446912 0.010909 0.275916 0.228795
C15   C     C_R   0.946468 0.498276 0.775847 0.234441
C16   C     C_R   0.053496 0.502589 0.224962 0.246092
C17   C     C_R   0.645888 0.001170 0.773064 0.402182
C18   C     C_R   0.355729 0.989658 0.227647 0.410982
C19   C     C_R   0.855061 0.480427 0.727822 0.409080
C20   C     C_R   0.145027 0.516415 0.273232 0.405062
C21   C     C_R   0.713400 0.986244 0.712992 0.348422
C22   C     C_R   0.287921 0.005244 0.286946 0.352909
C23   C     C_R   0.787724 0.493300 0.787409 0.353788
C24   C     C_R   0.212404 0.498338 0.213874 0.348043
C25   C     C_R   0.687017 0.985129 0.603434 0.334306
C26   C     C_R   0.313741 0.007858 0.396590 0.342803
C27   C     C_R   0.813533 0.491820 0.896775 0.339418
C28   C     C_R   0.186750 0.496666 0.104428 0.340788
C29   C     C_R   0.594222 0.998421 0.550304 -0.070213
C30   C     C_R   0.406549 0.999565 0.450223 -0.046522
C31   C     C_R   0.906335 0.496550 0.950437 -0.046644
C32   C     C_R   0.093971 0.500300 0.050461 -0.072564
C33   C     C_R   0.525752 0.991565 0.612735 -0.111511
C34   C     C_R   0.475098 0.007534 0.387924 -0.124048
C35   C     C_R   0.974848 0.498961 0.887912 -0.121864
C36   C     C_R   0.025350 0.501528 0.112886 -0.111620
C37   C     C_R   0.568719 0.008614 0.437741 -0.055168
C38   C     C_R   0.431950 0.991132 0.562861 -0.043436
C39   C     C_R   0.931707 0.503512 0.063001 -0.041572
C40   C     C_R   0.068544 0.496138 0.937650 -0.063020
S1    S     S_3+6 0.672204 0.036864 0.910915 0.187237
O21   O     O_2   0.604898 0.164498 0.941762 -0.266833
O22   O     O_2   0.663798 0.862132 0.963386 -0.268298
O23   O     O_3   0.775294 0.119397 0.955159 -0.458637
H1    H     H_    0.799931 0.051333 0.018629 0.370289
S2    S     S_3+6 0.330725 0.940204 0.091672 0.174155
O24   O     O_2   0.338255 0.108691 0.032660 -0.255897
O25   O     O_2   0.399258 0.809463 0.066911 -0.284765
O26   O     O_3   0.228574 0.852131 0.050657 -0.467786
H2    H     H_    0.207633 0.899022 0.980030 0.364227
S3    S     S_3+6 0.830446 0.418367 0.593794 0.165138
O27   O     O_2   0.846821 0.575101 0.528903 -0.250255
O28   O     O_2   0.895309 0.273131 0.578901 -0.296865
O29   O     O_3   0.726605 0.340196 0.550625 -0.474783
H3    H     H_    0.703970 0.406170 0.485812 0.367248
S4    S     S_3+6 0.170427 0.572800 0.408378 0.176211
O30   O     O_2   0.106275 0.717429 0.426370 -0.287677
O31   O     O_2   0.153841 0.413023 0.470816 -0.255444
O32   O     O_3   0.274849 0.648307 0.452159 -0.472860
H4    H     H_    0.298413 0.577102 0.514821 0.373339
Cl1   Cl    Cl    0.481740 0.936655 0.813490 -0.474771
Cl2   Cl    Cl    0.518660 0.061161 0.186440 -0.471477
Cl3   Cl    Cl    0.018761 0.533988 0.685140 -0.466848
Cl4   Cl    Cl    0.980615 0.469726 0.315379 -0.468212
S5    S     S_3+6 0.171180 0.035074 0.223483 0.063408
O33   O     O_2   0.127777 0.857349 0.203120 -0.350315
O34   O     O_2   0.115563 0.140563 0.285544 -0.304266
O35   O     O_3   0.162573 0.138429 0.109301 -0.503013
H5    H     H_    0.100052 0.116623 0.072868 0.351164
S6    S     S_3+6 0.830132 0.952191 0.775863 0.058141
O36   O     O_2   0.834628 0.845123 0.872392 -0.358081
O37   O     O_2   0.887514 0.858674 0.710765 -0.300176
O38   O     O_3   0.880004 0.145696 0.811082 -0.514728
H6    H     H_    0.940310 0.113060 0.850712 0.351142
S7    S     S_3+6 0.328433 0.463019 0.277261 0.055041
O39   O     O_2   0.332458 0.362559 0.376099 -0.350895
O40   O     O_2   0.382949 0.361574 0.212333 -0.302390
O41   O     O_3   0.381108 0.655457 0.307418 -0.517095
H7    H     H_    0.441869 0.621621 0.345297 0.350282
S8    S     S_3+6 0.670949 0.521921 0.725555 0.057717
O42   O     O_2   0.627454 0.344139 0.705688 -0.351352
O43   O     O_2   0.617473 0.626176 0.790504 -0.300978
O44   O     O_3   0.660503 0.627138 0.611812 -0.509013
H8    H     H_    0.596840 0.610279 0.577897 0.350466
Cl5   Cl    Cl    0.773484 0.940471 0.536840 -0.514947
Cl6   Cl    Cl    0.225938 0.046313 0.462030 -0.510668
Cl7   Cl    Cl    0.723855 0.483370 0.961215 -0.514405
Cl8   Cl    Cl    0.276288 0.484541 0.039687 -0.518509

loop_
_geom_bond_atom_site_label_1
_geom_bond_atom_site_label_2
_ccdc_geom_bond_type
O17   V3    S    
O1    C5    A    
C16   C36   A    
C31   C35   A    
O19   V1    S    
O13   V1    S    
O26   H2    S    
O3    C7    A    
C11   C12   T    
O1    V3    S    
O15   V3    S    
S8    O43   D    
O38   H6    S    
C33   C38   A    
C22   S5    S    
O7    C3    A    
C35   C40   A    
C26   C30   A    
C14   Cl2   S    
C36   C39   A    
C13   Cl1   S    
C14   C18   A    
C30   C34   A    
O4    C8    A    
C28   Cl8   S    
C18   S2    S    
O2    V4    S    
C18   C22   A    
O3    V1    S    
C14   C34   A    
C29   C37   A    
C1    O15   A    
O32   H4    S    
C2    O16   A    
O23   H1    S    
C7    C9    S    
C31   C39   A    
O2    C6    A    
O44   H8    S    
C32   C40   A    
S2    O24   D    
O14   V2    S    
C15   Cl3   S    
S5    O34   D    
C16   C20   A    
C34   C37   A    
O11   C7    A    
O12   C8    A    
C26   Cl6   S    
S6    O36   D    
O10   V2    S    
S4    O32   S    
C21   S6    S    
S8    O42   D    
O5    V1    S    
C19   S3    S    
O7    V3    S    
O8    V4    S    
C20   S4    S    
S4    O31   D    
C29   C33   A    
O29   H3    S    
C17   S1    S    
C30   C38   A    
S6    O38   S    
S1    O22   D    
C8    C10   S    
C32   C36   A    
S3    O27   D    
O5    C1    A    
C4    C38   S    
S7    O39   D    
C21   C25   A    
O8    C4    A    
S1    O23   S    
C15   C35   A    
S2    O26   S    
C9    C10   T    
O9    C5    A    
S5    O35   S    
S6    O37   D    
S3    O28   D    
C5    C11   S    
S7    O40   D    
C25   Cl5   S    
O16   V4    S    
O9    V1    S    
C24   S7    S    
C3    O13   A    
C27   Cl7   S    
C23   S8    S    
O6    V2    S    
C1    C39   S    
C2    C40   S    
S4    O30   D    
C3    C37   S    
O6    C2    A    
C23   C27   A    
O11   V3    S    
O18   V4    S    
O12   V4    S    
C6    C12   S    
C22   C26   A    
C16   Cl4   S    
O20   V2    S    
O10   C6    A    
C25   C29   A    
O35   H5    S    
C27   C31   A    
C13   C17   A    
O41   H7    S    
S3    O29   S    
O4    V2    S    
C28   C32   A    
C24   C28   A    
S7    O41   S    
C15   C19   A    
S1    O21   D    
C4    O14   A    
C17   C21   A    
S2    O25   D    
S5    O33   D    
C19   C23   A    
S8    O44   S    
C13   C33   A    
C20   C24   A    
