data_mof_unit_26581.cif
_audit_creation_date              2012-12-10T21:00:36-0500
_audit_creation_method            fapswitch 2.2
_symmetry_space_group_name_H-M    P1
_symmetry_Int_Tables_number       1
_space_group_crystal_system       triclinic
_cell_length_a                    18.08253
_cell_length_b                    18.265762
_cell_length_c                    18.54217
_cell_angle_alpha                 120.05412
_cell_angle_beta                  90.040651
_cell_angle_gamma                 119.771725
_cell_volume                      4340.3665503

loop_
_atom_site_label
_atom_site_type_symbol
_atom_type_description
_atom_site_fract_x
_atom_site_fract_y
_atom_site_fract_z
_atom_type_partial_charge
C1    C     C_R   0.110325 0.220297 0.610366 0.794401
C2    C     C_3   0.450620 0.897377 0.947802 -0.069821
C3    C     C_3   0.067837 0.975104 0.128763 -0.173303
C4    C     C_2   0.837330 0.884003 0.963228 0.363382
C5    C     C_2   0.159519 0.072816 0.980775 0.431428
C6    C     C_3   0.735480 0.647068 0.754544 -0.066478
C7    C     C_3   0.281851 0.240066 0.196158 -0.204401
C8    C     C_3   0.164504 0.559468 0.399435 -0.210520
C9    C     C_3   0.827864 0.423638 0.589423 -0.146772
C10   C     C_3   0.782797 0.949649 0.155122 -0.316485
C11   C     C_3   0.222737 0.036696 0.793952 -0.330679
C12   C     C_3   0.184953 0.847215 0.843941 -0.373915
C13   C     C_3   0.479129 0.031560 0.075399 -0.101425
C14   C     C_3   0.818870 0.157068 0.154559 -0.330958
C15   C     C_2   0.264558 0.954831 0.092129 0.453847
C16   C     C_2   0.736775 0.048087 0.911284 0.465976
C17   C     C_2   0.230903 0.779845 0.101553 0.515104
C18   C     C_2   0.769521 0.225449 0.906294 0.485113
C19   C     C_2   0.987542 0.706829 0.832176 0.521003
C20   C     C_2   0.022820 0.288146 0.158745 0.406692
C21   C     C_2   0.022926 0.692641 0.129287 0.433650
C22   C     C_2   0.976748 0.308041 0.870663 0.391269
C23   C     C_2   0.464006 0.075238 0.914344 0.445317
C24   C     C_3   0.521202 0.968455 0.925431 -0.092147
C25   C     C_2   0.536666 0.925100 0.086654 0.417341
C26   C     C_2   0.452328 0.300041 0.390160 0.448622
C27   C     C_2   0.537854 0.705557 0.608374 0.422035
C28   C     C_3   0.283625 0.415282 0.393551 -0.186784
C29   C     C_3   0.722810 0.729558 0.608843 -0.246042
C30   C     C_3   0.413338 0.439211 0.450945 0.540427
C31   C     C_3   0.586005 0.570743 0.548967 0.574868
C32   C     C_3   0.479435 0.409060 0.447707 -0.092616
C33   C     C_3   0.518927 0.599996 0.552391 -0.130817
C34   C     C_3   0.549652 0.502188 0.447566 -0.101390
C35   C     C_3   0.449601 0.505777 0.552116 -0.101406
C36   C     C_3   0.482774 0.532378 0.449506 -0.465875
C37   C     C_R   0.889879 0.779726 0.389822 0.803639
C38   C     C_3   0.516963 0.476752 0.549726 -0.382840
C39   C     C_R   0.155818 0.197877 0.836419 -0.181728
C40   C     C_R   0.831319 0.802490 0.171036 -0.301269
C41   C     C_R   0.392981 0.781213 0.888511 0.822070
C42   C     C_R   0.607064 0.218787 0.111756 0.824091
C43   C     C_R   0.141185 0.154313 0.745973 -0.026427
C44   C     C_R   0.853259 0.852768 0.262529 0.000390
C45   C     C_R   0.051978 0.092205 0.688050 -0.125282
C46   C     C_R   0.943654 0.907583 0.313677 -0.126607
C47   C     C_R   0.978669 0.064200 0.720173 0.470742
C48   C     C_3   0.980508 0.425099 0.413337 -0.459034
C49   C     C_R   0.012616 0.927580 0.275415 0.472990
C50   C     C_R   0.994750 0.102299 0.809840 0.355051
C51   C     C_R   0.989903 0.885221 0.184493 0.424662
C52   C     C_R   0.083658 0.175553 0.869287 -0.202117
C53   C     C_R   0.897990 0.812706 0.131040 -0.204728
C54   C     C_R   0.981349 0.942412 0.534767 -0.171714
C55   C     C_R   0.020778 0.057548 0.466153 -0.215854
C56   C     C_R   0.947733 0.892274 0.444064 -0.069270
C57   C     C_R   0.053833 0.107799 0.556820 -0.086237
C58   C     C_R   0.969375 0.951161 0.409013 0.071936
C59   C     C_3   0.018802 0.573570 0.586103 -0.443215
C60   C     C_R   0.031902 0.049030 0.592317 0.032767
C61   C     C_R   0.719795 0.692752 0.888058 0.477094
C62   C     C_R   0.288805 0.261675 0.085851 0.562862
C63   C     C_R   0.645166 0.613037 0.887035 -0.323023
C64   C     C_R   0.360424 0.351022 0.096091 -0.186120
C65   C     C_R   0.108613 0.498884 0.887405 0.866381
C66   C     C_R   0.891868 0.501545 0.113021 0.858617
C67   C     C_R   0.600181 0.634830 0.947523 0.030917
C68   C     C_R   0.399421 0.343113 0.029691 -0.009388
C69   C     C_R   0.626942 0.736540 0.006343 -0.235331
C70   C     C_3   0.412291 0.963067 0.980369 -0.261252
C71   C     C_R   0.370607 0.245338 0.955828 -0.254072
C72   C     C_R   0.703419 0.817825 0.010632 0.408535
C73   C     C_R   0.295349 0.155761 0.942136 0.403581
C74   C     C_R   0.751509 0.796741 0.952200 -0.146144
C75   C     C_R   0.250092 0.164119 0.004545 -0.166260
C76   C     C_R   0.592375 0.548421 0.015104 -0.224218
C77   C     C_R   0.407703 0.447035 0.981254 -0.177601
C78   C     C_R   0.549111 0.489839 0.047699 -0.046894
C79   C     C_R   0.450963 0.506226 0.948945 -0.054947
C80   C     C_R   0.454618 0.432672 0.025604 0.050471
C81   C     C_3   0.588039 0.036957 0.020495 -0.247865
C82   C     C_R   0.545050 0.559181 0.967258 0.053669
C83   C     C_R   0.191555 0.844036 0.023911 -0.015769
C84   C     C_R   0.812106 0.158132 0.978269 -0.027141
C85   C     C_R   0.167809 0.765426 0.036383 -0.067630
C86   C     C_R   0.834657 0.237735 0.967634 -0.061381
C87   C     C_R   0.083509 0.668908 0.981928 -0.046569
C88   C     C_R   0.920229 0.333066 0.019999 -0.030655
C89   C     C_R   0.392484 0.501906 0.608328 0.873638
C90   C     C_R   0.607355 0.500650 0.391655 0.881989
C91   C     C_R   0.026251 0.650486 0.915106 -0.094101
C92   C     C_3   0.483656 0.034914 0.959208 0.020054
C93   C     C_R   0.980814 0.348581 0.081802 -0.167200
C94   C     C_R   0.052793 0.724384 0.897674 -0.021866
C95   C     C_R   0.955740 0.273743 0.097739 -0.075168
C96   C     C_R   0.139140 0.818657 0.948176 0.374572
C97   C     C_R   0.867987 0.181590 0.050498 0.368959
C98   C     C_R   0.006204 0.591748 0.060199 -0.088223
C99   C     C_R   0.995404 0.409615 0.941232 -0.049233
C100  C     C_R   0.953466 0.504005 0.061022 -0.067974
C101  C     C_R   0.048060 0.497255 0.940374 -0.066443
C102  C     C_R   0.953981 0.415726 0.005831 -0.111851
C103  C     C_3   0.516624 0.965040 0.041578 0.032364
C104  C     C_R   0.048469 0.586026 0.996107 -0.117983
C105  C     C_R   0.394403 0.502759 0.890898 0.841218
C106  C     C_R   0.605661 0.496069 0.108111 0.832491
C107  C     C_R   0.109106 0.500542 0.608240 0.923780
C108  C     C_R   0.890773 0.499235 0.391709 0.928246
C109  C     C_3   0.075586 0.520335 0.480848 0.463214
C110  C     C_3   0.923828 0.478232 0.518476 0.464607
C111  C     C_3   0.043583 0.591653 0.513882 0.463755
C112  C     C_3   0.956068 0.407095 0.485676 0.458427
C113  C     C_3   0.948310 0.497878 0.447429 -0.221606
C114  C     C_3   0.549648 0.102618 0.052968 -0.072853
C115  C     C_3   0.051246 0.501135 0.552180 -0.224216
C116  C     C_3   0.166734 0.760942 0.594258 -0.277885
C117  C     C_3   0.842344 0.233074 0.398568 -0.294855
C118  C     C_2   0.100849 0.228086 0.965457 0.475888
C119  C     C_2   0.868633 0.740121 0.034121 0.484855
C120  C     C_2   0.219132 0.174642 0.712821 0.402847
C121  C     C_2   0.781052 0.843381 0.303182 0.412103
C122  C     C_3   0.852290 0.039399 0.658907 -0.166897
C123  C     C_3   0.157533 0.075415 0.341637 -0.191836
C124  C     C_3   0.901881 0.986205 0.836972 -0.240614
H1    H     H_    0.223518 0.245974 0.881107 0.208453
H2    H     H_    0.335821 0.407817 0.968820 0.194647
H3    H     H_    0.960024 0.577832 0.876958 0.187037
H4    H     H_    0.048080 0.419859 0.117574 0.203479
H5    H     H_    0.965115 0.366217 0.343096 0.174469
H6    H     H_    0.033853 0.632379 0.656326 0.179319
H7    H     H_    0.339836 0.930524 0.961857 0.173391
H8    H     H_    0.660425 0.069052 0.039585 0.166935
H9    H     H_    0.462689 0.058075 0.137431 0.213426
H10   H     H_    0.537514 0.941849 0.863340 0.215308
H11   H     H_    0.470000 0.554915 0.407845 0.169808
H12   H     H_    0.761662 0.754828 0.130469 0.191833
H13   H     H_    0.530666 0.454013 0.590748 0.159701
H14   H     H_    0.212463 0.735740 0.588576 0.193711
H15   H     H_    0.152881 0.781123 0.657320 0.148201
H16   H     H_    0.202672 0.831808 0.595643 0.195835
H17   H     H_    0.868765 0.209449 0.343272 0.151991
H18   H     H_    0.797603 0.253850 0.386309 0.180149
H19   H     H_    0.800605 0.165454 0.401117 0.199175
H20   H     H_    0.047296 0.198267 0.990205 0.117813
H21   H     H_    0.798146 0.677116 0.997869 0.058174
H22   H     H_    0.208170 0.133482 0.642459 0.068239
H23   H     H_    0.966294 0.898289 0.562257 0.184621
H24   H     H_    0.797530 0.884896 0.374299 0.050872
H25   H     H_    0.893204 0.093045 0.640479 0.176127
H26   H     H_    0.842362 0.080285 0.722633 0.223458
H27   H     H_    0.784673 0.979583 0.607210 0.165085
H28   H     H_    0.122210 0.111366 0.342703 0.105397
H29   H     H_    0.193125 0.070391 0.292418 0.217832
H30   H     H_    0.209900 0.128264 0.407537 0.180860
H31   H     H_    0.957823 0.006850 0.884791 0.187014
H32   H     H_    0.887058 0.921583 0.769488 0.170041
H33   H     H_    0.840545 0.958368 0.855768 0.191624
H34   H     H_    0.034572 0.101366 0.438623 0.166186
H35   H     H_    0.082435 0.047757 0.188443 0.106707
H36   H     H_    0.007249 0.940053 0.076413 0.231299
H37   H     H_    0.125843 0.995828 0.104337 0.206318
H38   H     H_    0.856470 0.962409 0.007231 0.159487
H39   H     H_    0.131839 0.998598 0.918899 0.152788
H40   H     H_    0.776910 0.630942 0.713146 0.224970
H41   H     H_    0.739977 0.714320 0.763469 0.166939
H42   H     H_    0.664680 0.577178 0.718857 0.129396
H43   H     H_    0.352870 0.302316 0.241152 0.189163
H44   H     H_    0.275813 0.166886 0.149823 0.132242
H45   H     H_    0.627089 0.534979 0.843794 0.180360
H46   H     H_    0.237978 0.224826 0.235573 0.213546
H47   H     H_    0.182036 0.637777 0.426297 0.190326
H48   H     H_    0.101620 0.500640 0.341226 0.190687
H49   H     H_    0.219777 0.555646 0.376114 0.201252
H50   H     H_    0.891151 0.464702 0.642207 0.179268
H51   H     H_    0.795591 0.339162 0.549594 0.177425
H52   H     H_    0.780676 0.438077 0.622192 0.202714
H53   H     H_    0.804835 0.029142 0.207625 0.178423
H54   H     H_    0.844789 0.951188 0.150193 0.158033
H55   H     H_    0.740961 0.900087 0.176752 0.199507
H56   H     H_    0.383270 0.426309 0.154175 0.171174
H57   H     H_    0.161725 0.036938 0.800161 0.150537
H58   H     H_    0.199047 0.957718 0.738434 0.183985
H59   H     H_    0.267744 0.089799 0.776810 0.215646
H60   H     H_    0.181731 0.775376 0.817806 0.175686
H61   H     H_    0.252562 0.904874 0.849641 0.244163
H62   H     H_    0.134593 0.832015 0.794971 0.170089
H63   H     H_    0.756289 0.095586 0.151853 0.225935
H64   H     H_    0.808349 0.217878 0.169550 0.180896
H65   H     H_    0.875100 0.189640 0.209764 0.145768
H66   H     H_    0.291387 0.010030 0.075373 0.071500
H67   H     H_    0.593498 0.753930 0.054608 0.173414
H68   H     H_    0.712093 0.992521 0.927551 0.086933
H69   H     H_    0.205135 0.736624 0.130154 0.064101
H70   H     H_    0.793567 0.268134 0.877101 0.053861
H71   H     H_    0.002908 0.768448 0.826058 0.101786
H72   H     H_    0.004497 0.228971 0.169393 0.112016
H73   H     H_    0.025670 0.741585 0.111614 0.143439
H74   H     H_    0.970940 0.256053 0.886025 0.103467
H75   H     H_    0.441982 0.125574 0.946235 0.084762
H76   H     H_    0.560944 0.876929 0.055900 0.091096
H77   H     H_    0.399380 0.241972 0.396678 0.078829
H78   H     H_    0.402852 0.238886 0.905792 0.194982
H79   H     H_    0.582363 0.763788 0.597832 0.071855
H80   H     H_    0.301681 0.485543 0.458502 0.186034
H81   H     H_    0.208927 0.360754 0.367040 0.205535
H82   H     H_    0.305308 0.435353 0.346323 0.181633
H83   H     H_    0.717931 0.785792 0.668197 0.167127
H84   H     H_    0.697135 0.722776 0.549673 0.147879
H85   H     H_    0.795382 0.760726 0.619643 0.209260
H86   H     H_    0.664297 0.587253 0.027542 0.154457
O1    O     O_3   0.251620 0.500000 0.748430 -0.507516
O2    O     O_R   0.570330 0.268390 0.136490 -0.640944
O3    O     O_R   0.134680 0.268390 0.572240 -0.648676
O4    O     O_R   0.865320 0.731610 0.427760 -0.654026
O5    O     O_R   0.306670 0.731630 0.863510 -0.647940
O6    O     O_R   0.693330 0.268370 0.136490 -0.647704
O7    O     O_R   0.135450 0.439270 0.865360 -0.609296
O8    O     O_R   0.864550 0.560730 0.134640 -0.625122
O9    O     O_R   0.429670 0.560710 0.692610 -0.614822
O10   O     O_R   0.570330 0.439290 0.307390 -0.626683
O11   O     O_R   0.308540 0.439240 0.865360 -0.627194
O12   O     O_3   0.748380 0.500000 0.251570 -0.507042
O13   O     O_R   0.691460 0.560760 0.134640 -0.643443
O14   O     O_R   0.133580 0.439310 0.571150 -0.603708
O15   O     O_R   0.866420 0.560690 0.428850 -0.590128
O16   O     O_R   0.430770 0.560690 0.864590 -0.652310
O17   O     O_R   0.569230 0.439310 0.135410 -0.656919
O18   O     O_R   0.133580 0.560760 0.692610 -0.676952
O19   O     O_R   0.866420 0.439240 0.307390 -0.676691
O20   O     O_3   0.085558 0.685698 0.522254 -0.606940
O21   O     O_3   0.914365 0.313953 0.478925 -0.610025
O22   O     O_2   0.174468 0.307133 0.018298 -0.560928
O23   O     O_R   0.134680 0.560740 0.864590 -0.655567
O24   O     O_2   0.922072 0.746441 0.993812 -0.522906
O25   O     O_2   0.296756 0.238027 0.763746 -0.604483
O26   O     O_2   0.702003 0.789230 0.257661 -0.588141
O27   O     O_3   0.890878 0.990007 0.661955 -0.640082
O28   O     O_3   0.100345 0.977226 0.325520 -0.560713
O29   O     O_3   0.922377 0.072892 0.839722 -0.635247
O30   O     O_3   0.057845 0.905529 0.147778 -0.601834
O31   O     O_2   0.889012 0.870210 0.925245 -0.550540
O32   O     O_2   0.112158 0.080300 0.027087 -0.575511
O33   O     O_3   0.769842 0.669320 0.836107 -0.544699
O34   O     O_R   0.865320 0.439260 0.135410 -0.644569
O35   O     O_3   0.252875 0.271462 0.153145 -0.557483
O36   O     O_3   0.158156 0.541814 0.465676 -0.629426
O37   O     O_3   0.841507 0.457490 0.533971 -0.603930
O38   O     O_3   0.733070 0.918399 0.074733 -0.610246
O39   O     O_3   0.269592 0.059632 0.870909 -0.624432
O40   O     O_3   0.171901 0.889215 0.926970 -0.668500
O41   O     O_3   0.835769 0.113275 0.074046 -0.642765
O42   O     O_2   0.291277 0.987593 0.169224 -0.522478
O43   O     O_2   0.705684 0.016152 0.835328 -0.531632
O44   O     O_2   0.312561 0.835894 0.120343 -0.508031
O45   O     O_R   0.306670 0.439270 0.571150 -0.631745
O46   O     O_2   0.688371 0.171847 0.891475 -0.514902
O47   O     O_2   0.914086 0.624155 0.786227 -0.588095
O48   O     O_2   0.100696 0.364605 0.195306 -0.569789
O49   O     O_2   0.038208 0.723581 0.206793 -0.538553
O50   O     O_2   0.963253 0.279905 0.793933 -0.610132
O51   O     O_2   0.472960 0.052220 0.842416 -0.512690
O52   O     O_2   0.525821 0.946330 0.157688 -0.513644
O53   O     O_2   0.488959 0.275837 0.336066 -0.553445
O54   O     O_2   0.502817 0.726378 0.664978 -0.550337
O55   O     O_3   0.320562 0.365964 0.400674 -0.658132
O56   O     O_R   0.693330 0.560730 0.428850 -0.619754
O57   O     O_3   0.678461 0.634484 0.598872 -0.637028
O58   O     O_R   0.135450 0.268370 0.694460 -0.624585
O59   O     O_R   0.864550 0.731630 0.305540 -0.618504
O60   O     O_R   0.429670 0.731610 0.863510 -0.635009
Zn1   Zn    Zn3+2 0.207400 0.586780 0.791530 0.972128
Zn2   Zn    Zn3+2 0.792600 0.413220 0.208470 0.981484
Zn3   Zn    Zn3+2 0.208510 0.413230 0.792630 1.021366
Zn4   Zn    Zn3+2 0.791490 0.586770 0.207370 1.008968
Zn5   Zn    Zn3+2 0.383150 0.586740 0.791530 1.004853
Zn6   Zn    Zn3+2 0.616850 0.413260 0.208470 0.990440
Zn7   Zn    Zn3+2 0.207400 0.413250 0.618010 1.007804
Zn8   Zn    Zn3+2 0.792600 0.586750 0.381990 1.025893

loop_
_geom_bond_atom_site_label_1
_geom_bond_atom_site_label_2
_ccdc_geom_bond_type
C110  O37   S    
C68   C80   S    
C71   H78   S    
C3    H35   S    
C7    H44   S    
C6    H42   S    
C59   H6    S    
C26   C32   S    
C39   H1    S    
C87   C91   A    
O10   Zn6   S    
C55   C57   A    
C28   H82   S    
C37   O4    A    
C17   H69   S    
C11   H57   S    
C65   C101  S    
C24   C81   S    
C25   C103  S    
C69   H67   S    
C34   C90   S    
C7    O35   S    
C20   H72   S    
C97   O41   S    
C54   C60   A    
C13   C70   S    
O56   Zn8   S    
C19   H71   S    
C4    C74   S    
C40   H12   S    
C46   C49   A    
C18   C86   S    
C112  O21   S    
C91   H3    S    
C30   C35   S    
C123  H30   S    
C48   C112  S    
C27   H79   S    
C10   H55   S    
C122  H26   S    
C14   H63   S    
C65   O23   A    
C50   O29   S    
C90   O56   A    
C84   C86   A    
C9    H51   S    
C118  H20   S    
C109  C111  S    
C120  O25   D    
C123  H29   S    
C64   H56   S    
O19   Zn2   S    
C78   C80   A    
C63   H45   S    
C122  O27   S    
C18   H70   S    
C108  O15   A    
C23   O51   D    
C2    C41   S    
C76   H86   S    
C23   H75   S    
C120  H22   S    
C16   C84   S    
C33   C36   S    
C12   O40   S    
C79   C105  S    
C9    H52   S    
C66   C100  S    
C61   C63   A    
C45   C60   S    
C62   C64   A    
C16   H68   S    
C32   C34   S    
C47   O27   S    
C37   C56   S    
C42   C114  S    
C55   H34   S    
C118  O22   D    
C49   C51   A    
C81   C114  S    
C50   C52   A    
O15   Zn8   S    
C31   C33   S    
O11   Zn3   S    
C51   O30   S    
C21   C98   S    
C96   O40   S    
C5    O32   D    
C13   C103  S    
C73   O39   S    
C13   C114  S    
C8    H47   S    
C3    O30   S    
C116  H15   S    
O12   Zn2   S    
C45   C47   A    
C39   C52   A    
C6    H41   S    
C8    O36   S    
O8    Zn4   S    
O34   Zn2   S    
C46   C58   S    
O1    Zn1   S    
C28   H81   S    
C73   C75   A    
C35   C89   S    
C11   H58   S    
C37   O59   A    
C9    O37   S    
C17   C85   S    
O9    Zn5   S    
O5    Zn1   S    
C44   C46   A    
C62   C75   A    
C47   C50   A    
C116  H14   S    
C108  O19   A    
C77   C79   A    
C39   C43   A    
C117  H17   S    
C63   C67   A    
C17   O44   D    
C31   C34   S    
C85   C87   A    
C31   O57   S    
C28   H80   S    
C122  H25   S    
C9    H50   S    
C35   C38   S    
C11   H59   S    
C72   C74   A    
C76   C82   A    
C71   C73   A    
C124  O29   S    
C3    H37   S    
C8    H49   S    
C21   O49   D    
C62   O35   S    
C15   C83   S    
C14   O41   S    
C22   O50   D    
C117  O21   S    
C27   C33   S    
C28   O55   S    
C67   C69   A    
C10   H54   S    
C108  C113  S    
C5    C75   S    
C69   C72   A    
O7    Zn3   S    
O17   Zn6   S    
C5    H39   S    
C19   O47   D    
C30   C32   S    
C1    C57   S    
C89   O9    A    
C14   H64   S    
C16   O43   D    
C119  O24   D    
C59   C111  S    
C106  O13   A    
C48   C113  S    
C121  O26   D    
C12   H62   S    
C124  H33   S    
C26   H77   S    
C100  C102  A    
C121  H24   S    
C29   H84   S    
C41   O60   A    
C111  C113  S    
C30   O55   S    
C11   O39   S    
C105  O16   A    
C81   H8    S    
C94   C96   A    
C43   C45   A    
C110  C113  S    
C107  C115  S    
C83   C96   A    
C19   C94   S    
C34   C36   S    
O59   Zn4   S    
C59   C115  S    
C83   C85   A    
C20   C95   S    
C6    H40   S    
C109  O36   S    
C40   C53   A    
C101  C104  A    
C32   C38   S    
C124  H32   S    
C2    C24   S    
C3    H36   S    
C29   O57   S    
C24   C92   S    
O1    Zn5   S    
C6    O33   S    
C55   C58   A    
O12   Zn8   S    
O16   Zn5   S    
C84   C97   A    
C106  O17   A    
C90   O10   A    
C36   H11   S    
C64   C68   A    
C4    O31   D    
C42   O2    A    
C107  O14   A    
C81   C103  S    
C77   C80   A    
C24   H10   S    
C14   H65   S    
C53   C119  S    
C7    H43   S    
C88   C93   A    
C22   C99   S    
C116  O20   S    
O1    Zn3   S    
C10   H53   S    
C13   H9    S    
O60   Zn5   S    
C15   H66   S    
O3    Zn7   S    
C70   C92   S    
O58   Zn3   S    
C76   C78   A    
C49   O28   S    
C57   C60   A    
O18   Zn1   S    
O6    Zn2   S    
O23   Zn1   S    
C79   C82   A    
C88   C102  S    
C59   C110  S    
C95   C97   A    
C107  O18   A    
C29   H85   S    
C26   O53   D    
C61   C74   A    
C119  H21   S    
C44   C121  S    
C43   C120  S    
C123  H28   S    
O1    Zn7   S    
C29   H83   S    
C31   C38   S    
C30   C36   S    
C78   C106  S    
C18   O46   D    
C122  H27   S    
C123  O28   S    
O4    Zn8   S    
C117  H18   S    
C124  H31   S    
C93   H4    S    
C66   O8    A    
C25   H76   S    
C91   C94   A    
C65   O7    A    
C25   O52   D    
C72   O38   S    
C12   H60   S    
O13   Zn4   S    
C66   O34   A    
C2    C103  S    
C68   C71   A    
C98   C104  A    
C12   H61   S    
C86   C88   A    
C21   H73   S    
C70   H7    S    
C33   C35   S    
C38   H13   S    
C56   C58   A    
C48   C109  S    
C4    H38   S    
C54   C56   A    
O12   Zn6   S    
C15   O42   D    
C48   H5    S    
C98   C100  A    
C110  C112  S    
C42   O6    A    
C1    O58   A    
C109  C115  S    
O2    Zn6   S    
O14   Zn7   S    
C87   C104  S    
C105  O11   A    
C40   C44   A    
C99   C102  A    
C10   O38   S    
C117  H19   S    
C67   C82   S    
C93   C95   A    
C41   O5    A    
C89   O45   A    
C7    H46   S    
C27   O54   D    
C111  O20   S    
C22   H74   S    
C23   C92   S    
C54   H23   S    
O12   Zn4   S    
C51   C53   A    
C2    C70   S    
C92   C114  S    
C99   C101  A    
C112  C115  S    
O45   Zn7   S    
C77   H2    S    
C8    H48   S    
C20   O48   D    
C61   O33   S    
C116  H16   S    
C1    O3    A    
C52   C118  S    
