data_mof_unit_28781.cif
_audit_creation_date              2012-12-10T18:04:42-0500
_audit_creation_method            fapswitch 2.2
_symmetry_space_group_name_H-M    P1
_symmetry_Int_Tables_number       1
_space_group_crystal_system       triclinic
_cell_length_a                    19.38832
_cell_length_b                    17.980991
_cell_length_c                    12.605967
_cell_angle_alpha                 90.400876
_cell_angle_beta                  101.464748
_cell_angle_gamma                 89.686137
_cell_volume                      4306.87776704

loop_
_atom_site_label
_atom_site_type_symbol
_atom_type_description
_atom_site_fract_x
_atom_site_fract_y
_atom_site_fract_z
_atom_type_partial_charge
C1    C     C_R   0.410677 0.102974 0.442905 0.854763
C2    C     C_R   0.755132 0.746234 0.646390 -0.045116
C3    C     C_R   0.265742 0.741102 0.639223 -0.033436
C4    C     C_R   0.255044 0.246056 0.646499 -0.045965
C5    C     C_R   0.337278 0.757562 0.653824 -0.138969
C6    C     C_R   0.327129 0.230226 0.670058 -0.221344
C7    C     C_R   0.837793 0.256905 0.653412 -0.144247
C8    C     C_R   0.827240 0.730509 0.669923 -0.220051
C9    C     C_R   0.364337 0.784792 0.568228 -0.152299
C10   C     C_R   0.361165 0.209709 0.587507 -0.112942
C11   C     C_R   0.864635 0.284462 0.567819 -0.150429
C12   C     C_R   0.407651 0.900793 0.440669 0.856013
C13   C     C_R   0.861265 0.709915 0.587382 -0.114047
C14   C     C_R   0.660184 0.208152 0.510412 0.421793
C15   C     C_R   0.658587 0.789626 0.507468 0.322279
C16   C     C_R   0.160037 0.708223 0.510152 0.422617
C17   C     C_R   0.158546 0.289564 0.507569 0.322229
C18   C     C_R   0.671853 0.177737 0.701182 -0.065092
C19   C     C_R   0.657539 0.811911 0.697742 0.008702
C20   C     C_R   0.171169 0.678522 0.701058 -0.069368
C21   C     C_R   0.157621 0.312031 0.697859 0.009326
C22   C     C_R   0.344064 0.855887 0.399396 -0.197063
C23   C     C_R   0.910692 0.602985 0.442906 0.854821
C24   C     C_R   0.354646 0.158469 0.405056 -0.207121
C25   C     C_R   0.844053 0.355941 0.399375 -0.196829
C26   C     C_R   0.854707 0.658520 0.405024 -0.207035
C27   C     C_R   0.648395 0.998638 0.144241 0.346317
C28   C     C_R   0.148414 0.499042 0.144231 0.346857
C29   C     C_R   0.377915 0.992772 0.764242 0.093732
C30   C     C_R   0.877884 0.492589 0.764108 0.110415
C31   C     C_R   0.357835 0.959340 0.853059 0.042357
C32   C     C_R   0.857769 0.458389 0.852909 0.047568
C33   C     C_R   0.587368 0.895508 0.555640 0.903569
C34   C     C_R   0.907643 0.400818 0.440657 0.856205
C35   C     C_R   0.588815 0.103401 0.557200 0.875804
C36   C     C_R   0.087390 0.395527 0.555664 0.903653
C37   C     C_R   0.088740 0.603470 0.557149 0.876365
C38   C     C_R   0.409372 0.942362 0.942968 0.547083
C39   C     C_R   0.909766 0.441812 0.942821 0.527704
C40   C     C_R   0.478332 0.970543 0.949271 -0.115166
C41   C     C_R   0.978465 0.470615 0.949143 -0.102445
C42   C     C_R   0.498341 0.988746 0.852424 0.109442
C43   C     C_R   0.998387 0.488864 0.852350 0.105843
C44   C     C_R   0.527367 0.981853 0.046566 -0.140231
C45   C     C_R   0.722566 0.249699 0.535969 0.017486
C46   C     C_R   0.027448 0.482076 0.046475 -0.140694
C47   C     C_R   0.600119 0.989552 0.045035 -0.048470
C48   C     C_R   0.100175 0.489977 0.044980 -0.050347
C49   C     C_R   0.621478 0.988699 0.944564 0.416246
C50   C     C_R   0.121537 0.489249 0.944499 0.416164
C51   C     C_R   0.569691 0.992329 0.849649 -0.304032
C52   C     C_R   0.069734 0.492662 0.849563 -0.304199
C53   C     C_R   0.504748 0.994069 0.143730 0.460991
C54   C     C_R   0.004779 0.494121 0.143662 0.463085
C55   C     C_R   0.622890 0.999795 0.240298 0.166338
C56   C     C_R   0.718866 0.744794 0.537045 0.013210
C57   C     C_R   0.122895 0.499953 0.240296 0.166099
C58   C     C_R   0.738539 0.211693 0.724516 0.454632
C59   C     C_R   0.719575 0.770290 0.727785 0.405635
C60   C     C_R   0.237744 0.712724 0.724605 0.464197
C61   C     C_R   0.219547 0.270236 0.727889 0.403895
C62   C     C_R   0.638521 0.165551 0.591546 -0.295998
C63   C     C_R   0.633484 0.830585 0.587934 -0.268265
C64   C     C_R   0.138242 0.665812 0.591364 -0.296457
C65   C     C_R   0.133517 0.330617 0.588019 -0.268212
C66   C     C_R   0.297992 0.875763 0.301413 -0.090417
C67   C     C_R   0.222295 0.749947 0.535821 0.016177
C68   C     C_R   0.319084 0.159935 0.295331 -0.123859
C69   C     C_R   0.797843 0.376036 0.301638 -0.091884
C70   C     C_R   0.819155 0.659969 0.295294 -0.124514
C71   C     C_R   0.225514 0.861066 0.286983 0.386798
C72   C     C_R   0.245123 0.167577 0.272397 0.491099
C73   C     C_R   0.725359 0.361440 0.287521 0.386102
C74   C     C_R   0.745198 0.667623 0.272346 0.491213
C75   C     C_R   0.199191 0.829350 0.372148 0.464622
C76   C     C_R   0.210270 0.181668 0.357202 0.476712
C77   C     C_R   0.699203 0.329559 0.372738 0.464779
C78   C     C_R   0.218789 0.244671 0.537143 0.013063
C79   C     C_R   0.710346 0.681744 0.357142 0.476617
C80   C     C_R   0.246139 0.794579 0.458267 0.001530
C81   C     C_R   0.249361 0.206863 0.458778 -0.095523
C82   C     C_R   0.746266 0.294534 0.458481 0.001370
C83   C     C_R   0.749441 0.706977 0.458697 -0.095311
C84   C     C_R   0.318869 0.809927 0.473434 -0.021465
C85   C     C_R   0.322290 0.192577 0.483442 0.016779
C86   C     C_R   0.818995 0.309820 0.473348 -0.020740
C87   C     C_R   0.822371 0.692696 0.483367 0.017065
C88   C     C_R   0.766266 0.240457 0.639108 -0.029035
H1    H     H_    0.586007 0.997148 0.774368 0.208927
H2    H     H_    0.918054 0.704415 0.606524 0.157054
H3    H     H_    0.588633 0.166191 0.775709 0.227500
H4    H     H_    0.649438 0.095244 0.792388 0.201746
H5    H     H_    0.654771 0.860483 0.841542 0.256252
H6    H     H_    0.600753 0.787413 0.810370 0.221498
H7    H     H_    0.087491 0.667412 0.774689 0.228061
H8    H     H_    0.148422 0.596610 0.793105 0.201760
H9    H     H_    0.155242 0.361135 0.841414 0.256283
H10   H     H_    0.101087 0.288076 0.811044 0.220688
H11   H     H_    0.697446 0.983874 0.863397 0.323876
H12   H     H_    0.086068 0.497455 0.774279 0.209390
H13   H     H_    0.197512 0.484988 0.863307 0.323772
H14   H     H_    0.724651 0.052036 0.105827 0.376364
H15   H     H_    0.224587 0.552661 0.105951 0.376784
H16   H     H_    0.430212 0.009443 0.218259 0.365854
H17   H     H_    0.930197 0.509366 0.218143 0.365092
H18   H     H_    0.329985 0.073405 0.665485 0.219766
H19   H     H_    0.327149 0.987825 0.605860 0.243626
H20   H     H_    0.830899 0.574344 0.666636 0.220553
H21   H     H_    0.827598 0.489217 0.605373 0.242123
H22   H     H_    0.436344 0.871599 0.059096 0.336978
H23   H     H_    0.373139 0.745888 0.729442 0.203638
H24   H     H_    0.937465 0.371265 0.059178 0.339456
H25   H     H_    0.255331 0.987488 0.838677 0.199544
H26   H     H_    0.269701 0.903681 0.784688 0.214372
H27   H     H_    0.751673 0.456901 0.783822 0.203628
H28   H     H_    0.783808 0.379233 0.848046 0.243283
H29   H     H_    0.754579 0.190713 0.880251 0.373816
H30   H     H_    0.776265 0.713023 0.843814 0.338992
H31   H     H_    0.253289 0.692515 0.880498 0.373497
H32   H     H_    0.276086 0.212864 0.843933 0.336007
H33   H     H_    0.575047 0.203269 0.401547 0.355699
H34   H     H_    0.358519 0.238623 0.750364 0.170435
H35   H     H_    0.578517 0.799086 0.390645 0.352868
H36   H     H_    0.075132 0.703052 0.400886 0.355878
H37   H     H_    0.078458 0.299036 0.390785 0.352669
H38   H     H_    0.365901 0.896099 0.204054 0.280581
H39   H     H_    0.332156 0.973556 0.257823 0.194539
H40   H     H_    0.409509 0.164427 0.233120 0.247335
H41   H     H_    0.348558 0.099656 0.176455 0.226200
H42   H     H_    0.865507 0.396382 0.203858 0.281177
H43   H     H_    0.832136 0.473827 0.258206 0.195128
H44   H     H_    0.909590 0.664453 0.233111 0.247022
H45   H     H_    0.873816 0.245001 0.728788 0.202118
H46   H     H_    0.848653 0.599669 0.176457 0.227956
H47   H     H_    0.604364 0.370269 0.320312 0.389527
H48   H     H_    0.626277 0.657251 0.410593 0.323726
H49   H     H_    0.104335 0.869811 0.319013 0.389450
H50   H     H_    0.126190 0.157179 0.410631 0.323468
H51   H     H_    0.203560 0.896427 0.137236 0.383590
H52   H     H_    0.234966 0.147750 0.117066 0.352764
H53   H     H_    0.703129 0.397189 0.137983 0.383056
H54   H     H_    0.735047 0.647750 0.117032 0.354975
H55   H     H_    0.704476 0.957740 0.348519 0.226950
H56   H     H_    0.858634 0.738958 0.750213 0.170484
H57   H     H_    0.700958 0.051875 0.343961 0.214911
H58   H     H_    0.204536 0.457878 0.348386 0.226759
H59   H     H_    0.200890 0.552014 0.344124 0.215384
H60   H     H_    0.420898 0.790848 0.579821 0.156626
H61   H     H_    0.417956 0.204241 0.606667 0.157067
H62   H     H_    0.921182 0.290569 0.579172 0.155738
N1    N     N_R   0.552340 1.000000 0.237260 -0.181367
N2    N     N_3   0.824421 0.517520 0.676335 -0.465492
N3    N     N_3   0.286137 0.939226 0.850810 -0.362399
N4    N     N_3   0.786175 0.437284 0.852301 -0.386055
N5    N     N_3   0.321207 0.920984 0.223168 -0.400028
N6    N     N_3   0.355921 0.153433 0.207663 -0.423872
N7    N     N_3   0.820962 0.421338 0.223382 -0.400323
N8    N     N_3   0.856004 0.653452 0.207642 -0.422472
N9    N     N_3   0.670723 0.003748 0.342373 -0.341187
N10   N     N_3   0.170720 0.503827 0.342384 -0.341010
N11   N     N_R   0.052340 0.500000 0.237260 -0.182272
N12   N     N_R   0.448170 0.000000 0.762060 -0.134586
N13   N     N_R   0.948170 0.500000 0.762060 -0.138454
N14   N     N_3   0.642055 0.152255 0.788989 -0.445697
N15   N     N_3   0.619491 0.835110 0.778694 -0.408767
N16   N     N_3   0.140956 0.653594 0.788762 -0.444447
N17   N     N_3   0.119807 0.335604 0.778911 -0.409088
N18   N     N_3   0.323964 0.016635 0.676406 -0.468465
O1    O     O_R   0.448200 0.076800 0.373930 -0.646088
O2    O     O_R   0.585240 0.076800 0.457600 -0.556496
O3    O     O_R   0.085240 0.423200 0.457600 -0.560117
O4    O     O_R   0.085240 0.576800 0.457600 -0.556661
O5    O     O_R   0.551780 0.923190 0.626070 -0.606626
O6    O     O_R   0.551780 0.076810 0.626070 -0.641004
O7    O     O_R   0.051780 0.423190 0.626070 -0.606597
O8    O     O_R   0.051780 0.576810 0.626070 -0.640931
O9    O     O_3   0.692127 0.986353 0.939949 -0.728886
O10   O     O_3   0.192190 0.487209 0.939873 -0.729046
O11   O     O_3   0.719490 0.008010 0.150472 -0.698183
O12   O     O_R   0.448200 0.923200 0.373930 -0.637081
O13   O     O_3   0.219495 0.508573 0.150513 -0.698076
O14   O     O_3   0.434976 0.005964 0.142727 -0.785375
O15   O     O_3   0.934975 0.505846 0.142611 -0.780030
O16   O     O_3   0.392253 0.893814 0.017841 -0.706446
O17   O     O_3   0.893192 0.393260 0.018171 -0.723536
O18   O     O_3   0.778837 0.215536 0.828324 -0.762182
O19   O     O_3   0.744928 0.757161 0.836476 -0.743691
O20   O     O_3   0.277625 0.717299 0.828631 -0.745416
O21   O     O_3   0.244902 0.257124 0.836584 -0.745376
O22   O     O_3   0.626470 0.201720 0.403456 -0.704782
O23   O     O_R   0.948200 0.576800 0.373930 -0.646319
O24   O     O_3   0.630512 0.800506 0.399252 -0.699332
O25   O     O_3   0.126590 0.701467 0.403112 -0.704777
O26   O     O_3   0.130451 0.300422 0.399357 -0.699329
O27   O     O_3   0.629335 0.338900 0.380182 -0.736778
O28   O     O_3   0.639339 0.665915 0.339549 -0.672719
O29   O     O_3   0.129238 0.838617 0.379145 -0.736885
O30   O     O_3   0.139261 0.165845 0.339593 -0.673203
O31   O     O_3   0.178222 0.883120 0.195207 -0.746216
O32   O     O_3   0.204547 0.157768 0.169910 -0.680173
O33   O     O_3   0.677921 0.383734 0.196044 -0.746111
O34   O     O_R   0.948200 0.423200 0.373930 -0.636877
O35   O     O_3   0.704625 0.657793 0.169863 -0.678185
O36   O     O_R   0.414750 0.076790 0.542400 -0.622134
O37   O     O_R   0.414750 0.923210 0.542400 -0.614016
O38   O     O_R   0.914750 0.576790 0.542400 -0.623084
O39   O     O_R   0.914750 0.423210 0.542400 -0.614489
O40   O     O_R   0.585240 0.923200 0.457600 -0.560293
Zn1   Zn    Zn3+2 0.522330 1.000000 0.387520 0.963100
Zn2   Zn    Zn3+2 0.022330 0.500000 0.387520 0.963074
Zn3   Zn    Zn3+2 0.477660 0.000000 0.612480 0.915704
Zn4   Zn    Zn3+2 0.977660 0.500000 0.612480 0.914650

loop_
_geom_bond_atom_site_label_1
_geom_bond_atom_site_label_2
_ccdc_geom_bond_type
C83   C87   A    
C15   O24   S    
C76   O30   S    
C10   C85   A    
C8    C13   A    
C13   H2    S    
C58   O18   S    
C9    C84   A    
H16   O14   S    
C45   C82   A    
C80   C84   A    
C37   O4    A    
C23   O23   A    
C39   C41   A    
C28   C57   A    
C7    C11   A    
C77   O27   S    
H42   N7    S    
C39   O17   S    
H37   O26   S    
C29   N18   S    
C50   O10   S    
H53   O33   S    
H11   O9    S    
O4    Zn2   S    
H29   O18   S    
C10   H61   S    
C66   N5    S    
H57   N9    S    
H51   O31   S    
C43   C52   A    
C23   C26   S    
H58   N10   S    
N12   Zn3   S    
O37   Zn3   S    
C11   C86   A    
C14   C62   A    
C12   C22   S    
C38   O16   S    
C4    C78   A    
C32   C39   A    
C1    O1    A    
H43   N7    S    
H31   O20   S    
C22   C66   A    
C16   O25   S    
H20   N2    S    
C18   N14   S    
C44   C53   A    
C18   C58   A    
C7    C88   A    
C19   C63   A    
O40   Zn1   S    
C49   C51   A    
H36   O25   S    
C70   C74   A    
C50   C52   A    
C41   C46   A    
C59   O19   S    
H13   O10   S    
C20   C60   A    
C33   O5    A    
C24   C85   A    
H26   N3    S    
H28   N4    S    
H10   N17   S    
C44   C47   A    
C68   C72   A    
C42   C51   A    
C3    C60   A    
H4    N14   S    
C40   C42   A    
H22   O16   S    
C60   O20   S    
C61   O21   S    
H14   O11   S    
C41   C43   A    
C13   C87   A    
C17   O26   S    
O5    Zn3   S    
C30   N13   A    
O34   Zn2   S    
H59   N10   S    
H6    N15   S    
C31   N3    S    
C14   C45   A    
C49   O9    S    
C75   O29   S    
H54   O35   S    
C46   C48   A    
C71   C75   A    
O6    Zn3   S    
C30   C32   A    
H21   N2    S    
C47   C49   A    
H39   N5    S    
H33   O22   S    
O3    Zn2   S    
C24   C68   A    
C2    C59   A    
C26   C87   A    
C5    H23   S    
C3    C5    A    
C82   C86   A    
C73   O33   S    
C4    C61   A    
C52   H12   S    
H44   N8    S    
C79   O28   S    
O8    Zn4   S    
C70   N8    S    
H18   N18   S    
C20   C64   A    
C28   O13   S    
C5    C9    A    
C7    H45   S    
C72   O32   S    
C11   H62   S    
C30   N2    S    
C66   C71   A    
C79   C83   A    
C33   C63   S    
O1    Zn1   S    
C46   C54   A    
C72   C76   A    
C8    H56   S    
C16   C67   A    
O7    Zn4   S    
H17   O15   S    
C69   C73   A    
C48   C50   A    
H47   O27   S    
C69   N7    S    
C1    C24   S    
C32   N4    S    
C45   C88   A    
H50   O30   S    
C4    C6    A    
C12   O12   A    
C57   N10   S    
H49   O29   S    
C74   C79   A    
C23   O38   A    
O39   Zn4   S    
C26   C70   A    
H8    N16   S    
H3    N14   S    
C25   C69   A    
C6    H34   S    
H7    N16   S    
H24   O17   S    
C37   C64   S    
C56   C83   A    
C75   C80   A    
C27   C47   A    
C55   N1    A    
H19   N18   S    
C28   C48   A    
C36   O3    A    
C73   C77   A    
N1    Zn1   S    
C21   C65   A    
H15   O13   S    
C35   O6    A    
C21   C61   A    
C29   N12   A    
C18   C62   A    
C67   C80   A    
C33   O40   A    
H25   N3    S    
C68   N6    S    
C58   C88   A    
C76   C81   A    
C6    C10   A    
H41   N6    S    
H30   O19   S    
C42   N12   A    
H48   O28   S    
C71   O31   S    
C34   O39   A    
C20   N16   S    
N11   Zn2   S    
C25   C34   S    
C9    H60   S    
C17   C65   A    
C21   N17   S    
C31   C38   A    
C19   C59   A    
C12   O37   A    
C36   C65   S    
H52   O32   S    
H27   N4    S    
H9    N17   S    
H32   O21   S    
H38   N5    S    
C37   O8    A    
C38   C40   A    
C78   C81   A    
C25   C86   A    
O2    Zn1   S    
C3    C67   A    
C77   C82   A    
C34   O34   A    
C19   N15   S    
O36   Zn3   S    
C55   N9    S    
C17   C78   A    
C51   H1    S    
C35   C62   S    
C27   C55   A    
H55   N9    S    
H46   N8    S    
C54   N11   A    
C27   O11   S    
O12   Zn1   S    
C15   C56   A    
H40   N6    S    
O23   Zn2   S    
H5    N15   S    
C14   O22   S    
O38   Zn4   S    
C40   C44   A    
N13   Zn4   S    
C57   N11   A    
C36   O7    A    
C29   C31   A    
C74   O35   S    
C2    C8    A    
C53   N1    A    
C35   O2    A    
C15   C63   A    
C54   O15   S    
C2    C56   A    
C16   C64   A    
H35   O24   S    
C53   O14   S    
C1    O36   A    
C81   C85   A    
C22   C84   A    
C43   N13   A    
