data_mof_unit_51081.cif
_audit_creation_date              2013-03-05T15:50:12-0500
_audit_creation_method            fapswitch 2.2
_symmetry_space_group_name_H-M    P1
_symmetry_Int_Tables_number       1
_space_group_crystal_system       triclinic
_cell_length_a                    18.333058
_cell_length_b                    25.741507
_cell_length_c                    18.289221
_cell_angle_alpha                 90.312632
_cell_angle_beta                  89.961665
_cell_angle_gamma                 89.788858
_cell_volume                      8630.86992588

loop_
_atom_site_label
_atom_site_type_symbol
_atom_site_description
_atom_site_fract_x
_atom_site_fract_y
_atom_site_fract_z
_atom_type_partial_charge
Zn1   Zn    Zn3+2 0.249990 0.293780 0.913250 0.999432
Zn2   Zn    Zn3+2 0.249990 0.706220 0.086750 0.985752
Zn3   Zn    Zn3+2 0.249990 0.706220 0.913250 0.988096
Zn4   Zn    Zn3+2 0.249990 0.293780 0.086750 0.991500
Zn5   Zn    Zn3+2 0.749990 0.793780 0.413250 0.986577
Zn6   Zn    Zn3+2 0.749990 0.206220 0.586750 0.987790
Zn7   Zn    Zn3+2 0.749990 0.206220 0.413250 0.977246
Zn8   Zn    Zn3+2 0.749990 0.793780 0.586750 0.999343
Zn9   Zn    Zn3+2 0.336760 0.206240 0.000000 0.963204
Zn10  Zn    Zn3+2 0.336760 0.793760 0.000000 0.970209
Zn11  Zn    Zn3+2 0.836760 0.706240 0.500000 0.980034
Zn12  Zn    Zn3+2 0.836760 0.293760 0.500000 0.966360
Zn13  Zn    Zn3+2 0.163250 0.206230 0.000000 0.974603
Zn14  Zn    Zn3+2 0.163250 0.793770 0.000000 0.959384
Zn15  Zn    Zn3+2 0.663250 0.706230 0.500000 0.964451
Zn16  Zn    Zn3+2 0.663250 0.293770 0.500000 0.960525
O1    O     O_3   0.249990 0.250010 0.000000 -0.494052
O2    O     O_3   0.249990 0.749990 0.000000 -0.486101
O3    O     O_3   0.749990 0.750010 0.500000 -0.488719
O4    O     O_3   0.749990 0.249990 0.500000 -0.490119
O5    O     O_R   0.335430 0.280650 0.146160 -0.634086
O6    O     O_R   0.335430 0.719350 0.853840 -0.630987
O7    O     O_R   0.335430 0.719350 0.146160 -0.625450
O8    O     O_R   0.335430 0.280650 0.853840 -0.628232
O9    O     O_R   0.835430 0.780650 0.646160 -0.627874
O10   O     O_R   0.835430 0.219350 0.353840 -0.614470
O11   O     O_R   0.835430 0.219350 0.646160 -0.610434
O12   O     O_R   0.835430 0.780650 0.353840 -0.622701
O13   O     O_R   0.164550 0.280640 0.853840 -0.629266
O14   O     O_R   0.164550 0.719360 0.146160 -0.638208
O15   O     O_R   0.164550 0.719360 0.853840 -0.649088
O16   O     O_R   0.164550 0.280640 0.146160 -0.628547
O17   O     O_R   0.664550 0.780640 0.353840 -0.637088
O18   O     O_R   0.664550 0.219360 0.646160 -0.621196
O19   O     O_R   0.664550 0.219360 0.353840 -0.643519
O20   O     O_R   0.664550 0.780640 0.646160 -0.645654
O21   O     O_R   0.396160 0.219380 0.914560 -0.659763
O22   O     O_R   0.396160 0.780620 0.085440 -0.667608
O23   O     O_R   0.396160 0.780620 0.914560 -0.642170
O24   O     O_R   0.396160 0.219380 0.085440 -0.655575
O25   O     O_R   0.896160 0.719380 0.414560 -0.668910
O26   O     O_R   0.896160 0.280620 0.585440 -0.653048
O27   O     O_R   0.896160 0.280620 0.414560 -0.642046
O28   O     O_R   0.896160 0.719380 0.585440 -0.637934
O29   O     O_R   0.103840 0.219370 0.085450 -0.636127
O30   O     O_R   0.103840 0.780630 0.914550 -0.644196
O31   O     O_R   0.103840 0.780630 0.085450 -0.652393
O32   O     O_R   0.103840 0.219370 0.914550 -0.634878
O33   O     O_R   0.603840 0.719370 0.585450 -0.639601
O34   O     O_R   0.603840 0.280630 0.414550 -0.658749
O35   O     O_R   0.603840 0.280630 0.585450 -0.646513
O36   O     O_R   0.603840 0.719370 0.414550 -0.657444
O37   O     O_R   0.310730 0.133160 0.000000 -0.634258
O38   O     O_R   0.310730 0.866840 0.000000 -0.635266
O39   O     O_R   0.810730 0.633160 0.500000 -0.640658
O40   O     O_R   0.810730 0.366840 0.500000 -0.643639
O41   O     O_R   0.249970 0.366860 0.060720 -0.632490
O42   O     O_R   0.249970 0.633140 0.939280 -0.614100
O43   O     O_R   0.249970 0.633140 0.060720 -0.651074
O44   O     O_R   0.249970 0.366860 0.939280 -0.636414
O45   O     O_R   0.749970 0.866860 0.560720 -0.617008
O46   O     O_R   0.749970 0.133140 0.439280 -0.629578
O47   O     O_R   0.749970 0.133140 0.560720 -0.659790
O48   O     O_R   0.749970 0.866860 0.439280 -0.648298
O49   O     O_R   0.189290 0.133150 0.000000 -0.633501
O50   O     O_R   0.189290 0.866850 0.000000 -0.633274
O51   O     O_R   0.689290 0.633150 0.500000 -0.631696
O52   O     O_R   0.689290 0.366850 0.500000 -0.630960
C1    C     C_R   0.393781 0.253138 0.136483 0.788703
C2    C     C_R   0.393823 0.745370 0.863940 0.799956
C3    C     C_R   0.393672 0.746922 0.136452 0.857370
C4    C     C_R   0.393769 0.253915 0.863897 0.852794
C5    C     C_R   0.893739 0.754463 0.636259 0.831465
C6    C     C_R   0.890474 0.249045 0.360745 0.764781
C7    C     C_R   0.889011 0.250794 0.640662 0.761142
C8    C     C_R   0.893694 0.752979 0.363494 0.860085
C9    C     C_R   0.110195 0.250039 0.860190 0.772229
C10   C     C_R   0.106357 0.746813 0.136670 0.798324
C11   C     C_R   0.107276 0.746861 0.861882 0.785984
C12   C     C_R   0.110135 0.250256 0.139826 0.776034
C13   C     C_R   0.606475 0.753059 0.363147 0.792880
C14   C     C_R   0.606775 0.246759 0.637327 0.851976
C15   C     C_R   0.606393 0.246943 0.363026 0.785428
C16   C     C_R   0.607273 0.753130 0.638150 0.800408
C17   C     C_R   0.250140 0.109409 0.000214 0.793519
C18   C     C_R   0.249889 0.890596 0.000075 0.801853
C19   C     C_R   0.750100 0.609409 0.499846 0.797629
C20   C     C_R   0.749961 0.390628 0.500355 0.798991
C21   C     C_R   0.249229 0.391348 0.000234 0.762664
C22   C     C_R   0.249315 0.608640 0.999986 0.757182
C23   C     C_R   0.749579 0.891375 0.500012 0.752028
C24   C     C_R   0.749480 0.108663 0.499769 0.777227
C25   C     C_3   0.231964 0.470534 0.078461 -0.339358
C26   C     C_3   0.189511 0.529913 0.947341 -0.381203
C27   C     C_3   0.231696 0.530173 0.078233 -0.367761
C28   C     C_3   0.189181 0.469934 0.947804 -0.385710
C29   C     C_3   0.685594 0.970406 0.547353 -0.378643
C30   C     C_3   0.740018 0.029574 0.420312 -0.373785
C31   C     C_3   0.684997 0.030416 0.546443 -0.408317
C32   C     C_3   0.739080 0.969985 0.420621 -0.361865
H1    H     H_    0.273929 0.456705 0.117751 0.262753
H2    H     H_    0.200259 0.543630 0.890745 0.218267
H3    H     H_    0.273243 0.544318 0.117803 0.228078
H4    H     H_    0.199256 0.455297 0.891297 0.215397
H5    H     H_    0.691596 0.956798 0.604710 0.208073
H6    H     H_    0.785751 0.043065 0.385184 0.222047
H7    H     H_    0.689435 0.045291 0.603520 0.189948
H8    H     H_    0.783627 0.955374 0.384720 0.213549
H9    H     H_    0.178063 0.456217 0.097685 0.175280
H10   H     H_    0.134833 0.544864 0.963781 0.151621
H11   H     H_    0.177550 0.544751 0.097029 0.172074
H12   H     H_    0.134483 0.455818 0.964906 0.158011
H13   H     H_    0.632583 0.955522 0.526472 0.149341
H14   H     H_    0.688330 0.044296 0.395942 0.162895
H15   H     H_    0.632146 0.044558 0.524035 0.153430
H16   H     H_    0.686555 0.955976 0.397344 0.176610
H17   H     H_    0.252342 0.904386 0.137811 0.121582
H18   H     H_    0.253725 0.096590 0.137993 0.114266
H19   H     H_    0.694975 0.403599 0.373320 0.133891
H20   H     H_    0.695023 0.595479 0.372882 0.137022
H21   H     H_    0.367339 0.454997 0.013191 0.204505
H22   H     H_    0.337996 0.543721 0.920788 0.223436
H23   H     H_    0.367148 0.543967 0.014292 0.178937
H24   H     H_    0.336763 0.455295 0.920117 0.192435
H25   H     H_    0.831298 0.955758 0.586567 0.228246
H26   H     H_    0.868618 0.044556 0.498486 0.223796
H27   H     H_    0.829106 0.044210 0.588167 0.193547
H28   H     H_    0.868369 0.955702 0.495900 0.178340
C33   C     C_3   0.323908 0.469655 0.976060 -0.362446
C34   C     C_3   0.324140 0.529624 0.976360 -0.385561
C35   C     C_3   0.822218 0.970063 0.530155 -0.394561
C36   C     C_3   0.821762 0.030029 0.531048 -0.366316
C37   C     C_3   0.248529 0.449067 0.000676 0.137376
C38   C     C_3   0.248630 0.550899 0.000358 0.154589
C39   C     C_3   0.749099 0.949140 0.499646 0.164479
C40   C     C_3   0.749050 0.050969 0.499337 0.172638
H29   H     H_    0.896297 0.327047 0.968199 0.136091
H30   H     H_    0.896715 0.865061 0.078887 0.133755
H31   H     H_    0.884639 0.831742 0.949060 0.129516
H32   H     H_    0.171079 0.113515 0.307154 0.126803
H33   H     H_    0.400371 0.632649 0.419922 0.133235
H34   H     H_    0.383282 0.342434 0.562021 0.132515
H35   H     H_    0.401339 0.369651 0.419951 0.135679
H36   H     H_    0.386931 0.664980 0.553013 0.129813
C41   C     C_R   0.138863 0.211883 0.716148 -0.115571
C42   C     C_R   0.089882 0.660436 0.242754 -0.109424
C43   C     C_R   0.114589 0.677847 0.727079 -0.110810
C44   C     C_R   0.992726 0.323285 0.137938 -0.151630
C45   C     C_R   0.588843 0.839278 0.257071 -0.108118
C46   C     C_R   0.605415 0.170417 0.761666 -0.089650
C47   C     C_R   0.588998 0.160523 0.256219 -0.127079
C48   C     C_R   0.613241 0.822418 0.772524 -0.110396
C49   C     C_R   0.153917 0.193199 0.646172 -0.107254
C50   C     C_R   0.103656 0.630577 0.304486 -0.114977
C51   C     C_R   0.133884 0.660755 0.657236 -0.147387
C52   C     C_R   0.935639 0.359077 0.136003 -0.149546
C53   C     C_R   0.602225 0.869248 0.195414 -0.118827
C54   C     C_R   0.623704 0.148836 0.828962 -0.125057
C55   C     C_R   0.602287 0.130201 0.194337 -0.139537
C56   C     C_R   0.632315 0.839795 0.842217 -0.142936
C57   C     C_R   0.576570 0.852934 0.127786 -0.171894
C58   C     C_R   0.594147 0.169372 0.892782 -0.147150
C59   C     C_R   0.576661 0.146392 0.126809 -0.152809
C60   C     C_R   0.599811 0.818088 0.903316 -0.154771
C61   C     C_R   0.099784 0.193257 0.593293 -0.127549
C62   C     C_R   0.077661 0.646898 0.372087 -0.170755
C63   C     C_R   0.100739 0.682405 0.596372 -0.152721
C64   C     C_R   0.882394 0.358581 0.190010 -0.135049
C65   C     C_R   0.532287 0.809175 0.122917 -0.107743
C66   C     C_R   0.541477 0.208328 0.888736 -0.095638
C67   C     C_R   0.532453 0.190392 0.122262 -0.121842
C68   C     C_R   0.543805 0.782272 0.894483 -0.109702
C69   C     C_R   0.030499 0.212124 0.610162 -0.125341
C70   C     C_R   0.032747 0.690573 0.376882 -0.111213
C71   C     C_R   0.044003 0.717890 0.605586 -0.118545
C72   C     C_R   0.885900 0.322182 0.246020 -0.140954
C73   C     C_R   0.512306 0.780964 0.186236 0.061899
C74   C     C_R   0.518059 0.227740 0.820365 0.073976
C75   C     C_R   0.512486 0.218943 0.185797 0.096028
C76   C     C_R   0.520154 0.767041 0.823946 0.097278
C77   C     C_R   0.013959 0.232574 0.680623 0.079628
C78   C     C_R   0.012518 0.718710 0.313516 0.062513
C79   C     C_R   0.020199 0.732841 0.676285 0.100418
C80   C     C_R   0.943470 0.285159 0.249227 0.085226
C81   C     C_R   0.069004 0.232203 0.734213 0.053465
C82   C     C_R   0.049716 0.707509 0.247862 0.063338
C83   C     C_R   0.062069 0.717951 0.737414 0.083777
C84   C     C_R   0.997538 0.285989 0.194534 0.075532
C85   C     C_R   0.549367 0.792126 0.251861 0.062071
C86   C     C_R   0.557659 0.213816 0.757149 0.097635
C87   C     C_R   0.549477 0.207828 0.251361 0.076239
C88   C     C_R   0.561582 0.781993 0.762596 0.075604
C89   C     C_R   0.457657 0.741818 0.185823 -0.138011
C90   C     C_R   0.456866 0.260936 0.813901 -0.139100
C91   C     C_R   0.457850 0.258356 0.185629 -0.223085
C92   C     C_R   0.456817 0.736798 0.813835 -0.226116
C93   C     C_R   0.943751 0.252666 0.698107 -0.145107
C94   C     C_R   0.957497 0.757848 0.313886 -0.137601
C95   C     C_R   0.956314 0.762783 0.686762 -0.220288
C96   C     C_R   0.947088 0.247318 0.305230 -0.141769
C97   C     C_R   0.455242 0.705145 0.243242 0.035499
C98   C     C_R   0.448615 0.291770 0.750255 0.052809
C99   C     C_R   0.455260 0.295184 0.243327 -0.052116
C100  C     C_R   0.447628 0.708626 0.747176 -0.036201
C101  C     C_R   0.927625 0.274133 0.769050 -0.033626
C102  C     C_R   0.954387 0.794226 0.256110 0.032689
C103  C     C_R   0.946373 0.790423 0.753936 -0.037009
C104  C     C_R   0.004352 0.209199 0.307483 -0.030192
C105  C     C_R   0.983590 0.271744 0.822728 0.088171
C106  C     C_R   0.989053 0.781414 0.189684 0.045541
C107  C     C_R   0.984472 0.772497 0.815638 0.096238
C108  C     C_R   0.059443 0.212021 0.253012 0.082173
C109  C     C_R   0.489914 0.717807 0.309670 0.044410
C110  C     C_R   0.485687 0.276247 0.686316 0.047694
C111  C     C_R   0.490008 0.282731 0.309664 0.084811
C112  C     C_R   0.485166 0.726466 0.685122 0.089858
C113  C     C_R   0.053131 0.251082 0.804842 -0.130567
C114  C     C_R   0.044684 0.742832 0.189002 -0.199144
C115  C     C_R   0.048418 0.742427 0.806288 -0.198817
C116  C     C_R   0.055006 0.249666 0.197080 -0.131823
C117  C     C_R   0.544875 0.756706 0.310586 -0.198432
C118  C     C_R   0.546826 0.242639 0.691764 -0.198750
C119  C     C_R   0.544892 0.243467 0.310364 -0.204073
C120  C     C_R   0.548346 0.757253 0.693915 -0.202133
C121  C     C_R   0.418096 0.656497 0.237287 0.038685
C122  C     C_R   0.404010 0.337400 0.747508 0.038393
C123  C     C_R   0.419268 0.344288 0.237219 0.030713
C124  C     C_R   0.403361 0.663150 0.739387 -0.000903
C125  C     C_R   0.858705 0.298017 0.789409 -0.069583
C126  C     C_R   0.916472 0.842725 0.261661 0.042922
C127  C     C_R   0.900874 0.835449 0.762716 -0.004445
C128  C     C_R   0.009189 0.167973 0.360785 -0.046618
C129  C     C_R   0.394942 0.631454 0.302118 -0.025260
C130  C     C_R   0.376749 0.353976 0.678872 -0.046574
C131  C     C_R   0.396353 0.370175 0.302072 0.035050
C132  C     C_R   0.382034 0.646706 0.667992 0.023563
C133  C     C_R   0.848162 0.317547 0.861681 0.023952
C134  C     C_R   0.891810 0.866905 0.196714 -0.016027
C135  C     C_R   0.879055 0.850992 0.834452 0.025751
C136  C     C_R   0.070554 0.133983 0.361146 0.026634
C137  C     C_R   0.903527 0.312444 0.912929 -0.250092
C138  C     C_R   0.915644 0.847662 0.129275 -0.251264
C139  C     C_R   0.903001 0.822181 0.894279 -0.268133
C140  C     C_R   0.124053 0.139123 0.307801 -0.261995
C141  C     C_R   0.418470 0.650566 0.369621 -0.252916
C142  C     C_R   0.403852 0.330902 0.615078 -0.240580
C143  C     C_R   0.419549 0.351327 0.369621 -0.298422
C144  C     C_R   0.405052 0.675229 0.607586 -0.271056
C145  C     C_R   0.969921 0.290854 0.893954 -0.137051
C146  C     C_R   0.965088 0.806639 0.125678 -0.119064
C147  C     C_R   0.956970 0.784776 0.885512 -0.099128
C148  C     C_R   0.118562 0.176792 0.254566 -0.131039
C149  C     C_R   0.466523 0.692133 0.373474 -0.120704
C150  C     C_R   0.459088 0.293867 0.618465 -0.117746
C151  C     C_R   0.467061 0.309226 0.373476 -0.112015
C152  C     C_R   0.457793 0.713353 0.615556 -0.108247
H37   H     H_    0.182647 0.210048 0.755663 0.154982
H38   H     H_    0.109367 0.645458 0.190945 0.155163
H39   H     H_    0.138929 0.657059 0.771928 0.182008
H40   H     H_    0.032823 0.325180 0.094582 0.111214
H41   H     H_    0.608058 0.854239 0.308902 0.154061
H42   H     H_    0.626898 0.151110 0.713702 0.150988
H43   H     H_    0.608308 0.145729 0.307938 0.149114
H44   H     H_    0.637020 0.843202 0.727448 0.180285
H45   H     H_    0.207700 0.178384 0.633023 0.178965
H46   H     H_    0.135798 0.595333 0.300028 0.173467
H47   H     H_    0.174996 0.630842 0.650418 0.142711
H48   H     H_    0.932719 0.387274 0.092389 0.136441
H49   H     H_    0.633827 0.904564 0.199942 0.167125
H50   H     H_    0.661539 0.116511 0.831564 0.146237
H51   H     H_    0.633848 0.094720 0.198610 0.142136
H52   H     H_    0.672727 0.869993 0.848726 0.142378
H53   H     H_    0.589925 0.874715 0.079159 0.135531
H54   H     H_    0.610598 0.154220 0.945349 0.130293
H55   H     H_    0.590012 0.124365 0.078001 0.134696
H56   H     H_    0.616599 0.830030 0.957543 0.129900
H57   H     H_    0.111427 0.178531 0.538968 0.163900
H58   H     H_    0.091262 0.625190 0.420756 0.137946
H59   H     H_    0.117654 0.670695 0.542025 0.130424
H60   H     H_    0.838011 0.386413 0.188442 0.138573
H61   H     H_    0.516551 0.796903 0.068742 0.159764
H62   H     H_    0.520660 0.224009 0.939562 0.144387
H63   H     H_    0.516683 0.202564 0.068195 0.154126
H64   H     H_    0.520160 0.765707 0.943207 0.143526
H65   H     H_    0.990440 0.210457 0.567083 0.129853
H66   H     H_    0.016727 0.702846 0.431037 0.159546
H67   H     H_    0.019957 0.734444 0.557001 0.140582
H68   H     H_    0.842696 0.323358 0.286332 0.120368
H69   H     H_    0.010899 0.290164 0.936435 0.133760
H70   H     H_    0.980260 0.792919 0.071846 0.163174
H71   H     H_    0.976857 0.765306 0.933897 0.141394
H72   H     H_    0.162129 0.178053 0.214655 0.124370
H73   H     H_    0.481083 0.705789 0.427438 0.164418
H74   H     H_    0.477788 0.277162 0.567405 0.146344
H75   H     H_    0.481413 0.295809 0.427437 0.162085
H76   H     H_    0.476772 0.732708 0.566776 0.141607
H77   H     H_    0.256728 0.048789 0.252491 0.125045
H78   H     H_    0.255666 0.952871 0.252415 0.139721
H79   H     H_    0.646984 0.547104 0.269515 0.148619
H80   H     H_    0.647015 0.451166 0.269727 0.144376
C153  C     C_R   0.248105 0.053503 0.865026 -0.169247
C154  C     C_R   0.247138 0.945563 0.864975 -0.238074
C155  C     C_R   0.807228 0.554541 0.622748 -0.161010
C156  C     C_R   0.808273 0.446823 0.622591 -0.216086
C157  C     C_R   0.246521 0.026737 0.797932 0.037388
C158  C     C_R   0.247291 0.971778 0.798014 -0.036457
C159  C     C_R   0.838032 0.528396 0.682449 0.019843
C160  C     C_R   0.837363 0.473525 0.682761 -0.039705
C161  C     C_R   0.248441 0.972581 0.932503 0.076846
C162  C     C_R   0.249116 0.026953 0.932527 0.026069
C163  C     C_R   0.779576 0.473180 0.561191 0.076041
C164  C     C_R   0.779160 0.527511 0.561247 0.024333
C165  C     C_R   0.249649 0.946256 0.000021 -0.128002
C166  C     C_R   0.250412 0.053756 0.000086 -0.127022
C167  C     C_R   0.750068 0.446317 0.500367 -0.132951
C168  C     C_R   0.750234 0.553783 0.500038 -0.136576
C169  C     C_R   0.251331 0.972970 0.067536 0.061684
C170  C     C_R   0.251693 0.027522 0.067579 0.070580
C171  C     C_R   0.721631 0.472549 0.438979 0.067325
C172  C     C_R   0.721737 0.527060 0.438804 0.070088
C173  C     C_R   0.252659 0.946380 0.135184 -0.143477
C174  C     C_R   0.253411 0.054574 0.135280 -0.141066
C175  C     C_R   0.694728 0.445547 0.376764 -0.151182
C176  C     C_R   0.694796 0.553565 0.376485 -0.146609
C177  C     C_R   0.254520 0.973691 0.201159 -0.130431
C178  C     C_R   0.254987 0.027682 0.201203 -0.138523
C179  C     C_R   0.667546 0.472354 0.316640 -0.139722
C180  C     C_R   0.667547 0.526288 0.316515 -0.132492
H81   H     H_    0.247277 0.095550 0.864023 0.164902
H82   H     H_    0.247422 0.903482 0.863656 0.122351
H83   H     H_    0.806662 0.596516 0.624482 0.185394
H84   H     H_    0.807397 0.404923 0.625039 0.130677
C181  C     C_2   0.415522 0.627824 0.165941 0.428361
H85   H     H_    0.383634 0.592877 0.159406 0.114917
O53   O     O_2   0.452511 0.641504 0.113978 -0.620359
C182  C     C_2   0.398417 0.372873 0.812293 0.465539
H86   H     H_    0.363260 0.406649 0.811560 0.110979
O54   O     O_2   0.436296 0.366307 0.866398 -0.606505
C183  C     C_2   0.419516 0.371518 0.165101 0.477893
H87   H     H_    0.433794 0.350729 0.115395 0.028646
O55   O     O_2   0.409253 0.418257 0.160550 -0.583150
C184  C     C_2   0.388356 0.630359 0.804281 0.528526
H88   H     H_    0.427289 0.629261 0.848943 0.013093
O56   O     O_2   0.330863 0.607086 0.810602 -0.543236
C185  C     C_2   0.797191 0.303682 0.737649 0.534577
H89   H     H_    0.804165 0.324831 0.687138 -0.019703
O57   O     O_2   0.737989 0.284495 0.751442 -0.527635
C186  C     C_2   0.914913 0.872319 0.332280 0.433516
H90   H     H_    0.885158 0.908448 0.337434 0.103495
O58   O     O_2   0.950737 0.858224 0.384885 -0.621900
C187  C     C_2   0.885164 0.868921 0.698692 0.524259
H91   H     H_    0.924463 0.871314 0.654427 0.005798
O59   O     O_2   0.826670 0.891216 0.692530 -0.542858
C188  C     C_2   0.949346 0.156376 0.412258 0.533621
H92   H     H_    0.937812 0.182128 0.457858 -0.003229
O60   O     O_2   0.912646 0.117346 0.403763 -0.574690
C189  C     C_2   0.781318 0.345507 0.886867 0.499469
H93   H     H_    0.769003 0.347481 0.944906 0.037644
O61   O     O_2   0.741424 0.368657 0.844604 -0.518672
C190  C     C_2   0.839977 0.911241 0.195903 0.324564
H94   H     H_    0.839824 0.937748 0.149935 0.083198
O62   O     O_2   0.794106 0.916877 0.243717 -0.613584
C191  C     C_2   0.834931 0.897959 0.851470 0.441936
H95   H     H_    0.798169 0.897638 0.898029 0.022313
O63   O     O_2   0.842848 0.938398 0.817920 -0.533921
C192  C     C_2   0.082325 0.092204 0.416112 0.391334
H96   H     H_    0.123126 0.062361 0.405767 0.066557
O64   O     O_2   0.049144 0.091112 0.473989 -0.578512
C193  C     C_2   0.345359 0.586084 0.302893 0.345325
H97   H     H_    0.348086 0.558680 0.347736 0.073917
O65   O     O_2   0.298122 0.580506 0.256560 -0.600373
C194  C     C_2   0.319584 0.394421 0.670546 0.384828
H98   H     H_    0.316264 0.416392 0.620142 0.083917
O66   O     O_2   0.273162 0.401580 0.717447 -0.570934
C195  C     C_2   0.345168 0.414878 0.302754 0.486498
H99   H     H_    0.345789 0.442155 0.348239 0.023243
O67   O     O_2   0.299062 0.420049 0.255201 -0.538768
C196  C     C_2   0.339281 0.599161 0.652000 0.443846
H100  H     H_    0.302078 0.598787 0.605842 0.021386
O68   O     O_2   0.348845 0.559030 0.685957 -0.532287
C197  C     C_2   0.240528 0.057221 0.729453 0.432250
H101  H     H_    0.218939 0.039881 0.679947 0.126376
O69   O     O_2   0.258782 0.102777 0.727832 -0.618910
C198  C     C_2   0.250451 0.939488 0.730518 0.352620
H102  H     H_    0.231811 0.899517 0.732032 0.076682
O70   O     O_2   0.277083 0.955710 0.673935 -0.581204
C199  C     C_2   0.873821 0.559295 0.741223 0.440821
H103  H     H_    0.911827 0.541338 0.778765 0.112195
O71   O     O_2   0.862434 0.605891 0.747562 -0.580337
C200  C     C_2   0.864839 0.441899 0.744576 0.396159
H104  H     H_    0.885351 0.402967 0.734185 0.054643
O72   O     O_2   0.861663 0.457512 0.807626 -0.568897

loop_
_geom_bond_atom_site_label_1
_geom_bond_atom_site_label_2
_geom_bond_distance
_ccdc_geom_bond_type
C166  C170  1.410436 A    
C189  H93   1.085970 S    
C87   C119  1.414804 A    
C94   C102  1.416746 A    
C147  H71   1.082197 S    
C109  C149  1.411449 A    
C99   C123  1.428675 A    
C75   C91   1.423070 A    
C181  H85   1.080780 S    
C97   C121  1.431320 A    
O26   C7    1.278932 A    
C73   C89   1.423589 A    
C66   C74   1.415488 A    
C99   C111  1.408666 A    
C4    C90   1.486190 S    
O30   C11   1.295316 A    
C22   C38   1.486482 S    
C30   H14   1.113549 S    
C91   C99   1.415349 A    
C136  C140  1.390126 A    
C89   C97   1.416701 A    
C194  H98   1.085757 S    
Zn12  O26   1.935828 S    
C110  C118  1.417268 A    
C51   C63   1.387115 A    
H34   C142  1.083866 S    
C92   C100  1.425521 A    
C43   C51   1.393741 A    
C76   C92   1.412068 A    
C32   C39   1.555189 S    
H29   C137  1.084422 S    
C96   C104  1.435131 A    
C34   C38   1.549161 S    
C44   H40   1.082324 S    
O11   C7    1.279386 A    
C155  C159  1.403604 A    
C45   H41   1.080966 S    
C60   H56   1.081938 S    
O34   C15   1.277833 A    
C84   C116  1.407010 A    
C55   H51   1.082601 S    
C171  C175  1.419770 A    
C62   C70   1.393432 A    
C41   H37   1.081533 S    
C137  C145  1.379588 A    
C98   C122  1.429858 A    
Zn1   O44   1.937972 S    
C25   H1    1.111974 S    
C17   C166  1.432566 S    
C161  C165  1.411966 A    
C184  H88   1.085518 S    
C200  O72   1.220376 D    
C108  C116  1.415078 A    
C141  C149  1.390028 A    
Zn5   O48   1.937972 S    
H32   C140  1.083342 S    
Zn6   O47   1.937975 S    
C112  C120  1.414641 A    
Zn7   O46   1.943011 S    
O16   C12   1.274852 A    
C11   C115  1.487377 S    
C42   C50   1.391997 A    
C153  C157  1.404378 A    
Zn16  O4    1.945661 S    
C145  H69   1.081268 S    
Zn12  O4    1.952741 S    
Zn1   O13   1.936681 S    
C123  C183  1.497061 S    
C98   C110  1.407449 A    
C26   C28   1.544069 S    
C72   H68   1.081977 S    
Zn4   O16   1.937575 S    
C57   H53   1.082306 S    
C104  C128  1.447422 A    
C9    C113  1.456498 S    
C33   C37   1.549338 S    
C6    C96   1.451842 S    
C136  C192  1.491349 S    
C28   H4    1.113158 S    
C197  H101  1.083082 S    
C158  C198  1.485416 S    
C125  C133  1.424409 A    
C199  H103  1.082747 S    
C63   H59   1.081964 S    
C154  H82   1.083361 S    
C31   H7    1.113077 S    
C64   H60   1.082644 S    
C71   C79   1.415311 A    
C162  C166  1.412153 A    
C72   C80   1.420882 A    
C182  H86   1.080526 S    
C198  O70   1.220338 D    
C135  C191  1.483680 S    
C195  H99   1.085768 S    
C14   C118  1.486926 S    
C44   C84   1.418181 A    
C154  C158  1.401482 A    
C45   C85   1.418221 A    
C30   H6    1.113634 S    
Zn10  O22   1.935828 S    
C105  C113  1.416969 A    
C48   C88   1.420636 A    
O25   C8    1.277078 A    
Zn13  O29   1.931919 S    
C129  C141  1.395674 A    
H20   C176  1.081322 S    
C15   C119  1.485994 S    
Zn10  O2    1.952741 S    
C186  H90   1.080096 S    
C31   C40   1.552181 S    
O29   C12   1.275410 A    
C175  C179  1.392902 A    
C20   C167  1.433547 S    
C125  C185  1.480179 S    
C75   C87   1.408205 A    
C26   H2    1.113172 S    
C41   C81   1.419733 A    
C135  C139  1.395379 A    
O48   C23   1.274495 A    
C196  H100  1.085662 S    
C130  C142  1.396585 A    
H79   C180  1.082633 S    
C163  C167  1.415433 A    
C132  C144  1.395785 A    
C101  C125  1.450608 A    
C187  H91   1.085529 S    
Zn16  O35   1.936306 S    
C77   C93   1.420980 A    
C70   C78   1.418797 A    
C82   C114  1.415754 A    
C124  C184  1.486276 S    
Zn7   O10   1.937531 S    
O33   C16   1.295949 A    
C25   C37   1.552756 S    
C86   C118  1.424383 A    
C78   C82   1.408433 A    
H18   C174  1.082456 S    
O40   C20   1.269287 A    
C52   C64   1.388379 A    
C70   H66   1.078217 S    
C1    C91   1.485563 S    
H80   C179  1.082653 S    
C153  H81   1.082664 S    
C102  C106  1.407713 A    
C80   C96   1.418759 A    
Zn5   O17   1.936681 S    
H33   C141  1.083751 S    
H31   C139  1.083491 S    
C65   H61   1.078138 S    
C57   C65   1.393402 A    
Zn15  O33   1.931919 S    
C53   H49   1.082615 S    
C25   C27   1.535203 S    
C103  C107  1.406639 A    
C67   C75   1.418624 A    
C177  C178  1.389856 A    
C61   H57   1.082319 S    
C65   C73   1.418873 A    
C190  H94   1.085664 S    
C27   H3    1.111935 S    
C32   H8    1.110793 S    
Zn8   O3    1.940933 S    
C21   C37   1.485747 S    
O38   C18   1.270060 A    
C150  H74   1.081020 S    
H22   C34   1.110659 S    
H78   C177  1.082531 S    
O5    C1    1.292287 A    
C47   C55   1.392149 A    
O32   C9    1.278413 A    
H25   C35   1.109818 S    
C52   H48   1.082619 S    
H26   C36   1.111971 S    
C36   C40   1.550181 S    
Zn15  O51   1.939112 S    
C111  C151  1.411642 A    
Zn11  O28   1.934250 S    
C153  C162  1.414436 A    
Zn7   O4    1.940934 S    
H19   C175  1.081290 S    
H23   C34   1.113284 S    
C42   H38   1.081055 S    
C185  O57   1.220866 D    
C29   C39   1.550847 S    
H28   C35   1.113317 S    
O8    C4    1.283582 A    
C18   C165  1.432751 S    
C63   C71   1.391306 A    
C33   C34   1.543686 S    
C64   C72   1.393377 A    
C49   C61   1.386196 A    
C130  C194  1.483028 S    
C199  O71   1.221616 D    
O50   C18   1.269995 A    
O37   C17   1.269928 A    
C123  C131  1.419870 A    
C165  C169  1.410495 A    
C107  C115  1.412206 A    
C100  C112  1.406949 A    
Zn1   O1    1.950959 S    
C146  H70   1.080066 S    
C133  C137  1.388387 A    
Zn2   O14   1.933486 S    
C29   H5    1.113164 S    
C58   H54   1.082128 S    
C68   C76   1.415097 A    
C174  C178  1.393805 A    
C154  C161  1.414345 A    
C194  O66   1.220732 D    
O9    C5    1.273981 A    
C43   H39   1.077862 S    
O36   C13   1.283491 A    
C60   C68   1.391367 A    
C46   C86   1.419625 A    
C156  C160  1.401122 A    
O13   C9    1.278129 A    
C13   C117  1.486568 S    
Zn1   O8    1.933444 S    
C112  C152  1.407810 A    
C188  H92   1.082771 S    
Zn2   O7    1.936638 S    
Zn3   O6    1.937531 S    
O18   C14   1.281177 A    
O31   C10   1.283009 A    
C106  C146  1.411339 A    
C25   H9    1.113356 S    
C193  O65   1.220345 D    
C110  C150  1.410217 A    
C156  H84   1.079926 S    
C93   C101  1.437607 A    
C32   H16   1.113551 S    
Zn14  O30   1.934503 S    
C59   H55   1.082311 S    
Zn15  O3    1.952438 S    
C74   C90   1.413127 A    
Zn11  O3    1.945964 S    
O41   C21   1.276276 A    
C172  C176  1.419611 A    
C66   H62   1.080266 S    
Zn16  O34   1.934503 S    
C31   H15   1.113036 S    
C74   C86   1.408795 A    
C184  O56   1.220023 D    
C3    C89   1.486666 S    
Zn2   O2    1.950958 S    
O15   C11   1.272197 A    
C90   C98   1.420303 A    
Zn8   O20   1.937575 S    
C129  C193  1.482708 S    
C192  H96   1.086032 S    
C109  C117  1.423209 A    
C191  H95   1.085694 S    
C108  C148  1.411010 A    
C59   C67   1.393194 A    
C47   H43   1.080967 S    
C48   H44   1.077942 S    
C181  O53   1.221309 D    
C69   C77   1.421498 A    
C189  O61   1.220679 D    
Zn8   O9    1.936692 S    
C24   C40   1.485166 S    
C7    C93   1.454122 S    
C56   H52   1.081976 S    
C170  C174  1.417711 A    
C159  C160  1.412590 A    
C138  C146  1.390403 A    
O7    C3    1.296946 A    
C88   C120  1.426563 A    
C151  H75   1.079767 S    
C95   C103  1.427584 A    
C16   C120  1.488307 S    
C152  H76   1.082102 S    
C159  C199  1.487976 S    
C83   C115  1.426907 A    
C142  C150  1.389879 A    
C43   C83   1.420874 A    
O44   C21   1.277720 A    
C26   H10   1.113019 S    
C27   C38   1.555158 S    
Zn6   O18   1.933486 S    
Zn10  O23   1.931669 S    
C148  H72   1.082352 S    
C149  H73   1.079896 S    
C79   C83   1.410560 A    
C183  H87   1.083827 S    
C58   C66   1.391847 A    
C176  C180  1.393016 A    
C186  O58   1.221285 D    
Zn15  O36   1.936081 S    
O49   C17   1.270031 A    
O42   C22   1.279940 A    
C97   C109  1.408743 A    
C28   C37   1.552470 S    
C46   H42   1.079342 S    
Zn4   O1    1.940933 S    
C182  O54   1.221439 D    
C30   C32   1.534119 S    
Zn9   O37   1.942480 S    
C196  O68   1.220424 D    
C35   C36   1.543617 S    
O12   C8    1.294422 A    
C53   C57   1.387086 A    
Zn11  O39   1.942480 S    
O19   C15   1.289196 A    
C46   C54   1.393746 A    
C127  C187  1.485274 S    
Zn2   O43   1.937975 S    
C42   C82   1.418216 A    
H21   C33   1.113024 S    
C122  C130  1.418704 A    
C187  O59   1.219999 D    
C200  H104  1.084857 S    
Zn5   O3    1.950959 S    
Zn13  O1    1.952438 S    
Zn6   O4    1.950958 S    
C167  C171  1.412358 A    
C54   H50   1.082579 S    
C168  C172  1.412593 A    
C121  C129  1.418214 A    
C139  C147  1.386666 A    
C155  H83   1.080806 S    
C179  C180  1.388347 A    
C8    C94   1.485924 S    
C10   C114  1.485073 S    
H35   C143  1.083945 S    
H24   C33   1.110831 S    
Zn9   O24   1.934250 S    
O28   C5    1.293014 A    
C171  C172  1.403220 A    
Zn3   O42   1.943011 S    
C169  C173  1.417395 A    
C23   C39   1.486996 S    
C157  C158  1.414773 A    
O21   C4    1.288233 A    
C197  O69   1.221196 D    
C50   C62   1.387200 A    
C44   C52   1.392391 A    
C121  C181  1.496492 S    
C45   C53   1.391946 A    
C105  C145  1.411879 A    
C155  C164  1.417378 A    
C143  C151  1.390005 A    
C156  C163  1.415853 A    
C163  C164  1.398549 A    
C48   C56   1.393759 A    
C19   C168  1.431906 S    
C102  C126  1.429763 A    
C160  C200  1.484063 S    
Zn14  O2    1.945661 S    
C49   H45   1.082297 S    
C78   C94   1.423016 A    
C122  C182  1.495176 S    
C198  H102  1.085867 S    
C190  O62   1.220520 D    
Zn13  O49   1.939112 S    
C161  C162  1.399720 A    
C28   H12   1.113076 S    
C81   C113  1.407510 A    
Zn12  O27   1.931669 S    
C35   C39   1.549643 S    
C85   C117  1.415179 A    
H17   C173  1.082340 S    
C61   C69   1.392041 A    
C56   C60   1.387243 A    
C30   C40   1.553038 S    
Zn3   O2    1.940934 S    
C127  C135  1.426119 A    
H27   C36   1.113155 S    
O10   C6    1.274112 A    
C133  C189  1.490325 S    
O46   C24   1.276166 A    
O47   C24   1.277538 A    
Zn16  O52   1.942523 S    
C100  C124  1.433370 A    
H30   C138  1.083548 S    
C104  C108  1.420498 A    
Zn8   O45   1.943009 S    
C41   C49   1.391832 A    
O27   C6    1.277599 A    
C47   C87   1.417893 A    
O39   C19   1.270559 A    
C191  O63   1.220313 D    
C67   H63   1.078281 S    
C131  C143  1.395794 A    
C29   C31   1.544932 S    
C80   C84   1.408055 A    
C195  O67   1.220654 D    
C73   C85   1.408383 A    
O24   C1    1.272540 A    
C76   C88   1.410565 A    
C77   C81   1.407269 A    
C71   H67   1.081095 S    
C79   C95   1.412060 A    
C164  C168  1.413560 A    
O43   C22   1.274419 A    
O14   C10   1.289854 A    
Zn4   O41   1.943009 S    
Zn3   O15   1.936735 S    
Zn5   O12   1.933444 S    
Zn6   O11   1.936638 S    
C101  C105  1.421904 A    
Zn9   O21   1.936056 S    
Zn14  O50   1.942523 S    
O35   C14   1.293065 A    
Zn12  O40   1.939071 S    
C134  C190  1.482531 S    
Zn9   O1    1.945964 S    
C183  O55   1.220365 D    
C188  O60   1.220510 D    
H36   C144  1.083702 S    
O52   C20   1.271550 A    
C55   C59   1.387326 A    
C126  C134  1.417572 A    
C29   H13   1.113008 S    
C193  H97   1.085758 S    
C131  C195  1.482133 S    
O22   C3    1.278290 A    
C140  C148  1.381309 A    
Zn7   O19   1.936735 S    
C50   H46   1.082642 S    
C111  C119  1.423655 A    
C12   C116  1.455015 S    
Zn13  O32   1.936081 S    
C144  C152  1.387381 A    
C2    C92   1.488843 S    
C128  C188  1.477543 S    
Zn14  O31   1.936306 S    
C157  C197  1.485491 S    
C134  C138  1.395922 A    
O51   C19   1.269369 A    
C106  C114  1.420934 A    
C126  C186  1.496102 S    
C27   H11   1.113442 S    
Zn4   O5    1.936692 S    
C103  C127  1.433748 A    
O20   C16   1.276769 A    
C173  C177  1.393688 A    
C5    C95   1.488668 S    
C26   C38   1.551364 S    
O23   C2    1.293630 A    
O6    C2    1.277875 A    
Zn11  O25   1.936056 S    
C169  C170  1.404284 A    
Zn10  O38   1.939071 S    
C192  O64   1.221029 D    
C124  C132  1.425811 A    
C54   C58   1.387721 A    
C68   H64   1.081113 S    
C69   H65   1.078239 S    
C128  C136  1.422690 A    
C107  C147  1.407402 A    
C185  H89   1.082593 S    
O17   C13   1.293552 A    
C62   H58   1.082328 S    
C51   H47   1.082170 S    
O45   C23   1.280108 A    
C132  C196  1.483662 S    
H77   C178  1.082001 S    
