data_mof_unit_39844.cif
_audit_creation_date              2012-12-11T16:28:20-0500
_audit_creation_method            fapswitch 2.2
_symmetry_space_group_name_H-M    P1
_symmetry_Int_Tables_number       1
_space_group_crystal_system       triclinic
_cell_length_a                    16.730336
_cell_length_b                    7.275848
_cell_length_c                    14.971526
_cell_angle_alpha                 90.003789
_cell_angle_beta                  94.77561
_cell_angle_gamma                 89.99942
_cell_volume                      1816.11783827

loop_
_atom_site_label
_atom_site_type_symbol
_atom_type_description
_atom_site_fract_x
_atom_site_fract_y
_atom_site_fract_z
_atom_type_partial_charge
O1    O     O_R   0.663460 0.361760 0.165970 -0.531432
O2    O     O_R   0.336540 0.638240 0.834030 -0.531432
O3    O     O_R   0.836540 0.861760 0.334030 -0.531408
O4    O     O_R   0.163460 0.138240 0.665970 -0.531408
O5    O     O_R   0.827100 0.689870 0.163730 -0.535250
O6    O     O_R   0.172900 0.310130 0.836270 -0.535250
O7    O     O_R   0.672900 0.189870 0.336270 -0.535268
O8    O     O_R   0.327100 0.810130 0.663730 -0.535267
H1    H     H_    0.209488 0.004010 0.489155 0.111699
H2    H     H_    0.790512 0.995989 0.510845 0.111699
H3    H     H_    0.290515 0.503706 0.010866 0.111689
H4    H     H_    0.709485 0.496292 0.989133 0.111689
C1    C     C_R   0.853196 0.523051 0.143594 0.711174
C2    C     C_R   0.146803 0.476949 0.856406 0.711173
C3    C     C_R   0.646803 0.023058 0.356407 0.711181
C4    C     C_R   0.353197 0.976942 0.643593 0.711180
O9    O     O_R   0.663490 0.691370 0.155500 -0.535242
O10   O     O_R   0.336510 0.308630 0.844500 -0.535241
O11   O     O_R   0.836510 0.191370 0.344500 -0.535265
O12   O     O_R   0.163490 0.808630 0.655500 -0.535265
O13   O     O_R   0.671770 0.863320 0.325740 -0.531927
O14   O     O_R   0.328230 0.136680 0.674260 -0.531927
O15   O     O_R   0.828230 0.363320 0.174260 -0.531949
O16   O     O_R   0.171770 0.636680 0.825740 -0.531948
C5    C     C_R   0.637175 0.522771 0.132618 0.677418
C6    C     C_R   0.362825 0.477229 0.867382 0.677418
C7    C     C_R   0.862828 0.022780 0.367379 0.677421
C8    C     C_R   0.137172 0.977220 0.632621 0.677421
H5    H     H_    0.107150 0.055274 0.217101 0.113746
H6    H     H_    0.892849 0.944724 0.782898 0.113745
H7    H     H_    0.392867 0.553956 0.282968 0.113701
H8    H     H_    0.607133 0.446034 0.717032 0.113701
O17   O     O_3   0.752910 0.528800 0.305860 -0.374203
O18   O     O_3   0.247090 0.471200 0.694140 -0.374203
O19   O     O_3   0.747090 0.028800 0.194140 -0.374208
O20   O     O_3   0.252910 0.971200 0.805860 -0.374208
V1    V     V_3+5 0.749460 0.803010 0.239640 1.425980
V2    V     V_3+5 0.250540 0.196990 0.760360 1.425981
V3    V     V_3+5 0.750540 0.303010 0.260360 1.425913
V4    V     V_3+5 0.249460 0.696990 0.739640 1.425913
C9    C     C_1   0.468817 0.994626 0.530107 0.017103
C10   C     C_1   0.531183 0.005374 0.469893 0.017103
C11   C     C_1   0.031183 0.494634 0.969893 0.017107
C12   C     C_1   0.968817 0.505366 0.030107 0.017107
C13   C     C_R   0.024835 0.035568 0.316324 -0.195167
C14   C     C_R   0.975165 0.964430 0.683676 -0.195167
C15   C     C_R   0.475172 0.534862 0.183711 -0.195145
C16   C     C_R   0.524828 0.465134 0.816289 -0.195145
C17   C     C_R   0.102002 0.041316 0.288247 -0.266651
C18   C     C_R   0.897998 0.958682 0.711752 -0.266650
C19   C     C_R   0.398008 0.540394 0.211801 -0.266643
C20   C     C_R   0.601992 0.459599 0.788199 -0.266642
C21   C     C_R   0.169718 0.030073 0.350934 0.472391
C22   C     C_R   0.830282 0.969924 0.649066 0.472391
C23   C     C_R   0.330287 0.529423 0.149105 0.472368
C24   C     C_R   0.669713 0.470571 0.850895 0.472369
C25   C     C_R   0.156980 0.012470 0.441920 -0.183774
C26   C     C_R   0.843020 0.987528 0.558080 -0.183774
C27   C     C_R   0.343023 0.512061 0.058106 -0.183746
C28   C     C_R   0.656977 0.487936 0.941894 -0.183746
C29   C     C_R   0.078997 0.005693 0.471967 -0.007921
C30   C     C_R   0.921003 0.994306 0.528033 -0.007921
C31   C     C_R   0.421004 0.505449 0.028048 -0.007917
C32   C     C_R   0.578996 0.494550 0.971952 -0.007917
C33   C     C_R   0.011639 0.018170 0.407819 0.074567
C34   C     C_R   0.988361 0.981829 0.592181 0.074567
C35   C     C_R   0.488364 0.517847 0.092197 0.074556
C36   C     C_R   0.511635 0.482151 0.907803 0.074556
C37   C     C_R   0.067357 0.987049 0.564397 -0.133461
C38   C     C_R   0.932643 0.012951 0.435603 -0.133461
C39   C     C_R   0.432642 0.487086 0.935602 -0.133457
C40   C     C_R   0.567358 0.512913 0.064398 -0.133457
C41   C     C_1   0.415954 0.985905 0.581466 -0.177831
C42   C     C_1   0.584046 0.014095 0.418534 -0.177831
C43   C     C_1   0.084046 0.485922 0.918533 -0.177837
C44   C     C_1   0.915954 0.514078 0.081467 -0.177837
H9    H     H_    0.975486 0.045356 0.265004 0.128966
H10   H     H_    0.024514 0.954643 0.734996 0.128966
H11   H     H_    0.524523 0.544487 0.235036 0.128960
H12   H     H_    0.475477 0.455507 0.764964 0.128960
O21   O     O_3   0.750479 0.962282 0.670157 -0.566599
C45   C     C_3   0.740473 0.959475 0.763028 0.037315
H13   H     H_    0.768030 0.082370 0.797193 0.155007
H14   H     H_    0.767090 0.833503 0.794978 0.156785
C46   C     C_3   0.651287 0.959793 0.776181 -0.673759
H15   H     H_    0.622116 0.837140 0.743738 0.222443
H16   H     H_    0.642299 0.957621 0.848840 0.187074
H17   H     H_    0.622582 0.084654 0.745525 0.221614
O22   O     O_3   0.249521 0.037714 0.329842 -0.566599
C47   C     C_3   0.259527 0.040519 0.236971 0.037315
H18   H     H_    0.232911 0.166491 0.205021 0.156787
H19   H     H_    0.231969 0.917624 0.202806 0.155005
C48   C     C_3   0.348712 0.040197 0.223818 -0.673760
H20   H     H_    0.377417 0.915336 0.254475 0.221614
H21   H     H_    0.357700 0.042365 0.151159 0.187074
H22   H     H_    0.377884 0.162851 0.256260 0.222444
O23   O     O_3   0.749518 0.463041 0.829802 -0.566616
C49   C     C_3   0.759521 0.459393 0.736937 0.037324
H23   H     H_    0.732188 0.582323 0.702594 0.155402
H24   H     H_    0.732677 0.333459 0.705172 0.156399
C50   C     C_3   0.848706 0.458660 0.723787 -0.673746
H25   H     H_    0.877678 0.336156 0.756593 0.222377
H26   H     H_    0.857689 0.455406 0.651136 0.187060
H27   H     H_    0.877613 0.583648 0.754072 0.221679
O24   O     O_3   0.250482 0.536951 0.170198 -0.566616
C51   C     C_3   0.240479 0.540603 0.263063 0.037324
H28   H     H_    0.267324 0.666536 0.294827 0.156398
H29   H     H_    0.267811 0.417672 0.297407 0.155403
C52   C     C_3   0.151294 0.541340 0.276213 -0.673745
H30   H     H_    0.122386 0.416351 0.245930 0.221679
H31   H     H_    0.142311 0.544600 0.348864 0.187060
H32   H     H_    0.122323 0.663842 0.243405 0.222376

loop_
_geom_bond_atom_site_label_1
_geom_bond_atom_site_label_2
_ccdc_geom_bond_type
C26   C30   A    
C50   H25   S    
C23   C27   A    
C9    C10   S    
C8    C37   S    
O10   C6    A    
C15   H11   S    
O21   C45   S    
H5    C17   S    
C46   H15   S    
C30   C38   A    
C48   H20   S    
C23   O24   S    
O18   V4    S    
C32   C36   A    
O19   V1    S    
C14   C34   A    
C16   C20   A    
O5    V1    S    
C52   H31   S    
O12   V4    S    
C17   C21   A    
C34   C37   A    
C51   H28   S    
C33   C38   A    
O14   V2    S    
C1    O15   A    
C35   C40   A    
C2    O16   A    
C12   C44   T    
H8    C20   S    
O17   V3    S    
O6    V2    S    
O11   C7    A    
O5    C1    A    
O7    C3    A    
H6    C18   S    
O8    C4    A    
O1    C5    A    
C6    C39   S    
C24   O23   S    
H3    C27   S    
C15   C35   A    
O4    C8    A    
O23   C49   S    
C46   H16   S    
C11   C43   T    
C31   C35   A    
C10   C42   T    
C30   C34   A    
C4    C41   S    
H1    C25   S    
C52   H32   S    
H7    C19   S    
C14   H10   S    
C21   C25   A    
C15   C19   A    
O12   C8    A    
C24   C28   A    
C11   C12   S    
O2    V4    S    
O6    C2    A    
C47   H19   S    
C1    C44   S    
C13   C17   A    
O2    C6    A    
C5    C40   S    
C18   C22   A    
C16   C36   A    
C7    C38   S    
O11   V3    S    
O4    V2    S    
C49   H23   S    
C48   H22   S    
C45   H14   S    
C21   O22   S    
O9    V1    S    
C45   C46   S    
C47   C48   S    
C22   C26   A    
C46   H17   S    
C29   C37   A    
C4    O14   A    
H2    C26   S    
C31   C39   A    
C25   C29   A    
C50   H27   S    
C49   C50   S    
O24   C51   S    
C14   C18   A    
C27   C31   A    
C50   H26   S    
C28   C32   A    
O9    C5    A    
C2    C43   S    
C16   H12   S    
O3    C7    A    
O10   V2    S    
C52   H30   S    
C13   C33   A    
C47   H18   S    
C51   H29   S    
C36   C39   A    
O15   V3    S    
O20   V2    S    
O16   V4    S    
C19   C23   A    
C32   C40   A    
C49   H24   S    
O1    V3    S    
C9    C41   T    
H4    C28   S    
C29   C33   A    
C3    O13   A    
C3    C42   S    
O13   V1    S    
O3    V1    S    
C48   H21   S    
C45   H13   S    
O7    V3    S    
C13   H9    S    
O8    V4    S    
O22   C47   S    
C22   O21   S    
C20   C24   A    
C51   C52   S    
