data_mof_unit_46498.cif
_audit_creation_date              2012-12-10T16:44:46-0500
_audit_creation_method            fapswitch 2.2
_symmetry_space_group_name_H-M    P1
_symmetry_Int_Tables_number       1
_space_group_crystal_system       triclinic
_cell_length_a                    14.99198
_cell_length_b                    8.66461
_cell_length_c                    7.445716
_cell_angle_alpha                 102.950097
_cell_angle_beta                  93.726806
_cell_angle_gamma                 92.078813
_cell_volume                      939.316445778

loop_
_atom_site_label
_atom_site_type_symbol
_atom_type_description
_atom_site_fract_x
_atom_site_fract_y
_atom_site_fract_z
_atom_type_partial_charge
Br1   Br    Br    0.731662 0.157640 0.403782 -0.473361
Br2   Br    Br    0.268383 0.842437 0.596679 -0.473303
Br3   Br    Br    0.899536 0.011813 0.206773 -0.431919
Br4   Br    Br    0.100420 0.988229 0.793284 -0.431908
C1    C     C_R   0.496657 0.199739 0.453349 0.907568
C2    C     C_R   0.183667 0.364822 0.453305 -0.215177
C3    C     C_R   0.766611 0.492780 0.487995 -0.114253
C4    C     C_R   0.233389 0.507234 0.512003 -0.114281
C5    C     C_R   0.807720 0.348131 0.432345 0.242728
C6    C     C_R   0.192298 0.651902 0.567757 0.242702
C7    C     C_R   0.902331 0.349015 0.425017 -0.005631
C8    C     C_R   0.097673 0.651012 0.575018 -0.005655
C9    C     C_R   0.952766 0.496466 0.494829 -0.005509
C10   C     C_R   0.047238 0.503560 0.505153 -0.005498
C11   C     C_R   0.908838 0.637714 0.555055 0.082492
C12   C     C_R   0.503349 0.800261 0.546650 0.907546
C13   C     C_R   0.091159 0.362307 0.444887 0.082492
C14   C     C_R   0.949735 0.211496 0.354191 0.301415
C15   C     C_R   0.050256 0.788529 0.645828 0.301401
C16   C     C_R   0.042713 0.219631 0.370577 -0.156218
C17   C     C_R   0.957278 0.780389 0.629372 -0.156211
C18   C     C_2   0.495071 0.031753 0.427079 -0.286809
C19   C     C_2   0.504941 0.968248 0.572920 -0.286760
C20   C     C_R   0.329308 0.502189 0.503630 0.857649
C21   C     C_R   0.670690 0.497812 0.496369 0.857675
C22   C     C_R   0.816328 0.635194 0.546605 -0.215204
Cu1   Cu    Cu3+1 0.510010 0.517380 0.684380 1.015346
Cu2   Cu    Cu3+1 0.489990 0.482620 0.315620 1.015321
H1    H     H_    0.782351 0.744208 0.591912 0.167286
H2    H     H_    0.217635 0.255799 0.407936 0.167266
H3    H     H_    0.077880 0.113503 0.317933 0.202671
H4    H     H_    0.922103 0.886513 0.681993 0.202694
H5    H     H_    0.486138 0.960068 0.286529 0.184471
H6    H     H_    0.513874 0.039933 0.713470 0.184487
H7    H     H_    0.430269 0.378217 0.948792 0.238337
H8    H     H_    0.569731 0.621783 0.051208 0.238329
N1    N     N_2   0.474890 0.456420 0.038520 -0.207379
N2    N     N_2   0.525110 0.543580 0.961480 -0.207377
O1    O     O_R   0.506510 0.286130 0.619770 -0.587074
O2    O     O_R   0.493490 0.713870 0.380230 -0.587094
O3    O     O_R   0.489600 0.256770 0.308360 -0.575588
O4    O     O_R   0.510400 0.743230 0.691640 -0.575568
O5    O     O_R   0.378710 0.514640 0.655720 -0.574237
O6    O     O_R   0.621290 0.485360 0.344280 -0.574273
O7    O     O_R   0.361800 0.485290 0.344300 -0.566808
O8    O     O_R   0.638200 0.514710 0.655700 -0.566784

loop_
_geom_bond_atom_site_label_1
_geom_bond_atom_site_label_2
_ccdc_geom_bond_type
C7    C14   A    
N1    N2    D    
Cu1   O5    S    
C7    C9    A    
C10   C13   A    
C9    C11   A    
C19   H6    S    
H8    N2    S    
C9    C10   A    
C5    C7    A    
Cu1   O4    S    
C3    C22   A    
C6    C8    A    
Cu2   N1    S    
C12   O2    A    
C20   O7    A    
C8    C15   A    
Br3   C14   S    
C2    H2    S    
C8    C10   A    
C12   C19   S    
C14   C16   A    
C1    O1    A    
C3    C21   S    
C21   O6    A    
C20   O5    A    
C17   H4    S    
Cu2   O7    S    
Cu2   O2    S    
Cu1   N2    S    
Br2   C6    S    
C12   O4    A    
Cu2   O3    S    
C11   C17   A    
C13   C16   A    
Br1   C5    S    
Cu1   O8    S    
C22   H1    S    
C4    C6    A    
H7    N1    S    
Cu1   Cu2   S    
C3    C5    A    
C2    C13   A    
C1    O3    A    
C18   C19   D    
C11   C22   A    
C2    C4    A    
C4    C20   S    
Br4   C15   S    
C21   O8    A    
Cu2   O6    S    
C1    C18   S    
Cu1   O1    S    
C15   C17   A    
C16   H3    S    
C18   H5    S    
