data_mof_unit_16851.cif
_audit_creation_date              2012-12-10T17:28:32-0500
_audit_creation_method            fapswitch 2.2
_symmetry_space_group_name_H-M    P1
_symmetry_Int_Tables_number       1
_space_group_crystal_system       triclinic
_cell_length_a                    10.647263
_cell_length_b                    11.941859
_cell_length_c                    12.835791
_cell_angle_alpha                 93.842276
_cell_angle_beta                  90.024419
_cell_angle_gamma                 84.125771
_cell_volume                      1619.79354585

loop_
_atom_site_label
_atom_site_type_symbol
_atom_type_description
_atom_site_fract_x
_atom_site_fract_y
_atom_site_fract_z
_atom_type_partial_charge
C1    C     C_R   0.492544 0.522850 0.700460 0.935163
C2    C     C_R   0.443924 0.540417 0.132886 -0.301140
C3    C     C_R   0.543229 0.459292 0.973644 0.191855
C4    C     C_R   0.456774 0.540709 0.026356 0.191854
C5    C     C_R   0.370701 0.959490 0.413560 -0.335662
C6    C     C_R   0.629299 0.040510 0.586440 -0.335662
C7    C     C_R   0.384749 0.842100 0.420405 0.008981
C8    C     C_R   0.615251 0.157900 0.579595 0.008982
C9    C     C_R   0.557793 0.855346 0.535479 -0.038792
C10   C     C_R   0.442207 0.144653 0.464521 -0.038790
C11   C     C_R   0.547523 0.973695 0.530885 0.088958
C12   C     C_R   0.507457 0.477150 0.299540 0.935164
C13   C     C_R   0.452477 0.026304 0.469115 0.088958
C14   C     C_R   0.740553 0.495579 0.486945 0.930973
C15   C     C_R   0.259447 0.504421 0.513055 0.930973
C16   C     C_R   0.916065 0.283578 0.508827 -0.113428
C17   C     C_R   0.083935 0.716422 0.491174 -0.113426
C18   C     C_R   0.984739 0.200516 0.562953 -0.197919
C19   C     C_R   0.015261 0.799485 0.437047 -0.197920
C20   C     C_R   0.091399 0.225958 0.618385 -0.146887
C21   C     C_R   0.908601 0.774042 0.381616 -0.146886
C22   C     C_R   0.134497 0.331669 0.612895 -0.114118
C23   C     C_R   0.519247 0.462701 0.188103 -0.082904
C24   C     C_R   0.865503 0.668331 0.387106 -0.114119
C25   C     C_R   0.070540 0.413764 0.551662 0.055228
C26   C     C_R   0.929460 0.586236 0.448339 0.055228
C27   C     C_R   0.952746 0.394677 0.510128 0.079318
C28   C     C_R   0.047254 0.605323 0.489873 0.079318
C29   C     C_R   0.123316 0.512840 0.528654 -0.201480
C30   C     C_R   0.876684 0.487160 0.471347 -0.201483
C31   C     C_2   0.698264 0.301528 0.189772 0.381758
C32   C     C_2   0.301741 0.698473 0.810228 0.381764
C33   C     C_R   0.480755 0.537299 0.811897 -0.082905
C34   C     C_R   0.383774 0.621166 0.972071 -0.305963
C35   C     C_R   0.616229 0.378835 0.027929 -0.305966
C36   C     C_R   0.392256 0.619009 0.863788 -0.009289
C37   C     C_R   0.607747 0.380991 0.136212 -0.009288
C38   C     C_R   0.556078 0.459583 0.867114 -0.301139
H1    H     H_    0.857109 0.837196 0.336907 0.140942
H2    H     H_    0.781554 0.651201 0.343694 0.153715
H3    H     H_    0.376223 0.602442 0.173603 0.155581
H4    H     H_    0.623778 0.397558 0.826396 0.155581
H5    H     H_    0.316664 0.682755 0.013790 0.132520
H6    H     H_    0.683339 0.317246 0.986210 0.132520
H7    H     H_    0.370282 0.186505 0.416894 0.134952
H8    H     H_    0.629718 0.813495 0.583106 0.134952
H9    H     H_    0.678546 0.209355 0.622197 0.132149
H10   H     H_    0.321454 0.790644 0.377803 0.132149
H11   H     H_    0.736008 0.222870 0.148671 0.056641
H12   H     H_    0.142891 0.162804 0.663093 0.140942
H13   H     H_    0.264005 0.777137 0.851326 0.056637
H14   H     H_    0.296570 0.997531 0.365505 0.146947
H15   H     H_    0.703430 0.002469 0.634495 0.146948
H16   H     H_    0.837414 0.257948 0.463255 0.199873
H17   H     H_    0.162586 0.742052 0.536746 0.199871
H18   H     H_    0.954358 0.116685 0.562597 0.139054
H19   H     H_    0.045642 0.883315 0.437404 0.139054
H20   H     H_    0.218446 0.348799 0.656306 0.153715
N1    N     N_R   0.523130 0.207800 0.519340 -0.099199
N2    N     N_R   0.476870 0.792200 0.480660 -0.099199
O1    O     O_R   0.506170 0.421700 0.658830 -0.642095
O2    O     O_2   0.262497 0.674986 0.723048 -0.598804
O3    O     O_R   0.493830 0.578300 0.341170 -0.642096
O4    O     O_R   0.491330 0.609310 0.646410 -0.585347
O5    O     O_R   0.508670 0.390690 0.353590 -0.585342
O6    O     O_R   0.690650 0.406190 0.506220 -0.615380
O7    O     O_R   0.309350 0.593810 0.493780 -0.615381
O8    O     O_R   0.675800 0.593810 0.493800 -0.636691
O9    O     O_R   0.324200 0.406190 0.506200 -0.636690
O10   O     O_2   0.737500 0.325011 0.276954 -0.598804
Zn1   Zn    Zn3+2 0.509910 0.374730 0.508290 0.960487
Zn2   Zn    Zn3+2 0.490090 0.625270 0.491710 0.960485

loop_
_geom_bond_atom_site_label_1
_geom_bond_atom_site_label_2
_ccdc_geom_bond_type
C22   H20   S    
C2    C4    A    
C1    O4    A    
C32   H13   S    
C15   C29   S    
C18   H18   S    
C25   C27   A    
C4    C34   A    
C11   C13   A    
C12   O5    A    
C17   H17   S    
C5    C13   A    
O6    Zn1   S    
C21   H1    S    
C3    C35   A    
O8    Zn2   S    
C9    N2    A    
C15   O7    A    
C7    H10   S    
O1    Zn1   S    
C10   H7    S    
C10   N1    A    
C14   O6    A    
C8    H9    S    
C1    C33   S    
C9    H8    S    
C5    H14   S    
C23   C37   A    
C19   H19   S    
C27   C30   A    
C35   H6    S    
C9    C11   A    
C12   C23   S    
C16   C27   A    
C6    C8    A    
C32   C36   S    
C28   C29   A    
C17   C19   A    
C24   C26   A    
C26   C30   A    
C34   C36   A    
O4    Zn2   S    
C8    N1    A    
C25   C29   A    
C15   O9    A    
C16   H16   S    
C31   H11   S    
N2    Zn2   S    
C2    H3    S    
C32   O2    D    
C3    C4    A    
C38   H4    S    
C31   C37   S    
C7    N2    A    
C6    C11   A    
C33   C36   A    
O3    Zn2   S    
C35   C37   A    
C18   C20   A    
C16   C18   A    
O7    Zn2   S    
C21   C24   A    
N1    Zn1   S    
C2    C23   A    
O9    Zn1   S    
C12   O3    A    
C14   O8    A    
C5    C7    A    
C20   H12   S    
C6    H15   S    
C24   H2    S    
O5    Zn1   S    
C17   C28   A    
C26   C28   A    
C10   C13   A    
C31   O10   D    
C14   C30   S    
C34   H5    S    
C33   C38   A    
C3    C38   A    
C20   C22   A    
C19   C21   A    
C22   C25   A    
C1    O1    A    
