data_mof_unit_45709.cif
_audit_creation_date              2012-12-10T17:52:04-0500
_audit_creation_method            fapswitch 2.2
_symmetry_space_group_name_H-M    P1
_symmetry_Int_Tables_number       1
_space_group_crystal_system       triclinic
_cell_length_a                    14.692709
_cell_length_b                    14.681918
_cell_length_c                    19.383816
_cell_angle_alpha                 76.272388
_cell_angle_beta                  103.601717
_cell_angle_gamma                 115.568158
_cell_volume                      3621.90868049

loop_
_atom_site_label
_atom_site_type_symbol
_atom_type_description
_atom_site_fract_x
_atom_site_fract_y
_atom_site_fract_z
_atom_type_partial_charge
C1    C     C_R   0.879954 0.311679 0.511963 0.794060
C2    C     C_R   0.120248 0.688092 0.489375 0.788790
C3    C     C_R   0.813219 0.202322 0.521127 -0.080119
C4    C     C_R   0.189272 0.794577 0.495490 -0.079462
C5    C     C_R   0.787085 0.025204 0.532173 -0.174067
C6    C     C_R   0.226983 0.954406 0.533008 -0.171889
C7    C     C_R   0.851758 0.128452 0.525626 -0.186327
C8    C     C_R   0.155888 0.861585 0.512254 -0.184204
C9    C     C_R   0.710469 0.171418 0.526244 -0.207634
C10   C     C_R   0.293337 0.823158 0.496598 -0.203911
C11   C     C_R   0.645824 0.067216 0.538495 0.081834
C12   C     C_R   0.366735 0.910478 0.524906 0.087558
C13   C     C_R   0.683894 0.994317 0.536869 0.082710
C14   C     C_R   0.332013 0.978756 0.540355 0.081471
C15   C     C_R   0.542687 0.034116 0.547887 -0.115230
C16   C     C_R   0.473325 0.933453 0.536235 -0.113593
C17   C     C_R   0.514385 0.860002 0.538859 0.451910
C18   C     C_R   0.506597 0.096595 0.570546 0.460762
C19   C     C_R   0.618578 0.891581 0.539391 -0.285011
C20   C     C_R   0.402153 0.069288 0.564721 -0.285636
C21   C     C_R   0.715412 0.669138 0.380233 -0.320893
C22   C     C_R   0.285741 0.332667 0.620613 -0.334617
C23   C     C_R   0.000117 0.499480 0.632780 0.829738
C24   C     C_R   0.999995 0.500448 0.367354 0.834902
C25   C     C_R   0.796595 0.638671 0.398807 0.090735
C26   C     C_R   0.203705 0.361697 0.601372 0.083708
C27   C     C_R   0.715269 0.509867 0.490716 0.012960
C28   C     C_R   0.285218 0.491374 0.509816 0.017335
C29   C     C_R   0.629681 0.536882 0.474300 -0.024952
C30   C     C_R   0.371944 0.466304 0.527231 -0.016719
C31   C     C_R   0.632025 0.618974 0.417910 0.154639
C32   C     C_R   0.369669 0.384203 0.583551 0.151613
C33   C     C_R   0.542768 0.486060 0.511366 0.047198
C34   C     C_R   0.459637 0.518499 0.490959 0.070795
C35   C     C_R   0.467368 0.602255 0.435420 -0.185450
C36   C     C_R   0.535958 0.403693 0.567876 -0.201862
C37   C     C_R   0.551602 0.650910 0.399618 -0.207717
C38   C     C_R   0.450823 0.353643 0.602560 -0.193608
C39   C     C_R   0.072472 0.474015 0.764373 0.161765
C40   C     C_R   0.919656 0.506394 0.236978 0.159975
C41   C     C_R   0.071952 0.477255 0.835669 -0.282060
C42   C     C_R   0.926540 0.511654 0.165428 -0.295277
C43   C     C_R   0.001646 0.505104 0.853979 -0.071048
C44   C     C_R   0.013020 0.511746 0.146577 -0.041871
C45   C     C_R   0.928301 0.527579 0.799154 0.478111
C46   C     C_R   0.094593 0.506073 0.200333 0.475778
C47   C     C_R   0.929676 0.525842 0.727673 -0.319313
C48   C     C_R   0.089063 0.504876 0.271972 -0.348548
C49   C     C_R   0.001004 0.499250 0.709265 -0.106911
C50   C     C_R   0.001917 0.503373 0.291090 -0.089488
C51   C     C_R   0.014540 0.514418 0.070536 0.450514
C52   C     C_R   0.006677 0.509622 0.930217 0.421297
Cu1   Cu    Cu3+1 0.081740 0.475680 0.518680 0.935701
Cu2   Cu    Cu3+1 0.918260 0.524320 0.481320 0.945209
H1    H     H_    0.553671 0.714353 0.356905 0.145381
H2    H     H_    0.448183 0.289837 0.644805 0.140571
H3    H     H_    0.279141 0.551149 0.466904 0.128121
H4    H     H_    0.720934 0.449569 0.533285 0.125852
H5    H     H_    0.138572 0.321794 0.629660 0.136826
H6    H     H_    0.861413 0.677914 0.370176 0.129459
H7    H     H_    0.718055 0.731948 0.336888 0.139142
H8    H     H_    0.283476 0.270073 0.664076 0.137179
H9    H     H_    0.409249 0.632408 0.418036 0.142830
H10   H     H_    0.595504 0.375753 0.586913 0.172091
H11   H     H_    0.128475 0.459128 0.876762 0.175799
H12   H     H_    0.862649 0.513724 0.124478 0.168565
H13   H     H_    0.874443 0.545955 0.686467 0.175942
H14   H     H_    0.153882 0.506521 0.312852 0.164556
H15   H     H_    0.647910 0.835055 0.539968 0.162997
H16   H     H_    0.375982 0.119365 0.579957 0.158982
H17   H     H_    0.314844 0.775319 0.475080 0.193730
H18   H     H_    0.681099 0.229640 0.518181 0.199469
H19   H     H_    0.075512 0.840753 0.511828 0.151576
H20   H     H_    0.931171 0.150588 0.521930 0.152288
H21   H     H_    0.817483 0.969581 0.532736 0.133549
H22   H     H_    0.199985 0.005518 0.545865 0.132404
N1    N     N_R   0.958858 0.558795 0.949311 -0.194554
N2    N     N_R   0.063486 0.466300 0.051590 -0.197830
N3    N     N_R   0.962226 0.560700 0.018110 -0.255234
N4    N     N_R   0.059711 0.464098 0.982779 -0.254294
N5    N     N_R   0.795420 0.560800 0.453240 -0.176128
N6    N     N_R   0.204580 0.439200 0.546760 -0.183609
O1    O     O_R   0.977910 0.338110 0.524620 -0.588038
O2    O     O_R   0.022090 0.661890 0.475380 -0.587296
O3    O     O_R   0.839850 0.379180 0.493080 -0.582356
O4    O     O_R   0.160150 0.620820 0.506920 -0.589916
O5    O     O_R   0.069040 0.479450 0.615630 -0.545347
O6    O     O_R   0.930960 0.520550 0.384370 -0.543888
O7    O     O_R   0.930990 0.520520 0.584090 -0.598988
O8    O     O_R   0.069010 0.479480 0.415910 -0.597777
N7    N     N_3   0.146575 0.445711 0.748748 -0.573376
H23   H     H_    0.219291 0.497040 0.767476 0.216845
H24   H     H_    0.136905 0.372890 0.777202 0.208799
N8    N     N_3   0.828420 0.503086 0.254062 -0.562196
H25   H     H_    0.817467 0.568751 0.226157 0.215157
H26   H     H_    0.766864 0.439689 0.235479 0.215991
O9    O     O_3   0.858821 0.558044 0.813705 -0.599122
C53   C     C_3   0.771743 0.471442 0.834174 0.077991
H27   H     H_    0.750399 0.487313 0.880022 0.187308
H28   H     H_    0.784716 0.399331 0.853611 0.108312
C54   C     C_3   0.682747 0.455443 0.772039 -0.356154
H29   H     H_    0.676837 0.529720 0.747997 0.237872
H30   H     H_    0.696700 0.425296 0.729852 0.204423
C55   C     C_3   0.582128 0.380622 0.797944 -0.939559
H31   H     H_    0.585524 0.305251 0.821427 0.264598
H32   H     H_    0.518821 0.370626 0.752229 0.260748
H33   H     H_    0.565830 0.410468 0.839144 0.258027
O10   O     O_3   0.183280 0.514151 0.180722 -0.599621
C56   C     C_3   0.217463 0.437971 0.221905 0.066265
H34   H     H_    0.224715 0.396387 0.183867 0.171619
H35   H     H_    0.163778 0.378703 0.257996 0.123812
C57   C     C_3   0.322951 0.488503 0.265170 -0.345563
H36   H     H_    0.378219 0.538016 0.227600 0.230170
H37   H     H_    0.319873 0.537487 0.299526 0.212629
C58   C     C_3   0.360716 0.408979 0.312802 -0.896141
H38   H     H_    0.309667 0.362518 0.353590 0.256728
H39   H     H_    0.438861 0.447907 0.341108 0.270630
H40   H     H_    0.363168 0.357928 0.279811 0.254036
O11   O     O_3   0.455564 0.756318 0.541682 -0.639798
C59   C     C_3   0.430467 0.711730 0.611545 0.055356
H41   H     H_    0.352499 0.650341 0.605455 0.194380
H42   H     H_    0.427327 0.765657 0.642115 0.127959
C60   C     C_3   0.505117 0.663967 0.654453 -0.350301
H43   H     H_    0.513862 0.616532 0.621579 0.240511
H44   H     H_    0.581063 0.725553 0.667864 0.210186
C61   C     C_3   0.467627 0.596954 0.723736 -0.911476
H45   H     H_    0.456696 0.642234 0.757184 0.254108
H46   H     H_    0.524860 0.566422 0.754852 0.264683
H47   H     H_    0.394296 0.531614 0.711273 0.264281
O12   O     O_3   0.571066 0.184132 0.600101 -0.647673
C62   C     C_3   0.622193 0.159052 0.668824 0.036787
H48   H     H_    0.693983 0.226966 0.679228 0.162752
H49   H     H_    0.645243 0.094843 0.672430 0.144752
C63   C     C_3   0.557391 0.135097 0.727314 -0.366277
H50   H     H_    0.535753 0.199783 0.723834 0.223453
H51   H     H_    0.486588 0.065392 0.719250 0.215679
C64   C     C_3   0.615860 0.117927 0.802032 -0.915120
H52   H     H_    0.637505 0.052569 0.807304 0.259927
H53   H     H_    0.566926 0.100564 0.843172 0.256964
H54   H     H_    0.685839 0.187676 0.812007 0.252937

loop_
_geom_bond_atom_site_label_1
_geom_bond_atom_site_label_2
_ccdc_geom_bond_type
C15   C18   A    
Cu2   O6    S    
C54   H29   S    
C27   C29   A    
C2    O2    A    
C9    H18   S    
C4    C8    A    
C62   C63   S    
C63   C64   S    
C55   H32   S    
O9    C53   S    
C60   H43   S    
C39   C41   A    
Cu1   Cu2   S    
C21   C31   A    
C61   H45   S    
C22   C32   A    
C35   C37   A    
C3    C7    A    
C56   H35   S    
N2    N4    A    
C43   C52   S    
C23   C49   S    
C6    C14   A    
C58   H38   S    
C29   C33   A    
C33   C36   A    
O10   C56   S    
C57   C58   S    
C34   C35   A    
C39   N7    S    
C55   H31   S    
C60   H44   S    
C11   C15   A    
C12   C16   A    
C59   H42   S    
C16   C17   A    
C58   H39   S    
C46   O10   S    
C23   O7    A    
Cu1   O4    S    
C25   H6    S    
C32   C38   A    
C26   H5    S    
C21   H7    S    
C59   C60   S    
C10   H17   S    
C36   H10   S    
C40   C42   A    
C26   N6    A    
C23   O5    A    
C25   N5    A    
C41   C43   A    
C20   H16   S    
C42   C44   A    
Cu1   O5    S    
Cu2   O2    S    
C57   H36   S    
C44   C46   A    
C7    H20   S    
C45   C47   A    
C24   C50   S    
C64   H54   S    
C46   C48   A    
C15   C16   A    
C30   C34   A    
C28   N6    A    
C14   C20   A    
C27   N5    A    
Cu2   O7    S    
C47   C49   A    
C56   C57   S    
N7    H23   S    
C5    C7    A    
C13   C19   A    
C60   C61   S    
C63   H51   S    
C61   H47   S    
C28   H3    S    
N7    H24   S    
C31   C37   A    
Cu1   N6    S    
C1    C3    S    
C5    H21   S    
C2    C4    S    
C3    C9    A    
C22   H8    S    
C24   O6    A    
C58   H40   S    
C33   C34   A    
N1    N3    A    
C47   H13   S    
C48   H14   S    
N8    H26   S    
C43   C45   A    
C10   C12   A    
C57   H37   S    
C44   C51   S    
C39   C49   A    
C12   C14   A    
C54   C55   S    
C53   H28   S    
C9    C11   A    
C19   H15   S    
C1    O3    A    
C4    C10   A    
C52   N1    A    
C59   H41   S    
C21   C25   A    
C61   H46   S    
C64   H53   S    
C5    C13   A    
C40   N8    S    
C62   H49   S    
C27   H4    S    
C24   O8    A    
Cu2   O3    S    
C6    C8    A    
O11   C59   S    
C6    H22   S    
C63   H50   S    
C1    O1    A    
C53   C54   S    
C64   H52   S    
Cu1   O1    S    
C28   C30   A    
O12   C62   S    
C51   N2    A    
C29   C31   A    
C45   O9    S    
C56   H34   S    
C36   C38   A    
C30   C32   A    
C11   C13   A    
C40   C50   A    
C48   C50   A    
C8    H19   S    
C17   C19   A    
C2    O4    A    
C18   C20   A    
Cu2   N5    S    
C41   H11   S    
N8    H25   S    
C51   N3    A    
C18   O12   S    
C17   O11   S    
C37   H1    S    
C38   H2    S    
C54   H30   S    
C53   H27   S    
C22   C26   A    
Cu1   O8    S    
C42   H12   S    
C35   H9    S    
C52   N4    A    
C55   H33   S    
C62   H48   S    
