data_mof_unit_11938.cif
_audit_creation_date              2012-12-11T16:56:09-0500
_audit_creation_method            fapswitch 2.2
_symmetry_space_group_name_H-M    P1
_symmetry_Int_Tables_number       1
_space_group_crystal_system       triclinic
_cell_length_a                    6.987528
_cell_length_b                    14.520899
_cell_length_c                    16.214603
_cell_angle_alpha                 90.482501
_cell_angle_beta                  89.929073
_cell_angle_gamma                 90.188619
_cell_volume                      1645.14929123

loop_
_atom_site_label
_atom_site_type_symbol
_atom_type_description
_atom_site_fract_x
_atom_site_fract_y
_atom_site_fract_z
_atom_type_partial_charge
O1    O     O_R   0.505830 0.583360 0.413880 -0.519493
O2    O     O_R   0.175830 0.595460 0.585520 -0.547874
O3    O     O_R   0.005520 0.416640 0.586120 -0.532864
C1    C     C_R   0.344646 0.617085 0.614421 0.732179
O4    O     O_R   0.176120 0.594390 0.414490 -0.551533
O5    O     O_R   0.005810 0.415570 0.413870 -0.548655
C2    C     C_R   0.345147 0.614778 0.384939 0.716276
O6    O     O_R   0.505540 0.584430 0.586130 -0.539684
O7    O     O_3   0.339200 0.441330 0.500000 -0.361766
V1    V     V_3+5 0.064350 0.510880 0.500000 1.471230
O8    O     O_R   0.676100 0.404540 0.414480 -0.534152
C3    C     C_R   0.844939 0.382663 0.385795 0.747752
O9    O     O_R   0.675810 0.405610 0.585510 -0.506586
C4    C     C_R   0.843669 0.384826 0.614640 0.783430
V2    V     V_3+5 0.564340 0.489120 0.500000 1.534336
O10   O     O_3   0.839360 0.558670 0.500000 -0.381590
C5    C     C_2   0.721680 0.215768 0.793256 -0.138164
C6    C     C_2   0.886801 0.184204 0.824891 -0.317000
H1    H     H_    0.587448 0.189112 0.817272 0.184060
H2    H     H_    0.023232 0.211845 0.804876 0.164801
C7    C     C_2   0.706168 0.288831 0.729618 0.408760
C8    C     C_2   0.854845 0.315174 0.680958 -0.349162
H3    H     H_    0.993910 0.283717 0.688794 0.146262
C9    C     C_R   0.716606 0.190426 0.234808 0.032237
C10   C     C_R   0.880900 0.182321 0.186069 -0.068911
C11   C     C_R   0.034912 0.240819 0.205052 -0.146352
H4    H     H_    0.158439 0.240572 0.165878 0.180361
C12   C     C_R   0.024074 0.305062 0.270333 -0.126075
H5    H     H_    0.142017 0.352214 0.280054 0.145312
C13   C     C_R   0.857676 0.312698 0.318948 -0.064357
C14   C     C_R   0.706247 0.252418 0.301096 0.036917
C15   C     C_3   0.504830 0.276860 0.281610 -0.414766
C16   C     C_3   0.518779 0.212729 0.207496 0.118491
H6    H     H_    0.488351 0.350831 0.265926 0.229780
H7    H     H_    0.404943 0.251513 0.329813 0.137831
H8    H     H_    0.422142 0.151915 0.210740 0.081234
C17   C     C_R   0.484278 0.673614 0.748976 0.145129
C18   C     C_R   0.352290 0.683049 0.684692 -0.152771
C19   C     C_R   0.218447 0.754975 0.691979 -0.208543
H9    H     H_    0.110792 0.763512 0.644664 0.154182
C20   C     C_R   0.231263 0.820993 0.756354 0.247088
C21   C     C_R   0.375184 0.813866 0.818133 -0.153768
C22   C     C_R   0.493920 0.736293 0.814178 0.077256
C23   C     C_3   0.706329 0.727849 0.819768 -0.367429
C24   C     C_3   0.695649 0.659664 0.748013 -0.390229
H10   H     H_    0.752173 0.695751 0.878486 0.215568
H11   H     H_    0.781213 0.792874 0.804184 0.216358
H12   H     H_    0.735739 0.588423 0.765454 0.196205
H13   H     H_    0.764217 0.685581 0.690752 0.178186
C25   C     C_R   0.523741 0.731935 0.300635 -0.035860
C26   C     C_R   0.356112 0.682299 0.316665 -0.041766
C27   C     C_R   0.201673 0.696055 0.262956 -0.140991
H14   H     H_    0.078023 0.652598 0.267978 0.181403
C28   C     C_R   0.212881 0.759981 0.198108 -0.136683
H15   H     H_    0.096424 0.765735 0.155359 0.173267
C29   C     C_R   0.379688 0.811373 0.183994 -0.042146
C30   C     C_R   0.535458 0.794496 0.235615 -0.046072
C31   C     C_3   0.730898 0.763017 0.212138 0.117450
C32   C     C_3   0.719287 0.695658 0.283897 0.233249
H16   H     H_    0.835479 0.819587 0.222650 0.034369
H17   H     H_    0.817303 0.713284 0.335635 0.036233
O11   O     O_R   0.229930 0.912420 0.917160 -0.518480
O12   O     O_R   0.559420 0.902500 0.088780 -0.528940
O13   O     O_R   0.729660 0.081330 0.089380 -0.533328
C33   C     C_R   0.390374 0.879520 0.116274 0.698418
O14   O     O_R   0.559650 0.901420 0.917750 -0.536303
O15   O     O_R   0.729880 0.080250 0.917130 -0.537735
C34   C     C_R   0.390505 0.881242 0.887569 0.767335
O16   O     O_R   0.229700 0.913500 0.089410 -0.554366
O17   O     O_3   0.396250 0.055540 0.003280 -0.363109
V3    V     V_3+5 0.671130 0.986010 0.003260 1.531368
O18   O     O_R   0.059600 0.091310 0.917720 -0.528458
C35   C     C_R   0.891325 0.113765 0.890197 0.834018
O19   O     O_R   0.059370 0.092380 0.088750 -0.551615
C36   C     C_R   0.890510 0.115154 0.116745 0.701875
V4    V     V_3+5 0.171120 0.007820 0.003230 1.522244
O20   O     O_3   0.896130 0.938240 0.003240 -0.362381
Br1   Br    Br    0.065844 0.926040 0.748602 -0.599497
Br2   Br    Br    0.740114 0.707446 0.101111 -0.445075
Cl1   Cl    Cl    0.721545 0.575350 0.255694 -0.574552
Cl2   Cl    Cl    0.476649 0.339000 0.722023 -0.645854
Br3   Br    Br    0.515550 0.279745 0.103231 -0.467514

loop_
_geom_bond_atom_site_label_1
_geom_bond_atom_site_label_2
_ccdc_geom_bond_type
O14   C34   A    
O12   C33   A    
C20   C21   A    
O18   V4    S    
C19   C20   A    
C23   C24   S    
C11   H4    S    
O19   V4    S    
C25   C32   S    
C12   H5    S    
O5    C3    A    
C13   C14   A    
C31   H16   S    
C29   C33   S    
C16   H8    S    
C29   C30   A    
O16   V4    S    
O13   V3    S    
O8    V2    S    
C14   C15   S    
C23   H10   S    
O17   V3    S    
O15   C35   A    
C16   Br3   S    
O15   V3    S    
C23   H11   S    
C1    O6    A    
O9    C4    A    
C21   C34   S    
O11   V4    S    
C27   C28   A    
C5    C6    D    
C28   C29   A    
C32   H17   S    
O19   C36   A    
C26   C27   A    
C15   H7    S    
C9    C10   A    
C20   Br1   S    
O4    C2    A    
C10   C11   A    
C5    C7    S    
C10   C36   S    
C15   H6    S    
C17   C22   A    
O2    C1    A    
C22   C23   S    
C17   C18   A    
O14   V3    S    
C24   H13   S    
C25   C26   A    
V4    O20   S    
O12   V3    S    
O3    C4    A    
C31   Br2   S    
O1    V2    S    
C7    Cl2   S    
C6    C35   S    
O9    V2    S    
O17   V4    S    
C31   C32   S    
C21   C22   A    
C17   C24   S    
O2    V1    S    
V3    O20   S    
C27   H14   S    
O7    V1    S    
C24   H12   S    
C28   H15   S    
C3    C13   S    
O1    C2    A    
C25   C30   A    
C1    C18   S    
O18   C35   A    
C32   Cl1   S    
O5    V1    S    
O8    C3    A    
O6    V2    S    
C11   C12   A    
C9    C16   S    
O11   C34   A    
C15   C16   S    
C4    C8    S    
C12   C13   A    
O7    V2    S    
C9    C14   A    
C2    C26   S    
O4    V1    S    
O3    V1    S    
V1    O10   S    
C30   C31   S    
C18   C19   A    
C33   O16   A    
C5    H1    S    
O13   C36   A    
C6    H2    S    
C19   H9    S    
C8    H3    S    
C7    C8    D    
V2    O10   S    
