data_mof_unit_44421.cif
_audit_creation_date              2012-12-10T17:11:49-0500
_audit_creation_method            fapswitch 2.2
_symmetry_space_group_name_H-M    P1
_symmetry_Int_Tables_number       1
_space_group_crystal_system       triclinic
_cell_length_a                    19.06225
_cell_length_b                    10.63927
_cell_length_c                    10.033589
_cell_angle_alpha                 88.649066
_cell_angle_beta                  89.829239
_cell_angle_gamma                 90.203475
_cell_volume                      2034.30838692

loop_
_atom_site_label
_atom_site_type_symbol
_atom_type_description
_atom_site_fract_x
_atom_site_fract_y
_atom_site_fract_z
_atom_type_partial_charge
C1    C     C_R   0.492139 0.262655 0.501437 0.892599
C2    C     C_R   0.290807 0.531380 0.500439 -0.096783
C3    C     C_R   0.930813 0.557585 0.492773 0.299143
C4    C     C_R   0.071159 0.578958 0.495806 0.278085
C5    C     C_R   0.813451 0.633251 0.548232 -0.051146
C6    C     C_R   0.740928 0.617053 0.553315 -0.087095
C7    C     C_R   0.710406 0.509089 0.498695 -0.141988
C8    C     C_R   0.751970 0.414415 0.440613 0.058748
C9    C     C_R   0.825878 0.429733 0.438484 0.090689
C10   C     C_R   0.855345 0.540539 0.490992 -0.034490
C11   C     C_2   0.445361 0.929964 0.413152 0.078846
C12   C     C_R   0.365689 0.505764 0.500227 0.844925
C13   C     C_2   0.492841 0.870140 0.490859 -0.329083
C14   C     C_2   0.455021 0.065528 0.397707 -0.070601
C15   C     C_2   0.465718 0.134595 0.507774 -0.260948
C16   C     C_2   0.556607 0.503619 0.924385 -0.122621
C17   C     C_2   0.554861 0.481131 0.072726 -0.126433
C18   C     C_R   0.497834 0.737480 0.498141 0.927638
C19   C     C_R   0.634350 0.498661 0.499712 0.887465
C20   C     C_R   0.261355 0.619664 0.587947 -0.035907
C21   C     C_R   0.188303 0.641113 0.586448 0.077419
C22   C     C_R   0.147111 0.574935 0.493924 0.052252
C23   C     C_R   0.177935 0.494196 0.403034 -0.196811
C24   C     C_R   0.249189 0.472166 0.406580 -0.222611
H1    H     H_    0.532917 0.920878 0.544687 0.140234
H2    H     H_    0.607192 0.516091 0.876088 0.169510
H3    H     H_    0.455581 0.467260 0.896405 0.184062
H4    H     H_    0.602237 0.445209 0.119261 0.150327
H5    H     H_    0.146132 0.443955 0.332273 0.156907
H6    H     H_    0.271777 0.406723 0.337415 0.162968
N1    N     N_R   0.035217 0.603421 0.381855 -0.180500
N2    N     N_R   0.965774 0.593594 0.380571 -0.176773
N3    N     N_R   0.966607 0.532946 0.606503 -0.170763
N4    N     N_R   0.035948 0.542692 0.607681 -0.179280
N5    N     N_2   0.500750 0.501330 0.852150 -0.181685
N6    N     N_2   0.500770 0.501360 0.147810 -0.140805
O1    O     O_R   0.499990 0.319060 0.613040 -0.605440
O2    O     O_R   0.500010 0.319100 0.386900 -0.605101
O3    O     O_R   0.398130 0.499970 0.613110 -0.606444
O4    O     O_R   0.398150 0.500010 0.386970 -0.629150
O5    O     O_R   0.499990 0.680900 0.613100 -0.577389
O6    O     O_R   0.500010 0.680940 0.386960 -0.623430
O7    O     O_R   0.601850 0.499990 0.613030 -0.615800
O8    O     O_R   0.601870 0.500030 0.386890 -0.623338
Zn1   Zn    Zn3+2 0.499990 0.499970 0.650990 0.976520
Zn2   Zn    Zn3+2 0.500010 0.500030 0.349010 0.952092
C25   C     C_1   0.306527 0.693289 0.672518 0.153286
N7    N     N_1   0.342574 0.752212 0.739746 -0.168017
C26   C     C_1   0.461673 0.114521 0.262029 0.218751
N8    N     N_1   0.466883 0.153119 0.153611 -0.193784
C27   C     C_1   0.444788 0.086490 0.639461 0.210332
N9    N     N_1   0.428146 0.048471 0.743911 -0.172506
C28   C     C_1   0.450461 0.586642 0.101911 0.333755
N10   N     N_1   0.408578 0.657509 0.064377 -0.245305
C29   C     C_3   0.154775 0.735827 0.679057 -0.422362
C30   C     C_3   0.134086 0.856521 0.602534 -0.351713
C31   C     C_3   0.095952 0.947488 0.692805 -0.839275
H7    H     H_    0.046780 0.903941 0.732039 0.272626
H8    H     H_    0.130027 0.973538 0.777509 0.261136
H9    H     H_    0.082342 0.034248 0.634993 0.250319
H10   H     H_    0.182067 0.903379 0.562371 0.227051
H11   H     H_    0.099286 0.834338 0.517596 0.234825
H12   H     H_    0.108435 0.693771 0.730106 0.223490
H13   H     H_    0.190444 0.761450 0.761326 0.208430
C32   C     C_1   0.845213 0.745931 0.601379 0.191775
N11   N     N_1   0.870545 0.835598 0.643583 -0.207875
C33   C     C_1   0.697562 0.712789 0.613230 0.184106
N12   N     N_1   0.663058 0.788692 0.661438 -0.216714
C34   C     C_3   0.717139 0.295655 0.388308 -0.446591
C35   C     C_3   0.697781 0.204237 0.503140 -0.344358
C36   C     C_3   0.664742 0.084207 0.451222 -0.857000
H14   H     H_    0.616981 0.106528 0.392295 0.260938
H15   H     H_    0.702700 0.033701 0.387759 0.265008
H16   H     H_    0.649741 0.021874 0.536781 0.259178
H17   H     H_    0.745653 0.179187 0.560780 0.229932
H18   H     H_    0.659981 0.248997 0.571675 0.225812
H19   H     H_    0.669806 0.319435 0.329308 0.219838
H20   H     H_    0.750616 0.246404 0.316282 0.210739
C37   C     C_3   0.873730 0.327337 0.385520 -0.419503
C38   C     C_3   0.884115 0.342164 0.234121 -0.339425
C39   C     C_3   0.929295 0.236517 0.180478 -0.856753
H21   H     H_    0.981803 0.237079 0.228228 0.262931
H22   H     H_    0.903613 0.144023 0.200235 0.262478
H23   H     H_    0.936230 0.249979 0.071144 0.254981
H24   H     H_    0.832793 0.341835 0.182110 0.216473
H25   H     H_    0.910127 0.433477 0.210154 0.244328
H26   H     H_    0.925835 0.329073 0.434555 0.209115
H27   H     H_    0.853032 0.232494 0.412595 0.205935
C40   C     C_3   0.386570 0.865503 0.337594 -0.349262
C41   C     C_3   0.315050 0.923923 0.368385 -0.381829
C42   C     C_3   0.256443 0.859039 0.292316 -0.858362
H28   H     H_    0.266007 0.867750 0.183217 0.273122
H29   H     H_    0.253344 0.757961 0.321759 0.276484
H30   H     H_    0.205426 0.903804 0.315127 0.243924
H31   H     H_    0.304308 0.914979 0.477119 0.229008
H32   H     H_    0.315207 0.025426 0.339534 0.231070
H33   H     H_    0.397504 0.874989 0.228985 0.217621
H34   H     H_    0.382747 0.763894 0.363392 0.213826

loop_
_geom_bond_atom_site_label_1
_geom_bond_atom_site_label_2
_ccdc_geom_bond_type
C29   C30   S    
C34   H19   S    
C2    C12   S    
C37   H26   S    
C39   H21   S    
C41   C42   S    
C7    C8    A    
C28   N10   T    
O4    Zn2   S    
C8    C34   S    
C13   C18   S    
C23   H5    S    
C18   O6    A    
C16   N5    D    
C9    C37   S    
C5    C6    A    
C11   C14   S    
C31   H8    S    
C14   C26   S    
C3    N3    A    
C30   C31   S    
O6    Zn2   S    
C38   H25   S    
N6    C28   S    
C25   N7    T    
C19   O7    A    
C16   C17   S    
C29   H12   S    
C23   C24   A    
N6    Zn2   S    
C35   C36   S    
C1    C15   S    
C17   N6    D    
C15   C27   S    
C9    C10   A    
C1    O1    A    
O3    Zn1   S    
C21   C22   A    
C13   H1    S    
C34   H20   S    
C3    N2    A    
C37   H27   S    
C39   H22   S    
O8    Zn2   S    
C16   H2    S    
C4    N4    A    
C2    C20   A    
C27   N9    T    
C4    N1    A    
C41   H31   S    
C5    C32   S    
C18   O5    A    
C42   H28   S    
C36   H15   S    
C8    C9    A    
C31   H9    S    
H3    N5    S    
C33   N12   T    
C40   H33   S    
C12   O4    A    
C38   H24   S    
C42   H29   S    
C4    C22   S    
C11   C40   S    
N1    N2    A    
C14   C15   D    
C29   H13   S    
N3    N4    A    
O7    Zn1   S    
C1    O2    A    
C6    C33   S    
C26   N8    T    
C7    C19   S    
C2    C24   A    
C30   H11   S    
O1    Zn1   S    
N5    Zn1   S    
C39   H23   S    
C19   O8    A    
C21   C29   S    
C22   C23   A    
C17   H4    S    
C38   C39   S    
C36   H16   S    
C41   H32   S    
C6    C7    A    
C40   H34   S    
C12   O3    A    
C5    C10   A    
C3    C10   S    
C42   H30   S    
C35   H18   S    
C11   C13   D    
C31   H7    S    
C34   C35   S    
C24   H6    S    
O2    Zn2   S    
C20   C25   S    
C37   C38   S    
C36   H14   S    
C20   C21   A    
C32   N11   T    
C35   H17   S    
O5    Zn1   S    
C30   H10   S    
C40   C41   S    
