data_mof_unit_64868.cif
_audit_creation_date              2012-12-10T18:14:11-0500
_audit_creation_method            fapswitch 2.2
_symmetry_space_group_name_H-M    P1
_symmetry_Int_Tables_number       1
_space_group_crystal_system       triclinic
_cell_length_a                    32.262211
_cell_length_b                    32.262136
_cell_length_c                    23.700351
_cell_angle_alpha                 89.99951
_cell_angle_beta                  89.999821
_cell_angle_gamma                 90.0
_cell_volume                      24668.4591195

loop_
_atom_site_label
_atom_site_type_symbol
_atom_type_description
_atom_site_fract_x
_atom_site_fract_y
_atom_site_fract_z
_atom_type_partial_charge
C1    C     C_R   1.000000 0.420426 0.500001 0.809503
C2    C     C_R   0.420426 0.000000 0.500000 0.809961
C3    C     C_R   1.000000 0.579574 0.499999 0.809498
C4    C     C_R   0.579574 1.000000 0.500000 0.811402
C5    C     C_R   0.500000 0.920426 0.000000 0.809855
C6    C     C_R   0.920426 0.500000 0.000000 0.809731
C7    C     C_R   0.500000 0.079574 1.000000 0.809707
C8    C     C_R   0.079574 0.500000 1.000000 0.809747
C9    C     C_1   0.000002 0.161461 0.500006 0.195934
C10   C     C_1   0.161461 1.000000 0.500000 0.195892
C11   C     C_1   0.000002 0.838538 0.499994 0.195929
C12   C     C_1   0.838538 0.000000 0.500000 0.196242
C13   C     C_1   0.500000 0.661462 0.999999 0.195866
C14   C     C_1   0.661461 0.500000 0.000000 0.195831
C15   C     C_1   0.500000 0.338539 0.000000 0.195845
C16   C     C_1   0.338539 0.500000 0.999999 0.195879
C17   C     C_1   0.000001 0.338467 0.500008 0.119576
C18   C     C_1   0.338467 0.000000 0.500000 0.119469
C19   C     C_1   0.000001 0.661532 0.499992 0.119571
C20   C     C_1   0.661532 1.000000 0.500000 0.118962
C21   C     C_1   0.500000 0.838468 0.000000 0.119507
C22   C     C_1   0.838467 0.500000 0.000001 0.119447
C23   C     C_1   0.500000 0.161533 1.000000 0.119565
C24   C     C_1   0.161533 0.500000 0.999999 0.119501
C25   C     C_1   0.000000 0.375883 0.500004 -0.153779
C26   C     C_1   0.375883 1.000000 0.500000 -0.153813
C27   C     C_1   0.000000 0.624117 0.499996 -0.153784
C28   C     C_1   0.624116 1.000000 0.500000 -0.154170
C29   C     C_1   0.500000 0.875883 0.000000 -0.153605
C30   C     C_1   0.875883 0.500000 0.000000 -0.153872
C31   C     C_1   0.500000 0.124117 1.000000 -0.153565
C32   C     C_1   0.124117 0.500000 1.000000 -0.153832
C33   C     C_1   0.000001 0.124040 0.500002 -0.087352
C34   C     C_1   0.124040 0.000000 0.500000 -0.087223
C35   C     C_1   0.000001 0.875960 0.499998 -0.087358
C36   C     C_1   0.875959 0.000000 0.500000 -0.086948
C37   C     C_1   0.500000 0.624040 0.999999 -0.087312
C38   C     C_1   0.624040 0.500000 0.000000 -0.087363
C39   C     C_1   0.500000 0.375960 0.000000 -0.087330
C40   C     C_1   0.375960 0.500000 1.000000 -0.087318
C41   C     C_R   1.000000 0.500000 0.391696 0.817695
C42   C     C_R   0.500000 0.000000 0.391696 0.818722
C43   C     C_R   1.000000 0.500000 0.608304 0.817695
C44   C     C_R   0.499999 1.000000 0.608304 0.818721
C45   C     C_R   0.500000 0.000000 0.891696 0.817918
C46   C     C_R   0.000000 0.500000 0.891696 0.817909
C47   C     C_R   0.500000 0.000000 0.108304 0.817918
C48   C     C_R   0.000000 0.500000 0.108304 0.817909
C49   C     C_R   0.079500 1.000000 0.500000 0.820747
C50   C     C_R   0.000000 0.920500 0.500000 0.820608
C51   C     C_R   0.920500 0.000000 0.500000 0.820454
C52   C     C_R   0.000000 0.079500 0.500000 0.820609
C53   C     C_R   0.579500 0.500000 1.000000 0.820844
C54   C     C_R   0.500000 0.420500 0.000000 0.820857
C55   C     C_R   0.420500 0.500000 0.000000 0.820856
C56   C     C_R   0.500000 0.579500 1.000000 0.820844
C57   C     C_1   0.000000 0.500000 0.330910 -0.159606
C58   C     C_1   0.499999 0.000000 0.330910 -0.158635
C59   C     C_1   1.000000 0.500000 0.669090 -0.159606
C60   C     C_1   0.499999 1.000000 0.669090 -0.158635
C61   C     C_1   0.500000 0.000000 0.830910 -0.158791
C62   C     C_1   1.000000 0.500000 0.830910 -0.159502
C63   C     C_1   0.500000 1.000000 0.169090 -0.158791
C64   C     C_1   0.000000 0.499999 0.169090 -0.159502
C65   C     C_1   0.000000 0.500000 0.279901 0.018446
C66   C     C_1   0.499999 0.000000 0.279901 0.019442
C67   C     C_1   1.000000 0.500000 0.720099 0.018446
C68   C     C_1   0.499999 1.000000 0.720099 0.019442
C69   C     C_1   0.499999 0.000000 0.779901 0.019344
C70   C     C_1   1.000000 0.500000 0.779901 0.018497
C71   C     C_1   0.499999 1.000000 0.220099 0.019344
C72   C     C_1   0.000000 0.499999 0.220099 0.018497
C73   C     C_R   0.037690 0.228204 0.497300 0.271339
C74   C     C_R   0.228204 0.962260 0.499561 0.271446
C75   C     C_R   0.962314 0.771796 0.497262 0.271531
C76   C     C_R   0.771795 0.037331 0.507551 0.271816
C77   C     C_R   0.962313 0.228204 0.502728 0.271535
C78   C     C_R   0.771795 0.962668 0.492449 0.271811
C79   C     C_R   0.037690 0.771796 0.502709 0.271335
C80   C     C_R   0.228204 0.037740 0.500439 0.271449
C81   C     C_R   0.537741 0.728204 0.000059 0.271429
C82   C     C_R   0.728204 0.462271 0.998700 0.271375
C83   C     C_R   0.462263 0.271796 0.999175 0.271435
C84   C     C_R   0.271796 0.537729 0.998677 0.271425
C85   C     C_R   0.462259 0.728204 0.999940 0.271453
C86   C     C_R   0.271796 0.462271 0.001320 0.271410
C87   C     C_R   0.537736 0.271796 0.000825 0.271410
C88   C     C_R   0.728204 0.537729 0.001303 0.271390
C89   C     C_R   0.000002 0.206323 0.500012 -0.195450
C90   C     C_R   0.206323 1.000000 0.500000 -0.195687
C91   C     C_R   0.000002 0.793676 0.499988 -0.195450
C92   C     C_R   0.793675 0.000000 0.500000 -0.195348
C93   C     C_R   0.500000 0.706324 0.999999 -0.195631
C94   C     C_R   0.706323 0.500000 0.000001 -0.195626
C95   C     C_R   0.500000 0.293677 0.000000 -0.195667
C96   C     C_R   0.293677 0.500000 0.999999 -0.195621
C97   C     C_R   0.962330 0.271810 0.504356 0.377962
C98   C     C_R   0.271810 0.037775 0.502067 0.377896
C99   C     C_R   0.037672 0.728189 0.504339 0.378068
C100  C     C_R   0.728188 0.962448 0.494039 0.377309
C101  C     C_R   0.037672 0.271811 0.495670 0.378077
C102  C     C_R   0.728188 0.037552 0.505961 0.377302
C103  C     C_R   0.962331 0.728190 0.495634 0.377956
C104  C     C_R   0.271810 0.962225 0.497934 0.377905
C105  C     C_R   0.462211 0.771810 0.001567 0.377818
C106  C     C_R   0.771810 0.537745 0.002931 0.377844
C107  C     C_R   0.537763 0.228190 0.002452 0.377931
C108  C     C_R   0.228190 0.462256 0.002949 0.377930
C109  C     C_R   0.537788 0.771810 0.998433 0.377854
C110  C     C_R   0.228190 0.537744 0.997048 0.377906
C111  C     C_R   0.462237 0.228190 0.997547 0.377893
C112  C     C_R   0.771810 0.462255 0.997071 0.377868
C113  C     C_R   0.000001 0.293622 0.500011 -0.203584
C114  C     C_R   0.293622 1.000000 0.500000 -0.203622
C115  C     C_R   0.000001 0.706378 0.499989 -0.203583
C116  C     C_R   0.706377 1.000000 0.500000 -0.203314
C117  C     C_R   0.500000 0.793622 1.000000 -0.203613
C118  C     C_R   0.793621 0.500000 0.000001 -0.203596
C119  C     C_R   0.500000 0.206378 1.000000 -0.203650
C120  C     C_R   0.206378 0.500000 0.999999 -0.203598
Cu1   Cu    Cu3+1 0.958970 0.500000 0.500000 1.005738
Cu2   Cu    Cu3+1 0.500000 0.041030 0.500000 1.004547
Cu3   Cu    Cu3+1 0.041030 0.500000 0.500000 1.006154
Cu4   Cu    Cu3+1 0.500000 0.958970 0.500000 1.004695
Cu5   Cu    Cu3+1 0.458970 0.000000 0.000000 1.005668
Cu6   Cu    Cu3+1 0.000000 0.541030 0.000000 1.005593
Cu7   Cu    Cu3+1 0.541030 0.000000 0.000000 1.007103
Cu8   Cu    Cu3+1 0.000000 0.458970 0.000000 1.005638
Cu9   Cu    Cu3+1 1.000000 0.000000 0.444230 1.047314
Cu10  Cu    Cu3+1 0.000000 1.000000 0.555770 1.047314
Cu11  Cu    Cu3+1 0.500000 0.500000 0.944230 1.046665
Cu12  Cu    Cu3+1 0.500000 0.500000 0.055770 1.046664
O1    O     O_R   0.965350 0.440130 0.499980 -0.571708
O2    O     O_R   0.440130 0.034650 0.499980 -0.571920
O3    O     O_R   0.034650 0.559870 0.499980 -0.571583
O4    O     O_R   0.559870 0.965350 0.499980 -0.572846
O5    O     O_R   0.034650 0.440130 0.500020 -0.571583
O6    O     O_R   0.559870 0.034650 0.500020 -0.572877
O7    O     O_R   0.965350 0.559870 0.500020 -0.571709
O8    O     O_R   0.440130 0.965350 0.500020 -0.571888
O9    O     O_R   0.465350 0.940130 0.999980 -0.572016
O10   O     O_R   0.940130 0.534650 0.999980 -0.571805
O11   O     O_R   0.534650 0.059870 0.999980 -0.571609
O12   O     O_R   0.059870 0.465350 0.999980 -0.571784
O13   O     O_R   0.534650 0.940130 0.000020 -0.571709
O14   O     O_R   0.059870 0.534650 0.000020 -0.571798
O15   O     O_R   0.465350 0.059870 0.000020 -0.571917
O16   O     O_R   0.940130 0.465350 0.000020 -0.571791
O17   O     O_R   0.059790 0.999980 0.452860 -0.570519
O18   O     O_R   0.999980 0.940210 0.452860 -0.569795
O19   O     O_R   0.940210 0.000020 0.452860 -0.570193
O20   O     O_R   0.000020 0.059790 0.452860 -0.571169
O21   O     O_R   0.940210 0.999980 0.547140 -0.570200
O22   O     O_R   0.000020 0.940210 0.547140 -0.571172
O23   O     O_R   0.059790 0.000020 0.547140 -0.570511
O24   O     O_R   0.999980 0.059790 0.547140 -0.569793
O25   O     O_R   0.559790 0.499980 0.952860 -0.570635
O26   O     O_R   0.499980 0.440210 0.952860 -0.570526
O27   O     O_R   0.440210 0.500020 0.952860 -0.570454
O28   O     O_R   0.500020 0.559790 0.952860 -0.570546
O29   O     O_R   0.440210 0.499980 0.047140 -0.570613
O30   O     O_R   0.500020 0.440210 0.047140 -0.570562
O31   O     O_R   0.559790 0.500020 0.047140 -0.570476
O32   O     O_R   0.499980 0.559790 0.047140 -0.570509
O33   O     O_R   0.965350 0.499980 0.418590 -0.574241
O34   O     O_R   0.499980 0.034650 0.418590 -0.574363
O35   O     O_R   0.034650 0.500020 0.418590 -0.574151
O36   O     O_R   0.500020 0.965350 0.418590 -0.574055
O37   O     O_R   0.034650 0.499980 0.581410 -0.574140
O38   O     O_R   0.500020 0.034650 0.581410 -0.574110
O39   O     O_R   0.965350 0.500020 0.581410 -0.574252
O40   O     O_R   0.499980 0.965350 0.581410 -0.574308
O41   O     O_R   0.465350 0.999980 0.918590 -0.574301
O42   O     O_R   0.999980 0.534650 0.918590 -0.574265
O43   O     O_R   0.534650 0.000020 0.918590 -0.573825
O44   O     O_R   0.000020 0.465350 0.918590 -0.574174
O45   O     O_R   0.534650 0.999980 0.081410 -0.573776
O46   O     O_R   0.000020 0.534650 0.081410 -0.574185
O47   O     O_R   0.465350 0.000020 0.081410 -0.574350
O48   O     O_R   0.999980 0.465350 0.081410 -0.574253
O49   O     O_3   0.074837 0.293124 0.493456 -0.519264
C121  C     C_3   0.084583 0.300734 0.436372 -0.180114
H1    H     H_    0.060843 0.320736 0.415897 0.131021
H2    H     H_    0.088247 0.271322 0.412332 0.185357
H3    H     H_    0.114588 0.317462 0.434484 0.193999
O50   O     O_3   0.293123 0.925024 0.497964 -0.519459
C122  C     C_3   0.300735 0.913432 0.441523 -0.179483
H4    H     H_    0.320738 0.936482 0.419639 0.131218
H5    H     H_    0.271323 0.908990 0.417726 0.185444
H6    H     H_    0.317462 0.883394 0.441446 0.194040
O51   O     O_3   0.925166 0.706877 0.493410 -0.519867
C123  C     C_3   0.915431 0.699265 0.436324 -0.180015
H7    H     H_    0.939173 0.679261 0.415858 0.131251
H8    H     H_    0.911772 0.728677 0.412280 0.186000
H9    H     H_    0.885425 0.682539 0.434427 0.193723
O52   O     O_3   0.706876 0.074293 0.513894 -0.520450
C124  C     C_3   0.699265 0.092218 0.460610 -0.177983
H10   H     H_    0.682537 0.121895 0.466921 0.194114
H11   H     H_    0.679263 0.071961 0.434095 0.131968
H12   H     H_    0.728677 0.099338 0.438052 0.186317
O53   O     O_3   0.925165 0.293122 0.506571 -0.519860
C125  C     C_3   0.915422 0.300735 0.563655 -0.180026
H13   H     H_    0.939162 0.320739 0.584127 0.131254
H14   H     H_    0.911760 0.271323 0.587699 0.185997
H15   H     H_    0.885417 0.317461 0.565545 0.193715
O54   O     O_3   0.706876 0.925707 0.486106 -0.520425
C126  C     C_3   0.699265 0.907782 0.539389 -0.177948
H16   H     H_    0.679263 0.928039 0.565905 0.131959
H17   H     H_    0.728677 0.900662 0.561948 0.186295
H18   H     H_    0.682537 0.878105 0.533079 0.194138
O55   O     O_3   0.074837 0.706876 0.506562 -0.519271
C127  C     C_3   0.084574 0.699266 0.563648 -0.180102
H19   H     H_    0.060832 0.679264 0.584118 0.131017
H20   H     H_    0.088235 0.728678 0.587689 0.185359
H21   H     H_    0.114579 0.682538 0.565544 0.194008
O56   O     O_3   0.293123 0.074976 0.502037 -0.519485
C128  C     C_3   0.300735 0.086568 0.558477 -0.179509
H22   H     H_    0.320738 0.063518 0.580362 0.131228
H23   H     H_    0.271323 0.091010 0.582275 0.185467
H24   H     H_    0.317462 0.116606 0.558555 0.194019
O57   O     O_3   0.574987 0.793123 0.998960 -0.519417
C129  C     C_3   0.586987 0.800734 0.942678 -0.178935
H25   H     H_    0.617024 0.817460 0.943003 0.194257
H26   H     H_    0.564098 0.820738 0.920485 0.131233
H27   H     H_    0.591601 0.771322 0.918942 0.185401
O58   O     O_3   0.793123 0.425059 0.996250 -0.519546
C130  C     C_3   0.800734 0.414166 0.939553 -0.179552
H28   H     H_    0.820738 0.437482 0.918198 0.131122
H29   H     H_    0.771323 0.410018 0.915657 0.185530
H30   H     H_    0.817461 0.384133 0.938789 0.194065
O59   O     O_3   0.425037 0.206877 0.997197 -0.519500
C131  C     C_3   0.413756 0.199266 0.940640 -0.179520
H31   H     H_    0.436926 0.179263 0.918991 0.131232
H32   H     H_    0.409446 0.228678 0.916798 0.185487
H33   H     H_    0.383720 0.182539 0.940256 0.194021
O60   O     O_3   0.206877 0.574940 0.996207 -0.519553
C132  C     C_3   0.199266 0.585818 0.939504 -0.179659
H34   H     H_    0.179262 0.562496 0.918162 0.131178
H35   H     H_    0.228677 0.589959 0.915606 0.185588
H36   H     H_    0.182539 0.615851 0.938724 0.193963
O61   O     O_3   0.425013 0.793123 0.001040 -0.519603
C133  C     C_3   0.413013 0.800733 0.057323 -0.179327
H37   H     H_    0.435903 0.820736 0.079516 0.131300
H38   H     H_    0.408399 0.771321 0.081058 0.185572
H39   H     H_    0.382976 0.817459 0.056998 0.194042
O62   O     O_3   0.206877 0.425060 0.003790 -0.519484
C134  C     C_3   0.199266 0.414182 0.060493 -0.179690
H40   H     H_    0.179262 0.437504 0.081836 0.131156
H41   H     H_    0.228677 0.410041 0.084391 0.185511
H42   H     H_    0.182539 0.384149 0.061273 0.193992
O63   O     O_3   0.574963 0.206877 0.002802 -0.519312
C135  C     C_3   0.586244 0.199265 0.059359 -0.179141
H43   H     H_    0.563074 0.179261 0.081008 0.131165
H44   H     H_    0.590555 0.228677 0.083201 0.185316
H45   H     H_    0.616280 0.182538 0.059742 0.194236
O64   O     O_3   0.793122 0.574941 0.003752 -0.519615
C136  C     C_3   0.800734 0.585835 0.060450 -0.179521
H46   H     H_    0.820738 0.562518 0.081804 0.131144
H47   H     H_    0.771323 0.589982 0.084346 0.185606
H48   H     H_    0.817461 0.615867 0.061214 0.194036
Cl1   Cl    Cl    0.085408 0.201396 0.495760 -0.500530
Cl2   Cl    Cl    0.201395 0.914539 0.500893 -0.500368
Cl3   Cl    Cl    0.914597 0.798605 0.495700 -0.503105
Cl4   Cl    Cl    0.798606 0.084320 0.518951 -0.501749
Cl5   Cl    Cl    0.914597 0.201395 0.504279 -0.503099
Cl6   Cl    Cl    0.798606 0.915679 0.481049 -0.501730
Cl7   Cl    Cl    0.085407 0.798604 0.504260 -0.500536
Cl8   Cl    Cl    0.201395 0.085461 0.499107 -0.500380
Cl9   Cl    Cl    0.585450 0.701395 0.002022 -0.500621
Cl10  Cl    Cl    0.701395 0.414540 0.998942 -0.500710
Cl11  Cl    Cl    0.414537 0.298605 0.000020 -0.500620
Cl12  Cl    Cl    0.298605 0.585459 0.998892 -0.500856
Cl13  Cl    Cl    0.414550 0.701395 0.997977 -0.500726
Cl14  Cl    Cl    0.298605 0.414541 0.001103 -0.500663
Cl15  Cl    Cl    0.585463 0.298605 0.999980 -0.500519
Cl16  Cl    Cl    0.701395 0.585460 0.001062 -0.500904

loop_
_geom_bond_atom_site_label_1
_geom_bond_atom_site_label_2
_ccdc_geom_bond_type
C9    C33   T    
Cu2   O34   S    
Cu11  O26   S    
C101  C113  A    
O53   C125  S    
C108  C120  A    
C97   O53   S    
C100  C116  A    
C80   C90   A    
C85   Cl13  S    
C126  H17   S    
Cu5   O41   S    
C42   C58   S    
C7    O11   A    
Cu6   O14   S    
C101  O49   S    
O63   C135  S    
C99   O55   S    
O49   C121  S    
C33   C52   S    
C17   C113  S    
C77   C89   A    
C2    O2    A    
C125  H14   S    
C46   C62   S    
C82   C94   A    
C78   Cl6   S    
C79   C99   A    
C44   C60   S    
C6    O16   A    
Cu9   O19   S    
C45   O43   A    
C15   C95   S    
C122  H5    S    
C1    O1    A    
C98   C114  A    
C39   C54   S    
C14   C38   T    
C124  H10   S    
C21   C117  S    
C132  H35   S    
C108  O62   S    
O61   C133  S    
C111  O59   S    
O60   C132  S    
C62   C70   T    
C111  C119  A    
C136  H46   S    
C84   C96   A    
C105  O61   S    
C24   C32   T    
C124  H11   S    
Cu12  O29   S    
Cu2   O2    S    
C122  H6    S    
C47   O47   A    
C3    O3    A    
C59   C67   T    
Cu4   O36   S    
C37   C56   S    
C85   C93   A    
C11   C35   T    
C58   C66   T    
C51   O21   A    
O55   C127  S    
C97   C113  A    
C73   Cl1   S    
C68   C69   S    
Cu2   O38   S    
C125  H15   S    
C87   C95   A    
Cu5   O47   S    
C126  H18   S    
C79   Cl7   S    
C46   O42   A    
C77   C97   A    
Cu10  O23   S    
Cu8   O48   S    
C6    O10   A    
C19   C27   T    
Cu2   O6    S    
C13   C37   T    
Cu6   O42   S    
C43   C59   S    
C4    O4    A    
Cu3   O35   S    
C45   C61   S    
C5    O13   A    
C73   C101  A    
C76   Cl4   S    
C3    O7    A    
C51   O19   A    
C132  H34   S    
C106  C118  A    
C75   C103  A    
C105  C117  A    
C18   C114  S    
Cu11  O28   S    
C87   Cl15  S    
C43   O39   A    
C85   C105  A    
C107  C119  A    
C4    C28   S    
C110  O60   S    
C88   C106  A    
C76   C92   A    
C5    C29   S    
Cu12  O32   S    
C134  H41   S    
O64   C136  S    
C76   C102  A    
Cu1   O1    S    
C88   C94   A    
Cu8   O44   S    
C133  H39   S    
C7    C31   S    
C125  H13   S    
C84   Cl12  S    
Cu5   O9    S    
C109  C117  A    
O51   C123  S    
Cu7   O45   S    
C123  H9    S    
C106  O64   S    
C112  O58   S    
O56   C128  S    
C55   O29   A    
Cu9   O20   S    
Cu10  O22   S    
Cu5   O15   S    
C110  C120  A    
C20   C116  S    
Cu1   O39   S    
C100  O54   S    
O54   C126  S    
C53   O31   A    
Cu4   O4    S    
C20   C28   T    
C129  H27   S    
C78   C92   A    
C128  H22   S    
C21   C29   T    
Cu6   O10   S    
C131  H33   S    
C84   C110  A    
C126  H16   S    
C47   C63   S    
Cu3   O3    S    
C128  H24   S    
C121  H3    S    
C82   C112  A    
C124  H12   S    
C103  C115  A    
C44   O40   A    
C66   C71   S    
Cu9   O17   S    
O57   C129  S    
C45   O41   A    
C54   O26   A    
C81   C93   A    
C50   O18   A    
C135  H44   S    
C133  H38   S    
C130  H28   S    
Cu4   O40   S    
C127  H21   S    
C19   C115  S    
C52   O20   A    
C40   C55   S    
C83   C95   A    
C18   C26   T    
C35   C50   S    
C81   Cl9   S    
C133  H37   S    
C16   C96   S    
C87   C107  A    
C10   C34   T    
Cu7   O11   S    
C54   O30   A    
Cu11  O27   S    
Cu8   O12   S    
C15   C39   T    
Cu3   O37   S    
C36   C51   S    
C86   C96   A    
C49   O17   A    
C16   C40   T    
C135  H45   S    
C104  C114  A    
C74   Cl2   S    
C12   C92   S    
Cu3   O5    S    
C6    C30   S    
C41   C57   S    
Cu7   O13   S    
C43   O37   A    
C78   C100  A    
C83   C111  A    
C42   O36   A    
C12   C36   T    
C9    C89   S    
Cu11  Cu12  S    
C75   Cl3   S    
C86   Cl14  S    
C48   O48   A    
C1    O5    A    
C74   C104  A    
Cu9   Cu10  S    
C134  H42   S    
C61   C69   T    
C8    O14   A    
C22   C118  S    
C98   O56   S    
O62   C134  S    
C129  H26   S    
C34   C49   S    
Cu6   Cu8   S    
C22   C30   T    
C121  H2    S    
C80   C98   A    
C131  H32   S    
C80   Cl8   S    
C79   C91   A    
Cu4   O8    S    
Cu8   O16   S    
C5    O9    A    
C83   Cl11  S    
C109  O57   S    
C81   C109  A    
O52   C124  S    
Cu7   O43   S    
C102  O52   S    
C2    C26   S    
C128  H23   S    
C134  H40   S    
C1    C25   S    
C41   O33   A    
C75   C91   A    
C52   O24   A    
C65   C72   S    
Cu1   O33   S    
C56   O32   A    
C53   O25   A    
C104  O50   S    
C107  O63   S    
C82   Cl10  S    
C136  H48   S    
C17   C25   T    
C123  H7    S    
Cu1   O7    S    
C3    C27   S    
C88   Cl16  S    
Cu12  O31   S    
C73   C89   A    
Cu9   O18   S    
C47   O45   A    
C130  H29   S    
C112  C118  A    
Cu12  O30   S    
C74   C90   A    
C38   C53   S    
C50   O22   A    
C48   O46   A    
C41   O35   A    
C99   C115  A    
C55   O27   A    
C131  H31   S    
C77   Cl5   S    
Cu6   O46   S    
Cu10  O21   S    
C46   O44   A    
C64   C72   T    
C102  C116  A    
C49   O23   A    
C129  H25   S    
C7    O15   A    
C44   O38   A    
O50   C122  S    
Cu1   Cu3   S    
C48   C64   S    
C60   C68   T    
C127  H20   S    
C4    O6    A    
C8    O12   A    
C11   C91   S    
C122  H4    S    
C130  H30   S    
C103  O51   S    
C127  H19   S    
C10   C90   S    
C56   O28   A    
O58   C130  S    
Cu11  O25   S    
C132  H36   S    
C13   C93   S    
O59   C131  S    
Cu5   Cu7   S    
C8    C32   S    
C135  H43   S    
C23   C119  S    
Cu10  O24   S    
C2    O8    A    
C67   C70   S    
C136  H47   S    
C86   C108  A    
Cu2   Cu4   S    
C63   C71   T    
C14   C94   S    
C121  H1    S    
C23   C31   T    
C42   O34   A    
C57   C65   T    
C24   C120  S    
C123  H8    S    
