data_mof_unit_17430.cif
_audit_creation_date              2013-03-05T16:48:43-0500
_audit_creation_method            fapswitch 2.2
_symmetry_space_group_name_H-M    P1
_symmetry_Int_Tables_number       1
_space_group_crystal_system       triclinic
_cell_length_a                    27.718236
_cell_length_b                    8.91681
_cell_length_c                    8.112846
_cell_angle_alpha                 89.99964
_cell_angle_beta                  90.002481
_cell_angle_gamma                 90.005278
_cell_volume                      2005.15676035

loop_
_atom_site_label
_atom_site_type_symbol
_atom_site_description
_atom_site_fract_x
_atom_site_fract_y
_atom_site_fract_z
_atom_type_partial_charge
O1    O     O_R   0.500000 0.285350 0.636850 -0.616372
O2    O     O_R   0.500000 0.714650 0.363150 -0.616406
O3    O     O_R   0.500000 0.714650 0.636850 -0.616372
O4    O     O_R   0.500000 0.285350 0.363150 -0.616406
C1    C     C_R   0.499999 0.218052 0.500000 0.934958
C2    C     C_R   0.500000 0.781948 0.500000 0.934960
O5    O     O_R   0.428760 0.500000 0.636860 -0.618398
O6    O     O_R   0.571240 0.500000 0.363140 -0.618381
O7    O     O_R   0.571240 0.500000 0.636860 -0.618395
O8    O     O_R   0.428760 0.500000 0.363140 -0.618381
C3    C     C_R   0.405983 0.499937 0.499989 0.893756
C4    C     C_R   0.594017 0.500068 0.499994 0.893762
Zn1   Zn    Zn3+2 0.500000 0.500000 0.682780 0.992859
Zn2   Zn    Zn3+2 0.500000 0.500000 0.317220 0.992826
C5    C     C_R   0.176973 0.371155 0.539662 0.535649
C6    C     C_R   0.823025 0.629212 0.539751 0.535872
C7    C     C_R   0.177158 0.627839 0.455328 0.535842
C8    C     C_R   0.822844 0.372531 0.455412 0.535578
O9    O     O_2   0.201440 0.248790 0.590760 -0.556040
O10   O     O_2   0.798556 0.751573 0.590838 -0.555910
O11   O     O_2   0.201829 0.750038 0.404864 -0.555989
O12   O     O_2   0.798175 0.250333 0.404930 -0.556046
N1    N     N_R   0.201284 0.499444 0.497899 -0.339828
N2    N     N_R   0.798715 0.500916 0.498003 -0.339852
C9    C     C_R   0.278410 0.598692 0.603461 0.233629
C10   C     C_R   0.721606 0.401573 0.603517 0.233595
C11   C     C_R   0.278639 0.399987 0.394792 0.233422
C12   C     C_R   0.721342 0.600279 0.394848 0.233463
C13   C     C_R   0.328708 0.596970 0.603820 -0.298573
C14   C     C_R   0.671310 0.403177 0.603849 -0.298498
C15   C     C_R   0.328929 0.401928 0.395531 -0.298288
C16   C     C_R   0.671052 0.598221 0.395564 -0.298373
C17   C     C_R   0.253054 0.499339 0.498767 0.239643
C18   C     C_R   0.746946 0.500984 0.498855 0.239657
C19   C     C_R   0.101345 0.499748 0.496547 -0.060033
C20   C     C_R   0.898656 0.500640 0.496602 -0.060035
C21   C     C_R   0.126660 0.366494 0.529905 -0.027093
C22   C     C_R   0.873339 0.633887 0.529974 -0.027187
C23   C     C_R   0.126828 0.632815 0.463719 -0.027161
C24   C     C_R   0.873173 0.367569 0.463781 -0.027086
C25   C     C_R   0.101271 0.232606 0.554117 -0.136676
C26   C     C_R   0.898728 0.767780 0.554165 -0.136695
C27   C     C_R   0.101590 0.766872 0.438878 -0.136646
C28   C     C_R   0.898411 0.233519 0.438908 -0.136625
C29   C     C_R   0.353736 0.499562 0.499871 -0.074121
C30   C     C_R   0.646263 0.500529 0.499887 -0.074114
H1    H     H_    0.348696 0.325848 0.316126 0.159071
H2    H     H_    0.651267 0.674260 0.316161 0.159013
H3    H     H_    0.348308 0.673197 0.683550 0.158963
H4    H     H_    0.651727 0.326904 0.683569 0.158999
H5    H     H_    0.119953 0.128893 0.581746 0.187908
H6    H     H_    0.880046 0.871490 0.581798 0.187904
H7    H     H_    0.120404 0.870428 0.411538 0.188029
H8    H     H_    0.879597 0.129962 0.411564 0.188036
C31   C     C_R   0.974645 0.362546 0.485838 0.046915
C32   C     C_R   0.025356 0.637853 0.485833 0.046903
C33   C     C_R   0.974790 0.638104 0.506248 0.046928
C34   C     C_R   0.025210 0.362294 0.506233 0.046940
C35   C     C_R   0.949500 0.500437 0.496175 0.076096
C36   C     C_R   0.050500 0.499959 0.496149 0.076093
C37   C     C_R   0.948375 0.230225 0.453485 -0.222794
C38   C     C_R   0.051626 0.770173 0.453487 -0.222765
C39   C     C_R   0.948675 0.770675 0.538752 -0.222654
C40   C     C_R   0.051324 0.229719 0.538733 -0.222674
H9    H     H_    0.965974 0.124105 0.431793 0.135109
H10   H     H_    0.034027 0.876299 0.431825 0.135101
H11   H     H_    0.966393 0.876669 0.560117 0.134918
H12   H     H_    0.033606 0.123731 0.560119 0.134921
C41   C     C_1   0.500000 0.065233 0.500000 -0.191165
C42   C     C_1   0.500000 0.934766 0.499999 -0.191166
N3    N     N_1   0.500000 0.500000 0.073640 -0.033000
N4    N     N_1   0.500000 0.500000 0.926360 -0.032991
N5    N     N_2   0.253851 0.294403 0.294049 -0.267213
H13   H     H_    0.271969 0.194161 0.279409 0.247786
C43   C     C_3   0.236705 0.353372 0.139041 -0.772563
H14   H     H_    0.213602 0.268441 0.077542 0.259870
H15   H     H_    0.267826 0.378540 0.057410 0.239652
H16   H     H_    0.214826 0.456180 0.158817 0.250449
N6    N     N_2   0.746103 0.705978 0.294161 -0.267122
H17   H     H_    0.727880 0.805957 0.279013 0.247595
C44   C     C_3   0.763510 0.646963 0.139525 -0.772384
H18   H     H_    0.786605 0.732048 0.078253 0.259784
H19   H     H_    0.732517 0.621402 0.057480 0.239645
H20   H     H_    0.785465 0.544401 0.159771 0.250357
N7    N     N_2   0.253395 0.704304 0.703508 -0.267298
H21   H     H_    0.271552 0.804333 0.719178 0.247656
C45   C     C_3   0.235636 0.645215 0.857646 -0.772404
H22   H     H_    0.212282 0.730093 0.918101 0.259734
H23   H     H_    0.266438 0.620115 0.940669 0.239809
H24   H     H_    0.213857 0.542367 0.836854 0.250449
N8    N     N_2   0.746646 0.296033 0.703582 -0.267383
H25   H     H_    0.728566 0.195817 0.718883 0.247814
C46   C     C_3   0.764228 0.355062 0.857993 -0.772508
H26   H     H_    0.787605 0.270306 0.918544 0.259810
H27   H     H_    0.733337 0.379797 0.940763 0.239819
H28   H     H_    0.785934 0.458119 0.837554 0.250514

loop_
_geom_bond_atom_site_label_1
_geom_bond_atom_site_label_2
_geom_bond_distance
_ccdc_geom_bond_type
O5    Zn1   2.009467 S    
C45   H22   1.110184 S    
C46   H26   1.110136 S    
C31   C35   1.415890 A    
N5    C43   1.443537 S    
Zn2   N3    1.976127 S    
C20   C35   1.409328 A    
C44   H18   1.110155 S    
C13   H3    1.084178 S    
N7    H21   1.031958 S    
C11   C17   1.414027 A    
O5    C3    1.277329 A    
C7    N1    1.370164 A    
O1    C1    1.262038 A    
C40   H12   1.079070 S    
C19   C21   1.406259 A    
C22   C26   1.399640 A    
C33   C35   1.415908 A    
C34   C36   1.415900 A    
C32   C33   1.411344 A    
C7    C23   1.397439 A    
C12   N6    1.423568 S    
C8    C24   1.397392 A    
C5    C21   1.397443 A    
O7    Zn1   2.009495 S    
C5    O9    1.349962 S    
C27   H7    1.083381 S    
N1    C17   1.434988 S    
C1    C41   1.362655 S    
C8    N2    1.370173 A    
O3    Zn1   1.949925 S    
C6    O10   1.349944 S    
O3    C2    1.262036 A    
C5    N1    1.370160 A    
C14   H4    1.084170 S    
C12   C18   1.414093 A    
C6    N2    1.370158 A    
C15   H1    1.084200 S    
C34   C40   1.411054 A    
C16   H2    1.084189 S    
O2    C2    1.262038 A    
C43   H16   1.110850 S    
C44   H19   1.110361 S    
C10   C18   1.414209 A    
C33   C39   1.411067 A    
N7    C45   1.443484 S    
N5    H13   1.032160 S    
C9    C13   1.394275 A    
C39   H11   1.079070 S    
C38   H10   1.079078 S    
C11   C15   1.394071 A    
C12   C16   1.394082 A    
C4    C30   1.448162 S    
O8    Zn2   2.009498 S    
N8    H25   1.031989 S    
N6    C44   1.443500 S    
C23   C27   1.399644 A    
C10   N8    1.423531 S    
C7    O11   1.349964 S    
C32   C36   1.415893 A    
C13   C29   1.395360 A    
C19   C36   1.409328 A    
C19   C23   1.406266 A    
C43   H14   1.110138 S    
C28   H8    1.083384 S    
N8    C46   1.443516 S    
C20   C24   1.406263 A    
O6    C4    1.277206 A    
C9    N7    1.423583 S    
C43   H15   1.110454 S    
C10   C14   1.394216 A    
C46   H28   1.110783 S    
C45   H23   1.110270 S    
C32   C38   1.411045 A    
C3    C29   1.448182 S    
O1    Zn1   1.949930 S    
C44   H20   1.110750 S    
C2    C42   1.362655 S    
O6    Zn2   2.009464 S    
C8    O12   1.349958 S    
C16   C30   1.395411 A    
C14   C30   1.395328 A    
O4    C1    1.262036 A    
Zn1   N4    1.976127 S    
C28   C37   1.390271 A    
C20   C22   1.406265 A    
N3    N4    1.194859 T    
O4    Zn2   1.949926 S    
C31   C34   1.411306 A    
C31   C37   1.411036 A    
C21   C25   1.399624 A    
C41   C42   1.163350 T    
O2    Zn2   1.949929 S    
O7    C4    1.277333 A    
N2    C18   1.434962 S    
C9    C17   1.414227 A    
O8    C3    1.277216 A    
N6    H17   1.032016 S    
C37   H9    1.079087 S    
C24   C28   1.399639 A    
C46   H27   1.110310 S    
C15   C29   1.395386 A    
C45   H24   1.110766 S    
C6    C22   1.397493 A    
C25   C40   1.390280 A    
C11   N5    1.423483 S    
C26   C39   1.390313 A    
C25   H5    1.083382 S    
C27   C38   1.390301 A    
C26   H6    1.083382 S    
