data_mof_unit_16053.cif
_audit_creation_date              2012-10-26T18:51:47-0400
_audit_creation_method            fapswitch 2.2
_symmetry_space_group_name_H-M    P1
_symmetry_Int_Tables_number       1
_space_group_crystal_system       triclinic
_cell_length_a                    11.67794
_cell_length_b                    14.888148
_cell_length_c                    14.962232
_cell_angle_alpha                 64.437581
_cell_angle_beta                  106.051425
_cell_angle_gamma                 102.523358
_cell_volume                      2240.93644454

loop_
_atom_site_label
_atom_site_type_symbol
_atom_type_description
_atom_site_fract_x
_atom_site_fract_y
_atom_site_fract_z
_atom_type_partial_charge
C1    C     C_R   0.483542 0.119526 0.312967 0.568523
C2    C     C_R   0.715113 0.576476 0.023692 -0.109636
C3    C     C_R   0.737121 0.309698 0.620069 -0.125639
C4    C     C_R   0.262879 0.690301 0.379932 -0.125638
C5    C     C_R   0.686682 0.215991 0.620382 0.227480
C6    C     C_R   0.313318 0.784008 0.379619 0.227482
C7    C     C_R   0.505854 0.283304 0.514340 0.210851
C8    C     C_R   0.494147 0.716696 0.485660 0.210858
C9    C     C_R   0.546639 0.373881 0.531112 -0.003351
C10   C     C_R   0.453361 0.626119 0.468888 -0.003349
C11   C     C_R   0.670149 0.391117 0.570095 0.022972
C12   C     C_R   0.516457 0.880474 0.687033 0.568519
C13   C     C_R   0.329851 0.608882 0.429906 0.022974
C14   C     C_R   0.473072 0.451016 0.504139 0.021906
C15   C     C_R   0.526928 0.548983 0.495862 0.021906
C16   C     C_R   0.284350 0.999873 0.499807 0.566839
C17   C     C_R   0.715650 0.000127 0.500193 0.566848
C18   C     C_R   0.652156 0.568127 0.508525 -0.081428
C19   C     C_R   0.347845 0.431872 0.491477 -0.081425
C20   C     C_R   0.724287 0.489888 0.554262 0.013262
C21   C     C_R   0.275714 0.510112 0.445739 0.013264
C22   C     C_1   0.162396 0.999539 0.499763 0.030416
C23   C     C_R   0.352049 0.343588 0.037811 0.035872
C24   C     C_1   0.837603 0.000461 0.500237 0.030423
C25   C     C_1   0.059866 0.999761 0.499886 -0.003846
C26   C     C_1   0.940134 0.000239 0.500114 -0.003843
C27   C     C_R   0.459560 0.188697 0.205905 0.023304
C28   C     C_R   0.540431 0.811306 0.794095 0.023296
C29   C     C_R   0.294132 0.246325 0.065381 -0.124934
C30   C     C_R   0.705838 0.753704 0.934645 -0.124941
C31   C     C_R   0.349976 0.168739 0.146405 -0.133133
C32   C     C_R   0.649992 0.831279 0.853605 -0.133141
C33   C     C_R   0.527479 0.284129 0.171047 0.069928
C34   C     C_R   0.647935 0.656436 0.962216 0.035865
C35   C     C_R   0.472522 0.715869 0.828954 0.069934
C36   C     C_R   0.475312 0.361745 0.079835 0.045984
C37   C     C_R   0.524679 0.638268 0.920180 0.045978
C38   C     C_3   0.858573 0.514441 0.580148 -0.382659
C39   C     C_3   0.141427 0.485558 0.419854 -0.382659
C40   C     C_R   0.534519 0.459633 0.033877 0.043039
C41   C     C_R   0.465471 0.540381 0.966143 0.043042
C42   C     C_R   0.340178 0.520873 0.950797 -0.100969
C43   C     C_R   0.659814 0.479151 0.049230 -0.100963
C44   C     C_R   0.284875 0.423553 0.976345 -0.109637
Cu1   Cu    Cu3+1 0.469550 0.918260 0.475690 1.056328
Cu2   Cu    Cu3+1 0.530450 0.081740 0.524310 1.056323
H1    H     H_    0.188146 0.410984 0.954266 0.124492
H2    H     H_    0.716248 0.419811 0.080280 0.151966
H3    H     H_    0.829141 0.317897 0.659294 0.128924
H4    H     H_    0.170859 0.682101 0.340707 0.128922
H5    H     H_    0.885260 0.596314 0.557273 0.153617
H6    H     H_    0.891809 0.477704 0.663183 0.145137
H7    H     H_    0.902668 0.488040 0.540360 0.137263
H8    H     H_    0.114740 0.403685 0.442729 0.153620
H9    H     H_    0.097333 0.511958 0.459642 0.137264
H10   H     H_    0.108191 0.522294 0.336819 0.145134
H11   H     H_    0.811849 0.589054 0.045778 0.124486
H12   H     H_    0.694756 0.644400 0.484607 0.138316
H13   H     H_    0.305245 0.355600 0.515394 0.138318
H14   H     H_    0.700874 0.903942 0.829168 0.168746
H15   H     H_    0.299080 0.096082 0.170845 0.168738
H16   H     H_    0.202125 0.231376 0.029192 0.132005
H17   H     H_    0.797833 0.768664 0.970849 0.132009
H18   H     H_    0.283755 0.580222 0.919734 0.151956
I1    I     I_    0.308034 0.689374 0.727327 -0.362511
I2    I     I_    0.692005 0.310579 0.272670 -0.362529
I3    I     I_    0.641170 0.711486 0.612045 -0.322850
I4    I     I_    0.358830 0.288515 0.387955 -0.322866
I5    I     I_    0.201559 0.899146 0.288153 -0.364349
I6    I     I_    0.798439 0.100851 0.711849 -0.364345
N1    N     N_R   0.576230 0.204580 0.560790 -0.215189
N2    N     N_R   0.423770 0.795420 0.439210 -0.215189
O1    O     O_R   0.459870 0.022090 0.338120 -0.493252
O2    O     O_R   0.540130 0.977910 0.661880 -0.493260
O3    O     O_R   0.511290 0.160150 0.379180 -0.445723
O4    O     O_R   0.488710 0.839850 0.620820 -0.445720
O5    O     O_R   0.311490 0.930960 0.479480 -0.463967
O6    O     O_R   0.688510 0.069040 0.520520 -0.463961
O7    O     O_R   0.362910 0.069020 0.520540 -0.483713
O8    O     O_R   0.637090 0.930980 0.479460 -0.483714

loop_
_geom_bond_atom_site_label_1
_geom_bond_atom_site_label_2
_ccdc_geom_bond_type
C6    I5    S    
C12   O2    A    
C15   C18   A    
C34   C37   A    
C41   C42   A    
C31   H15   S    
C3    H3    S    
C2    H11   S    
Cu1   Cu2   S    
C27   C33   A    
C6    N2    A    
C12   C28   S    
Cu1   O4    S    
C23   C29   A    
C35   C37   A    
C24   C26   T    
C10   C15   A    
C7    N1    A    
Cu2   O7    S    
C39   H8    S    
C38   H6    S    
C35   I1    S    
C33   C36   A    
Cu1   O1    S    
C16   O5    A    
C4    C13   A    
C7    I4    S    
C18   H12   S    
C40   C43   A    
C39   H9    S    
C28   C35   A    
C22   C25   T    
C43   H2    S    
C44   H1    S    
C2    C34   A    
C30   H17   S    
Cu1   N2    S    
C42   C44   A    
Cu2   O3    S    
C33   I2    S    
C11   C20   A    
C8    N2    A    
C17   C24   S    
C30   C34   A    
C27   C31   A    
C1    O3    A    
C36   C40   A    
C4    C6    A    
Cu2   O6    S    
C38   H5    S    
C19   H13   S    
C25   C26   S    
C17   O8    A    
C23   C44   A    
C4    H4    S    
C9    C14   A    
C5    I6    S    
C20   C38   S    
C39   H10   S    
C21   C39   S    
C28   C32   A    
C2    C43   A    
C29   C31   A    
C13   C21   A    
C9    C11   A    
Cu2   N1    S    
C40   C41   A    
C12   O4    A    
C32   H14   S    
C42   H18   S    
Cu2   O2    S    
C7    C9    A    
C29   H16   S    
C16   C22   S    
C19   C21   A    
C14   C19   A    
C3    C5    A    
C10   C13   A    
C16   O7    A    
C1    O1    A    
C5    N1    A    
C30   C32   A    
C38   H7    S    
C17   O6    A    
Cu1   O8    S    
C18   C20   A    
C37   C41   A    
C3    C11   A    
C8    I3    S    
C8    C10   A    
C23   C36   A    
C1    C27   S    
C14   C15   A    
Cu1   O5    S    
