data_mof_unit_22571.cif
_audit_creation_date              2013-03-05T16:04:54-0500
_audit_creation_method            fapswitch 2.2
_symmetry_space_group_name_H-M    P1
_symmetry_Int_Tables_number       1
_space_group_crystal_system       triclinic
_cell_length_a                    8.249797
_cell_length_b                    14.30355
_cell_length_c                    18.772306
_cell_angle_alpha                 97.24479
_cell_angle_beta                  91.255907
_cell_angle_gamma                 91.510206
_cell_volume                      2195.99817636

loop_
_atom_site_label
_atom_site_type_symbol
_atom_site_description
_atom_site_fract_x
_atom_site_fract_y
_atom_site_fract_z
_atom_type_partial_charge
P1    P     P_3+3 0.061800 0.409390 0.339760 0.568778
O1    O     O_2   0.887710 0.436190 0.327560 -0.273569
O2    O     O_3   0.135370 0.443490 0.416520 -0.363299
O3    O     O_3   0.634420 0.609440 0.364670 -0.366292
O4    O     O_2   0.753574 0.534495 0.240860 -0.293184
O5    O     O_3   0.056199 0.285914 0.327429 -0.607468
O6    O     O_3   0.661302 0.708753 0.244825 -0.503667
H1    H     H_    0.698853 0.787363 0.344522 0.149343
C1    C     C_3   0.595730 0.871852 0.268602 0.456589
H2    H     H_    0.546212 0.925318 0.309865 0.043914
P2    P     P_3+3 0.622760 0.718740 0.547830 0.503910
P3    P     P_3+3 0.065559 0.782464 0.398152 0.558130
O7    O     O_2   0.795290 0.730930 0.525800 -0.402529
O8    O     O_3   0.044470 0.660110 0.398750 -0.355324
O9    O     O_2   0.939902 0.829208 0.449603 -0.400793
O10   O     O_3   0.633214 0.752606 0.640786 -0.474016
O11   O     O_3   0.003656 0.816325 0.315186 -0.478894
C2    C     C_3   0.120414 0.794682 0.262270 0.790007
H3    H     H_    0.239182 0.776926 0.284665 -0.252409
C3    C     C_3   0.149352 0.880643 0.222390 0.369942
H4    H     H_    0.033667 0.902569 0.199168 0.172403
C4    C     C_3   0.175898 0.751457 0.612977 0.103113
H5    H     H_    0.285089 0.719797 0.587989 0.084847
H6    H     H_    0.071512 0.737059 0.574833 0.087586
C5    C     C_3   0.203325 0.858569 0.629981 0.870303
H7    H     H_    0.180448 0.891966 0.580589 -0.173935
Ba1   Ba    Ba6+2 0.843240 0.541620 0.463500 1.700328
C6    C     C_3   0.983662 0.249630 0.384726 1.141819
H8    H     H_    0.870854 0.286068 0.398688 0.029411
C7    C     C_3   0.946624 0.145054 0.362146 -0.785084
H9    H     H_    0.850205 0.135705 0.319430 0.251106
H10   H     H_    0.906183 0.110312 0.408396 0.197980
H11   H     H_    0.057327 0.110073 0.340948 0.314595
C8    C     C_3   0.688139 0.678184 0.675618 0.471226
H12   H     H_    0.811213 0.659621 0.657733 0.064884
H13   H     H_    0.604530 0.615627 0.665001 0.098975
C9    C     C_3   0.694514 0.710113 0.756102 -0.875300
H14   H     H_    0.784087 0.769489 0.768888 0.302892
H15   H     H_    0.730346 0.651495 0.785878 0.176818
H16   H     H_    0.573141 0.733655 0.774051 0.265845
P4    P     P_3+3 0.127890 0.590690 0.660240 0.492237
O12   O     O_2   0.301980 0.563840 0.672490 -0.372302
O13   O     O_3   0.054330 0.556590 0.583490 -0.375386
O14   O     O_3   0.555270 0.390630 0.635330 -0.335007
O15   O     O_3   0.144671 0.713700 0.676566 -0.556342
P5    P     P_3+3 0.130208 0.218234 0.606342 0.617024
O16   O     O_3   0.637720 0.384870 0.467990 -0.286221
O17   O     O_3   0.145220 0.339960 0.601250 -0.275735
O18   O     O_2   0.264867 0.171455 0.559692 -0.330061
O19   O     O_3   0.184819 0.195572 0.692912 -0.522029
Ba2   Ba    Ba6+2 0.346570 0.458460 0.536510 1.695352
P6    P     P_3+3 0.616152 0.597886 0.271161 0.559314
C10   C     C_3   0.610108 0.778442 0.298725 0.267690
H17   H     H_    0.490090 0.760074 0.319278 -0.067947
H18   H     H_    0.513042 0.862843 0.220712 0.075846
O20   O     O_3   0.551980 0.615210 0.532020 -0.408911
C11   C     C_3   0.474919 0.292027 0.322806 1.184462
H19   H     H_    0.366520 0.316126 0.352855 -0.005913
C12   C     C_3   0.416300 0.243313 0.249624 -0.855151
H20   H     H_    0.325948 0.186470 0.256689 0.255560
H21   H     H_    0.358834 0.294788 0.218206 0.205102
H22   H     H_    0.519027 0.211515 0.219057 0.278218
P7    P     P_3+3 0.574330 0.266206 0.450199 0.505165
O21   O     O_2   0.394410 0.269100 0.474240 -0.314599
O22   O     O_3   0.564387 0.228220 0.357754 -0.647738
H23   H     H_    0.234574 0.863166 0.178021 0.017258
C13   C     C_3   0.118951 0.264302 0.743208 0.222851
H24   H     H_    0.180883 0.333842 0.741355 0.135609
H25   H     H_    0.987014 0.270600 0.733287 0.018160
C14   C     C_3   0.144438 0.235304 0.817810 0.378787
H26   H     H_    0.276029 0.233752 0.830998 0.145200
H27   H     H_    0.089211 0.164035 0.819756 0.155543
P8    P     P_3+3 0.571071 0.401465 0.728420 0.454028
C15   C     C_3   0.625180 0.222601 0.714127 0.086955
H28   H     H_    0.730542 0.253576 0.688563 0.020251
O23   O     O_2   0.429436 0.461647 0.758261 -0.403176
O24   O     O_3   0.529002 0.289828 0.753480 -0.565716
H29   H     H_    0.549173 0.182275 0.670519 0.156519
C16   C     C_3   0.690700 0.155650 0.764442 0.739567
H30   H     H_    0.765332 0.197232 0.808007 0.027802
C17   C     C_R   0.001031 0.455569 0.048801 -0.010539
C18   C     C_R   0.914980 0.403402 0.095502 -0.006809
C19   C     C_R   0.763280 0.361444 0.071927 -0.079218
C20   C     C_R   0.699101 0.370503 0.003929 -0.195844
C21   C     C_R   0.787280 0.418183 0.956186 0.156319
C22   C     C_R   0.938983 0.460755 0.978186 0.102497
C23   C     C_R   0.727754 0.420519 0.886052 -0.205688
C24   C     C_R   0.821267 0.460329 0.834995 -0.005812
C25   C     C_R   0.973200 0.504880 0.856715 0.044612
C26   C     C_R   0.030395 0.505772 0.928902 0.045109
C27   C     C_R   0.769591 0.454263 0.762310 0.161939
C28   C     C_R   0.870926 0.488603 0.712105 -0.505322
C29   C     C_R   0.016805 0.537636 0.732498 0.240107
C30   C     C_R   0.068646 0.547444 0.806399 -0.060653
C31   C     C_R   0.152774 0.497855 0.070967 0.026317
C32   C     C_R   0.213042 0.495231 0.142277 0.060128
C33   C     C_R   0.123347 0.446115 0.191100 -0.143039
C34   C     C_R   0.984256 0.390977 0.163365 0.336621
H31   H     H_    0.690907 0.322185 0.105741 0.182812
H32   H     H_    0.581849 0.337587 0.987917 0.159960
H33   H     H_    0.831399 0.481158 0.656303 0.205516
H34   H     H_    0.610174 0.387829 0.871441 0.178284
C35   C     C_R   0.213839 0.596236 0.831711 -0.110807
C36   C     C_R   0.273419 0.593799 0.902309 0.108552
C37   C     C_R   0.182093 0.547941 0.951037 0.007655
C38   C     C_R   0.243121 0.544189 0.021932 0.053709
C39   C     C_R   0.425496 0.634887 0.924557 -0.154796
C40   C     C_R   0.486499 0.630455 0.994120 -0.175801
C41   C     C_R   0.395895 0.585806 0.043287 0.126471
C42   C     C_R   0.364027 0.541241 0.164289 -0.019054
C43   C     C_R   0.455613 0.583305 0.113508 -0.244394
C44   C     C_R   0.417752 0.545056 0.236733 0.200455
C45   C     C_R   0.319587 0.507178 0.286241 -0.370736
C46   C     C_R   0.175319 0.456797 0.265619 0.212144
H35   H     H_    0.285007 0.634191 0.796541 0.172198
H36   H     H_    0.498323 0.669732 0.887902 0.140211
H37   H     H_    0.604682 0.662416 0.009579 0.159253
H38   H     H_    0.573499 0.615589 0.127958 0.195008
H39   H     H_    0.359573 0.514168 0.341999 0.163401
C47   C     C_R   0.698931 0.938549 0.538250 0.105945
C48   C     C_R   0.512292 0.801344 0.497977 0.289702
C49   C     C_R   0.370992 0.766806 0.460264 -0.637809
C50   C     C_R   0.265288 0.827853 0.432206 0.068021
C51   C     C_R   0.306061 0.923373 0.435817 0.678453
C52   C     C_R   0.454532 0.958446 0.467662 -0.209075
C53   C     C_R   0.556888 0.898680 0.501739 -0.093252
H40   H     H_    0.336751 0.692835 0.457414 0.200074
C54   C     C_R   0.640887 0.092484 0.502888 -0.127457
C55   C     C_R   0.743060 0.034075 0.538137 0.042527
C56   C     C_R   0.683917 0.188797 0.504340 -0.026077
C57   C     C_R   0.822558 0.226340 0.542714 0.439307
C58   C     C_R   0.930896 0.167636 0.572231 0.102886
C59   C     C_R   0.890698 0.071575 0.570652 -0.223035
C60   C     C_R   0.498824 0.053265 0.467266 0.040323
H41   H     H_    0.974700 0.026548 0.594059 0.198239
H42   H     H_    0.777631 0.896207 0.566371 0.179313
H43   H     H_    0.420038 0.095984 0.439046 0.206303
F1    F     F_    0.363160 0.878324 0.652083 -0.633605
N1    N     N_R   0.094868 0.898295 0.685936 0.240259
O25   O     O_R   0.938725 0.885384 0.677620 -0.406238
O26   O     O_R   0.153586 0.943817 0.745679 -0.252224
F2    F     F_    0.088638 0.259790 0.443344 -0.660025
F3    F     F_    0.571932 0.369608 0.313915 -0.677946
F4    F     F_    0.745850 0.903595 0.249118 -0.635779
F5    F     F_    0.072914 0.298511 0.868392 -0.716701
F6    F     F_    0.788658 0.090504 0.727081 -0.678437
N2    N     N_R   0.557959 0.106259 0.795425 0.250576
O27   O     O_R   0.460887 0.048808 0.754265 -0.255937
O28   O     O_R   0.539223 0.116992 0.864591 -0.384794
N3    N     N_R   0.060367 0.713389 0.213086 0.193225
O29   O     O_R   0.024456 0.636031 0.239144 -0.372298
O30   O     O_R   0.035588 0.717366 0.144792 -0.451724
N4    N     N_R   0.939320 0.307495 0.193796 0.236194
O31   O     O_R   0.027584 0.233525 0.180857 -0.375515
O32   O     O_R   0.796856 0.298220 0.220586 -0.372968
F7    F     F_    0.198159 0.982570 0.411169 -0.653795
F8    F     F_    0.857407 0.320098 0.547381 -0.656617
F9    F     F_    0.215740 0.955266 0.268615 -0.662055

loop_
_geom_bond_atom_site_label_1
_geom_bond_atom_site_label_2
_geom_bond_distance
_ccdc_geom_bond_type
C52   C60   1.396248 A    
C7    H10   1.106730 S    
C23   C24   1.408885 A    
P7    O22   1.751343 S    
C29   C30   1.431406 A    
O5    C6    1.391755 S    
C8    C9    1.521600 S    
C18   C34   1.418338 A    
P4    O12   1.516554 D    
N2    O27   1.300637 A    
C54   C55   1.413664 A    
C60   H43   1.078857 S    
C17   C18   1.411971 A    
C50   C51   1.391346 A    
C10   H17   1.107630 S    
P5    O18   1.543629 D    
O3    P6    1.745074 S    
C43   H38   1.079724 S    
C3    H23   1.110381 S    
C6    H8    1.099204 S    
C5    N1    1.464322 S    
O6    P6    1.752876 S    
C2    H3    1.106010 S    
C9    H16   1.110615 S    
C41   C43   1.402133 A    
P5    C58   1.847087 S    
C7    H9    1.110405 S    
C17   C31   1.407088 A    
C47   C53   1.413910 A    
C11   C12   1.522626 S    
P6    C44   1.852830 S    
C25   C30   1.426613 A    
C40   C41   1.404354 A    
P1    O1    1.516191 D    
P7    C56   1.836454 S    
C49   H40   1.082321 S    
C57   F8    1.355640 S    
C42   C43   1.412069 A    
C36   C37   1.410723 A    
O10   C8    1.397871 S    
C45   H39   1.082187 S    
O17   Ba2   2.751146 S    
P4    C29   1.879662 S    
C31   C32   1.423054 A    
C58   C59   1.401446 A    
C15   O24   1.409513 S    
P3    O11   1.757700 S    
C39   C40   1.398695 A    
P3    O9    1.540157 D    
O4    P6    1.543805 D    
C14   H26   1.109582 S    
C1    H18   1.108785 S    
O8    Ba1   2.750564 S    
N4    O32   1.298601 A    
O19   C13   1.403486 S    
C2    C3    1.534198 S    
C17   C22   1.421896 A    
O12   Ba2   2.832543 S    
C34   N4    1.430952 S    
C12   H20   1.110783 S    
N4    O31   1.300849 A    
C19   H31   1.078709 S    
P4    O13   1.565512 S    
P2    C48   1.844084 S    
C8    H12   1.104889 S    
C44   C45   1.396432 A    
C1    F4    1.380511 S    
Ba1   Ba2   4.525781 S    
C33   C34   1.425598 A    
C16   F6    1.383113 S    
C21   C23   1.399731 A    
P5    O17   1.757003 S    
C12   H21   1.109227 S    
C14   H27   1.110737 S    
C15   H28   1.110743 S    
C11   F3    1.380415 S    
C47   C55   1.404995 A    
C20   H32   1.084086 S    
C20   C21   1.397919 A    
P8    C27   1.850748 S    
C22   C26   1.412281 A    
C27   C28   1.399307 A    
O2    Ba2   2.800359 S    
Ba1   O20   2.909194 S    
O16   Ba2   2.908428 S    
C5    H7    1.110095 S    
C21   C22   1.407629 A    
C32   C42   1.421620 A    
C4    C5    1.534782 S    
C13   H24   1.111005 S    
P1    O2    1.565707 S    
C35   H35   1.079773 S    
C9    H14   1.110264 S    
C31   C38   1.414204 A    
C54   C60   1.404210 A    
C23   H34   1.080222 S    
P2    O10   1.750752 S    
C19   C20   1.393629 A    
C24   C27   1.411986 A    
P2    Ba1   3.404477 S    
C32   C33   1.430324 A    
C3    H4    1.109621 S    
O11   C2    1.410852 S    
N3    O30   1.302368 A    
C14   F5    1.379606 S    
N1    O26   1.300695 A    
C48   C49   1.396197 A    
O1    Ba1   2.832055 S    
C28   H33   1.081696 S    
C55   C59   1.412145 A    
O14   Ba2   2.783698 S    
P3    O8    1.755628 S    
C30   C35   1.412426 A    
C15   C16   1.527874 S    
C51   F7    1.357917 S    
C52   C53   1.416109 A    
P8    O23   1.542792 D    
C4    H6    1.105968 S    
C6    F2    1.375961 S    
P1    C46   1.880328 S    
O6    C10   1.407952 S    
C57   C58   1.395021 A    
C35   C36   1.408250 A    
O3    Ba1   2.784373 S    
C59   H41   1.081518 S    
C45   C46   1.396395 A    
C1    H2    1.110253 S    
Ba1   O16   2.786091 S    
C12   H22   1.109125 S    
P4    O15   1.748766 S    
C7    H11   1.110216 S    
N2    O28   1.301191 A    
C4    H5    1.105888 S    
C40   H37   1.083720 S    
Ba2   O21   2.852421 S    
Ba2   O20   2.785558 S    
C26   C37   1.406017 A    
C11   O22   1.404797 S    
P7    O21   1.560907 D    
C54   C56   1.410294 A    
H1    C10   1.109605 S    
C16   N2    1.458548 S    
N1    O25   1.299680 A    
C49   C50   1.391529 A    
C37   C38   1.420417 A    
P5    O19   1.748573 S    
C13   C14   1.521747 S    
C6    C7    1.523419 S    
C56   C57   1.396215 A    
C25   C26   1.423517 A    
C48   C53   1.423291 A    
C9    H15   1.107625 S    
O16   P7    1.751708 S    
P2    O7    1.502738 D    
O13   Ba2   2.918871 S    
C11   H19   1.107264 S    
P3    C50   1.826995 S    
O2    Ba1   2.918102 S    
C28   C29   1.397989 A    
C5    F1    1.384740 S    
C8    H13   1.110221 S    
O14   P8    1.736502 S    
C42   C44   1.415066 A    
C39   H36   1.082444 S    
C16   H30   1.112472 S    
Ba1   O13   2.799812 S    
C4    O15   1.397050 S    
C1    C10   1.521506 S    
C24   C25   1.418919 A    
C18   C19   1.411172 A    
C15   H29   1.111466 S    
P1    O5    1.751320 S    
P1    Ba1   3.388122 S    
P8    O24   1.748987 S    
N3    O29   1.294985 A    
O7    Ba1   2.852099 S    
C3    F9    1.380945 S    
C13   H25   1.108165 S    
C33   C46   1.442371 A    
C2    N3    1.459018 S    
C47   H42   1.073947 S    
P4    Ba2   3.388560 S    
C36   C39   1.403615 A    
P2    O20   1.567779 S    
C51   C52   1.403276 A    
C38   C41   1.407726 A    
