data_mof_unit_11507.cif
_audit_creation_date              2012-12-10T16:39:37-0500
_audit_creation_method            fapswitch 2.2
_symmetry_space_group_name_H-M    P1
_symmetry_Int_Tables_number       1
_space_group_crystal_system       triclinic
_cell_length_a                    16.919777
_cell_length_b                    16.873923
_cell_length_c                    16.747227
_cell_angle_alpha                 66.286448
_cell_angle_beta                  65.673095
_cell_angle_gamma                 65.788487
_cell_volume                      3813.92496281

loop_
_atom_site_label
_atom_site_type_symbol
_atom_type_description
_atom_site_fract_x
_atom_site_fract_y
_atom_site_fract_z
_atom_type_partial_charge
C1    C     C_R   0.312221 0.002741 0.435148 0.037242
C2    C     C_R   0.330693 0.463120 0.924833 0.044912
C3    C     C_R   0.560838 0.427666 0.932879 0.030028
C4    C     C_R   0.039097 0.447047 0.577391 0.031726
C5    C     C_R   0.007583 0.539269 0.406745 0.030575
C6    C     C_1   0.294298 0.879679 0.299166 0.241162
C7    C     C_1   0.710194 0.118819 0.711089 0.241578
C8    C     C_1   0.880901 0.293191 0.293745 0.241699
C9    C     C_1   0.948981 0.746615 0.747584 0.261799
C10   C     C_1   0.286056 0.284389 0.884989 0.245092
C11   C     C_1   0.695148 0.696798 0.115694 0.229183
C12   C     C_R   0.059648 0.672343 0.538049 0.036293
C13   C     C_R   0.960247 0.323352 0.456896 0.046891
C14   C     C_R   0.450445 0.005804 0.446767 -0.045437
C15   C     C_R   0.537972 0.041542 0.535334 -0.045897
C16   C     C_R   0.996085 0.452439 0.452252 -0.046769
C17   C     C_R   0.046867 0.535095 0.533337 -0.046025
C18   C     C_R   0.470342 0.469156 0.931294 -0.047995
C19   C     C_R   0.562278 0.561012 0.956487 -0.042870
C20   C     C_R   0.964419 0.179650 0.437290 0.895557
C21   C     C_R   0.674568 0.055270 0.539509 0.042521
C22   C     C_R   0.033173 0.821297 0.563362 0.927387
C23   C     C_R   0.179545 0.438298 0.959750 0.906216
C24   C     C_R   0.823124 0.567358 0.022326 0.919194
C25   C     C_R   0.438529 0.961833 0.179450 0.924581
C26   C     C_R   0.561031 0.040281 0.820416 0.883690
C27   C     C_R   0.567298 0.823161 0.022363 0.919502
C28   C     C_R   0.438757 0.179145 0.959558 0.896543
C29   C     C_R   0.033318 0.563372 0.821186 0.887545
C30   C     C_R   0.963046 0.437851 0.179809 0.926461
C31   C     C_R   0.820531 0.037661 0.562482 0.915133
C32   C     C_R   0.955616 0.457305 0.325339 0.044437
C33   C     C_R   0.177148 0.976975 0.431630 0.919509
C34   C     C_R   0.406938 0.986576 0.403174 0.066126
C35   C     C_R   0.583163 0.055545 0.581313 0.066262
C36   C     C_R   0.970161 0.411104 0.411654 0.063911
C37   C     C_R   0.057889 0.581763 0.579861 0.071690
C38   C     C_R   0.421864 0.420810 0.926004 0.071515
C39   C     C_R   0.605330 0.604251 0.977138 0.060018
C40   C     C_R   0.272356 0.971183 0.396708 -0.153584
C41   C     C_R   0.721078 0.063012 0.589866 -0.170688
C42   C     C_R   0.941747 0.409953 0.279916 -0.172889
C43   C     C_R   0.062380 0.539546 0.670130 0.034039
C44   C     C_R   0.043669 0.596224 0.724455 -0.152043
C45   C     C_R   0.411307 0.279146 0.928854 -0.176151
C46   C     C_R   0.601386 0.729915 0.019134 -0.146264
C47   C     C_R   0.588196 0.068790 0.719511 -0.170879
C48   C     C_R   0.410311 0.942368 0.279089 -0.175369
C49   C     C_R   0.730012 0.601063 0.019261 -0.147247
C50   C     C_R   0.279975 0.410258 0.929570 -0.178230
C51   C     C_R   0.042831 0.725301 0.595565 -0.163952
C52   C     C_R   0.944506 0.278814 0.409621 -0.160756
C53   C     C_R   0.441742 0.084358 0.701593 -0.234119
C54   C     C_R   0.464257 0.329816 0.923711 0.041504
C55   C     C_R   0.552345 0.941800 0.292625 -0.218799
C56   C     C_R   0.068198 0.707655 0.443182 -0.227186
C57   C     C_R   0.965675 0.284348 0.548081 -0.235491
C58   C     C_R   0.742256 0.479399 0.956385 -0.228902
C59   C     C_R   0.295308 0.557716 0.914478 -0.232520
C60   C     C_R   0.262321 0.047781 0.505223 -0.232421
C61   C     C_R   0.715011 0.048707 0.448164 -0.219070
C62   C     C_R   0.558994 0.294276 0.912255 -0.226579
C63   C     C_R   0.481757 0.741567 0.955459 -0.227874
C64   C     C_R   0.955367 0.549432 0.287837 -0.216359
C65   C     C_R   0.561990 0.693651 0.984114 0.045883
C66   C     C_R   0.075264 0.444675 0.704273 -0.239006
C67   C     C_R   0.325397 0.931533 0.325655 -0.121308
C68   C     C_R   0.673174 0.082547 0.673378 -0.105437
C69   C     C_R   0.923212 0.327433 0.327918 -0.117869
C70   C     C_R   0.017356 0.689190 0.689045 -0.127969
C71   C     C_R   0.325518 0.324364 0.916260 -0.097775
C72   C     C_R   0.675526 0.675928 0.050452 -0.132869
C73   C     C_R   0.675892 0.020572 0.409612 0.098850
C74   C     C_R   0.305738 0.058471 0.554104 0.100839
C75   C     C_R   0.055699 0.400664 0.662473 0.114569
C76   C     C_R   0.537277 0.068294 0.669301 0.046742
C77   C     C_R   0.987659 0.587680 0.323717 0.101901
C78   C     C_R   0.436079 0.697170 0.942202 0.094217
C79   C     C_R   0.606384 0.341207 0.919529 0.106932
C80   C     C_R   0.594199 0.967035 0.331554 0.104852
C81   C     C_R   0.395476 0.077618 0.652343 0.105497
C82   C     C_R   0.342493 0.605090 0.921396 0.107654
C83   C     C_R   0.698159 0.434157 0.941905 0.095112
C84   C     C_R   0.998105 0.321343 0.585142 0.104451
C85   C     C_R   0.046916 0.666050 0.400398 0.106676
C86   C     C_R   0.725155 0.995326 0.328227 -0.196345
C87   C     C_R   0.457417 0.955788 0.324477 0.049914
C88   C     C_R   0.255917 0.090387 0.631787 -0.197578
C89   C     C_R   0.046312 0.313227 0.707198 -0.205186
C90   C     C_R   0.000150 0.673959 0.277754 -0.199380
C91   C     C_R   0.351463 0.743502 0.925341 -0.198982
C92   C     C_R   0.698926 0.303180 0.913386 -0.193256
C93   C     C_R   0.685552 0.965515 0.291322 -0.197521
C94   C     C_R   0.300530 0.097847 0.681701 -0.203588
C95   C     C_R   0.304763 0.697668 0.915705 -0.198747
C96   C     C_R   0.744557 0.349452 0.924022 -0.199312
C97   C     C_R   0.015273 0.274897 0.669997 -0.220349
C98   C     C_R   0.694297 0.560669 0.984519 0.046043
C99   C     C_R   0.032109 0.711765 0.314593 -0.195769
C100  C     C_R   0.543617 0.996458 0.410638 0.029573
C101  C     C_R   0.444840 0.050873 0.571626 0.031385
C102  C     C_R   0.012722 0.406225 0.537421 0.034869
C103  C     C_R   0.034436 0.579820 0.446528 0.031080
C104  C     C_R   0.428953 0.559600 0.933702 0.031372
C105  C     C_R   0.606712 0.473775 0.945055 0.035005
C106  C     C_R   0.586075 0.018514 0.452460 0.031785
C107  C     C_R   0.400404 0.037317 0.524820 0.032836
C108  C     C_R   0.475234 0.605537 0.945482 0.034995
H1    H     H_    0.260720 0.120205 0.742695 0.146164
H2    H     H_    0.320434 0.814773 0.921573 0.137346
H3    H     H_    0.986040 0.711793 0.212928 0.136634
H4    H     H_    0.058609 0.276374 0.772945 0.136524
H5    H     H_    0.401795 0.106970 0.762259 0.176557
H6    H     H_    0.595167 0.910262 0.238175 0.175746
H7    H     H_    0.086204 0.769247 0.401784 0.184849
H8    H     H_    0.940835 0.227662 0.594600 0.185065
H9    H     H_    0.813974 0.448037 0.943536 0.189499
H10   H     H_    0.232796 0.596996 0.897215 0.172162
H11   H     H_    0.189726 0.076795 0.523104 0.183531
H12   H     H_    0.725410 0.944177 0.229749 0.139246
H13   H     H_    0.775224 0.068133 0.402871 0.184379
H14   H     H_    0.598205 0.231614 0.894263 0.179551
H15   H     H_    0.451704 0.813487 0.941063 0.190042
H16   H     H_    0.927207 0.594577 0.232534 0.179407
H17   H     H_    0.095342 0.404333 0.765370 0.182324
H18   H     H_    0.040937 0.778536 0.278105 0.138433
H19   H     H_    0.005264 0.208673 0.707295 0.131422
H20   H     H_    0.815732 0.318094 0.920063 0.137133
H21   H     H_    0.238755 0.734417 0.904797 0.137919
H22   H     H_    0.182589 0.107197 0.655395 0.140775
H23   H     H_    0.795074 0.996086 0.294678 0.137593
H24   H     H_    0.735735 0.237177 0.901568 0.144369
N1    N     N_1   0.269811 0.838234 0.278155 -0.212716
N2    N     N_1   0.739499 0.148002 0.740928 -0.234087
N3    N     N_1   0.846962 0.266059 0.266733 -0.209684
N4    N     N_1   0.894632 0.791904 0.793767 -0.188225
N5    N     N_1   0.254821 0.252773 0.859703 -0.242387
N6    N     N_1   0.710562 0.713216 0.167605 -0.220614
O1    O     O_R   0.982940 0.138950 0.510160 -0.657152
O2    O     O_R   0.982940 0.510160 0.138950 -0.635759
O3    O     O_R   0.861050 0.017060 0.489840 -0.644630
O4    O     O_R   0.138950 0.982940 0.510160 -0.647021
O5    O     O_R   0.867700 0.025880 0.612340 -0.609277
O6    O     O_R   0.132300 0.974120 0.387660 -0.618232
O7    O     O_R   0.025880 0.612340 0.867700 -0.626704
O8    O     O_R   0.974120 0.387660 0.132300 -0.603481
O9    O     O_R   0.612340 0.867700 0.025880 -0.614394
O10   O     O_R   0.387660 0.132300 0.974120 -0.613404
O11   O     O_R   0.387660 0.974120 0.132300 -0.603319
O12   O     O_R   0.017060 0.861050 0.489840 -0.641220
O13   O     O_R   0.612340 0.025880 0.867700 -0.614639
O14   O     O_R   0.132300 0.387660 0.974120 -0.611026
O15   O     O_R   0.867700 0.612340 0.025880 -0.612845
O16   O     O_R   0.974120 0.132300 0.387660 -0.616576
O17   O     O_R   0.025880 0.867700 0.612340 -0.612463
O18   O     O_R   0.138950 0.510160 0.982940 -0.632839
O19   O     O_R   0.861050 0.489840 0.017060 -0.653386
O20   O     O_R   0.510160 0.982940 0.138950 -0.632285
O21   O     O_R   0.489840 0.017060 0.861050 -0.645536
O22   O     O_R   0.489840 0.861050 0.017060 -0.652584
O23   O     O_R   0.510160 0.138950 0.982940 -0.632054
O24   O     O_R   0.017060 0.489840 0.861050 -0.653455
Zn1   Zn    Zn3+2 0.004880 0.004880 0.583590 0.947198
Zn2   Zn    Zn3+2 0.995120 0.995120 0.416410 0.950677
Zn3   Zn    Zn3+2 0.004880 0.583590 0.004880 0.950473
Zn4   Zn    Zn3+2 0.995120 0.416410 0.995120 0.949612
Zn5   Zn    Zn3+2 0.583590 0.004880 0.004880 0.961656
Zn6   Zn    Zn3+2 0.416410 0.995120 0.995120 0.951770

loop_
_geom_bond_atom_site_label_1
_geom_bond_atom_site_label_2
_ccdc_geom_bond_type
C101  C107  A    
C23   O14   A    
C22   O12   A    
C37   C43   A    
C55   C80   A    
C45   C71   A    
C84   C102  A    
C64   C77   A    
C90   C99   A    
C58   C98   A    
C59   C82   A    
C88   H22   S    
C97   H19   S    
C3    C79   A    
C63   C65   A    
C56   C85   A    
C28   C45   S    
C81   C101  A    
C3    C105  A    
C89   H4    S    
C8    C69   S    
C16   C36   A    
C20   O16   A    
C3    C18   A    
C84   C97   A    
C32   C36   A    
C20   O1    A    
C78   C108  A    
C26   O13   A    
C92   H24   S    
C11   N6    T    
C47   C76   A    
C6    N1    T    
C29   O7    A    
C86   H23   S    
C13   C57   A    
C66   C75   A    
C19   C39   A    
O2    Zn3   S    
O21   Zn6   S    
C96   H20   S    
C60   H11   S    
C61   H13   S    
C15   C35   A    
C12   C37   A    
C5    C16   A    
C52   C69   A    
C2    C50   A    
C1    C40   A    
C49   C98   A    
O24   Zn4   S    
C4    C75   A    
C49   C72   A    
C4    C102  A    
O20   Zn5   S    
C44   C70   A    
C10   N5    T    
C48   C87   A    
C57   H8    S    
C62   H14   S    
C21   C61   A    
C85   C103  A    
C10   C71   S    
O22   Zn6   S    
C7    C68   S    
C23   O18   A    
C80   C100  A    
C8    N3    T    
C31   O5    A    
C5    C103  A    
C39   C65   A    
O11   Zn6   S    
C90   H3    S    
O5    Zn1   S    
C53   H5    S    
C1    C34   A    
C30   O8    A    
C99   H18   S    
C22   O17   A    
C33   O6    A    
C77   C90   A    
C88   C94   A    
C35   C76   A    
C28   O10   A    
C33   C40   S    
C30   O2    A    
C62   C79   A    
O8    Zn4   S    
C28   O23   A    
C32   C64   A    
C7    N2    T    
C1    C60   A    
O4    Zn1   S    
C75   C89   A    
C24   O19   A    
C23   C50   S    
O7    Zn3   S    
C54   C62   A    
C61   C73   A    
C27   O22   A    
C64   H16   S    
C40   C67   A    
C58   H9    S    
C15   C101  A    
C83   C105  A    
C89   C97   A    
C31   O3    A    
C50   C71   A    
C85   C99   A    
C86   C93   A    
C13   C52   A    
C2    C38   A    
O14   Zn4   S    
C38   C54   A    
C17   C103  A    
C57   C84   A    
C26   O21   A    
C51   C70   A    
C18   C104  A    
C9    C70   S    
C25   C48   S    
C79   C92   A    
O23   Zn5   S    
O9    Zn5   S    
C26   C47   S    
C13   C36   A    
C21   C41   A    
C4    C17   A    
C74   C107  A    
C27   C46   S    
C16   C102  A    
C14   C107  A    
C93   H12   S    
C45   C54   A    
C59   H10   S    
C29   C44   S    
O10   Zn6   S    
C53   C76   A    
C17   C37   A    
C5    C77   A    
C19   C105  A    
C47   C68   A    
C104  C108  A    
C12   C51   A    
C24   O15   A    
C15   C106  A    
O16   Zn2   S    
C24   C49   S    
C41   C68   A    
C6    C67   S    
C82   C104  A    
C82   C95   A    
C31   C41   S    
O15   Zn3   S    
C11   C72   S    
C46   C72   A    
C29   O24   A    
C25   O11   A    
C39   C98   A    
O19   Zn4   S    
C14   C34   A    
C63   H15   S    
C14   C100  A    
C21   C35   A    
C55   H6    S    
C78   C91   A    
O12   Zn2   S    
C94   H1    S    
C100  C106  A    
C66   H17   S    
O17   Zn1   S    
O1    Zn1   S    
C18   C38   A    
C20   C52   S    
C58   C83   A    
C19   C108  A    
C33   O4    A    
C81   C94   A    
C73   C106  A    
C2    C59   A    
O18   Zn3   S    
C43   C44   A    
C43   C66   A    
O13   Zn5   S    
C83   C96   A    
C60   C74   A    
C12   C56   A    
C56   H7    S    
C92   C96   A    
C34   C87   A    
C42   C69   A    
C48   C67   A    
C55   C87   A    
C53   C81   A    
C73   C86   A    
C46   C65   A    
C91   C95   A    
C91   H2    S    
C9    N4    T    
O3    Zn2   S    
C27   O9    A    
C25   O20   A    
C95   H21   S    
C32   C42   A    
C30   C42   S    
C74   C88   A    
C80   C93   A    
O6    Zn2   S    
C22   C51   S    
C63   C78   A    
