data_mof_unit_52638.cif
_audit_creation_date              2012-12-11T18:04:57-0500
_audit_creation_method            fapswitch 2.2
_symmetry_space_group_name_H-M    P1
_symmetry_Int_Tables_number       1
_space_group_crystal_system       triclinic
_cell_length_a                    8.248874
_cell_length_b                    12.932386
_cell_length_c                    22.816201
_cell_angle_alpha                 97.169106
_cell_angle_beta                  89.51516
_cell_angle_gamma                 98.568369
_cell_volume                      2387.86846453

loop_
_atom_site_label
_atom_site_type_symbol
_atom_type_description
_atom_site_fract_x
_atom_site_fract_y
_atom_site_fract_z
_atom_type_partial_charge
Ba1   Ba    Ba6+2 0.856210 0.551220 0.472190 1.707710
Ba2   Ba    Ba6+2 0.333620 0.448870 0.527810 1.706884
C1    C     C_3   0.620674 0.911668 0.298250 -0.359682
C2    C     C_R   0.117030 0.609844 0.941872 -0.086063
C3    C     C_R   0.074355 0.603955 0.880537 0.601742
C4    C     C_3   0.127717 0.775745 0.310362 0.336630
C5    C     C_R   0.888288 0.444725 0.886346 0.621844
C6    C     C_R   0.940978 0.440970 0.944532 -0.025365
C7    C     C_R   0.054436 0.523982 0.972767 -0.031425
C8    C     C_R   0.222520 0.696359 0.973478 -0.050911
C9    C     C_R   0.266963 0.692188 0.032569 -0.046605
C10   C     C_R   0.208792 0.605568 0.062475 -0.042298
C11   C     C_R   0.103043 0.521091 0.032449 -0.044230
C12   C     C_3   0.642652 0.820099 0.331710 0.346513
C13   C     C_R   0.881255 0.355171 0.975117 -0.073600
C14   C     C_R   0.934511 0.350681 0.032466 -0.068802
C15   C     C_R   0.045185 0.433481 0.062060 -0.025644
C16   C     C_3   0.103425 0.805203 0.248943 -0.272889
C17   C     C_R   0.099217 0.430013 0.120516 0.596770
C18   C     C_R   0.251615 0.603377 0.122395 0.575339
C19   C     C_2   0.759441 0.497647 0.771251 -0.015673
C20   C     C_3   0.716927 0.491779 0.706052 -0.056998
C21   C     C_1   0.007680 0.527231 0.686779 0.022356
C22   C     C_2   0.049597 0.532089 0.743620 -0.000043
C23   C     C_3   0.474278 0.286801 0.350301 0.330293
C24   C     C_2   0.918690 0.516855 0.790192 0.264217
C25   C     C_R   0.412200 0.552289 0.231726 -0.095746
C26   C     C_R   0.457744 0.558339 0.291205 -0.013969
C27   C     C_R   0.188287 0.473752 0.314566 0.020010
C28   C     C_3   0.208831 0.770764 0.591841 0.786980
C29   C     C_R   0.138100 0.472106 0.255257 -0.099212
C30   C     C_R   0.249345 0.513017 0.212717 0.195247
C31   C     C_2   0.863850 0.476518 0.668015 -0.285042
C32   C     C_R   0.763381 0.181356 0.523942 -0.261679
C33   C     C_R   0.452619 0.812522 0.468058 -0.207319
C34   C     C_3   0.451494 0.254648 0.284136 -0.345151
C35   C     C_R   0.414035 0.988901 0.455402 -0.109515
C36   C     C_R   0.356336 0.881226 0.448823 -0.030259
C37   C     C_R   0.588734 0.849701 0.505086 0.108282
C38   C     C_R   0.647836 0.961776 0.515215 -0.093985
C39   C     C_R   0.561284 0.030701 0.486635 -0.078785
C40   C     C_3   0.286206 0.884321 0.605940 -0.330413
C41   C     C_R   0.620127 0.140748 0.492101 0.020859
C42   C     C_R   0.851871 0.116600 0.550566 -0.042909
C43   C     C_R   0.789583 0.010001 0.550741 -0.077412
C44   C     C_3   0.972400 0.226049 0.405115 0.384397
C45   C     C_3   0.020672 0.201885 0.691979 0.369545
C46   C     C_3   0.956477 0.106935 0.391059 0.514916
C47   C     C_3   0.692296 0.718468 0.658762 0.268069
C48   C     C_3   0.564525 0.722519 0.707995 -0.212699
C49   C     C_2   0.857865 0.756563 0.686784 0.450141
C50   C     C_2   0.206706 0.235114 0.781788 0.504060
C51   C     C_2   0.914041 0.181057 0.795606 0.475529
C52   C     C_2   0.281265 0.795799 0.948425 0.546174
C53   C     C_2   0.875039 0.959756 0.592658 0.547469
C54   C     C_3   0.053861 0.170945 0.753615 -0.221508
C55   C     C_3   0.541188 0.191896 0.663751 0.440602
C56   C     C_3   0.540180 0.087113 0.687069 0.475232
C57   C     C_R   0.345800 0.520437 0.332106 -0.305630
F1    F     F_    0.102146 0.079510 0.368242 -0.683071
F2    F     F_    0.390981 0.055698 0.712210 -0.727778
F3    F     F_    0.309901 0.716367 0.556011 -0.731171
H1    H     H_    0.724293 0.849725 0.370613 0.057441
H2    H     H_    0.571337 0.973744 0.328257 0.088280
H3    H     H_    0.590322 0.797469 0.738343 0.130911
H4    H     H_    0.561433 0.655729 0.734199 0.059358
H5    H     H_    0.442182 0.721187 0.689321 0.160208
H6    H     H_    0.519630 0.787810 0.347193 -0.069144
H7    H     H_    0.533119 0.883903 0.260889 0.140766
H8    H     H_    0.356876 0.308027 0.368601 0.027756
H9    H     H_    0.571908 0.356390 0.357573 0.035853
H10   H     H_    0.352749 0.185994 0.275562 0.170372
H11   H     H_    0.417143 0.320925 0.262807 0.056418
H12   H     H_    0.409702 0.884498 0.623926 0.150863
H13   H     H_    0.567448 0.233123 0.264510 0.123439
H14   H     H_    0.740051 0.945433 0.280548 0.138777
H15   H     H_    0.098754 0.734214 0.215946 0.101199
H16   H     H_    0.048318 0.288872 0.692376 0.040617
H17   H     H_    0.889515 0.176391 0.680468 0.000332
H18   H     H_    0.070314 0.086469 0.748031 0.116875
H19   H     H_    0.654871 0.208668 0.638157 -0.199488
H20   H     H_    0.432854 0.183992 0.634011 0.076560
H21   H     H_    0.638344 0.090085 0.719922 0.107625
H22   H     H_    0.562938 0.029116 0.649543 -0.016744
H23   H     H_    0.294072 0.925203 0.566023 0.053625
H24   H     H_    0.037685 0.705172 0.316155 0.085344
H25   H     H_    0.886767 0.282419 0.053869 0.131802
H26   H     H_    0.794632 0.289889 0.954347 0.134052
H27   H     H_    0.345905 0.758878 0.055919 0.158599
H28   H     H_    0.503584 0.579835 0.200693 0.124851
H29   H     H_    0.177974 0.545856 0.756429 0.132737
H30   H     H_    0.660017 0.492872 0.802698 0.116747
H31   H     H_    0.013063 0.439576 0.242744 0.140040
H32   H     H_    0.383671 0.524045 0.377708 0.078623
H33   H     H_    0.253765 0.756393 0.313671 -0.065718
H34   H     H_    0.212846 0.926196 0.639452 0.157472
H35   H     H_    0.851952 0.424700 0.626471 0.058417
H36   H     H_    0.339374 0.039327 0.437455 0.170711
H37   H     H_    0.810940 0.264350 0.525815 0.060167
H38   H     H_    0.410977 0.728667 0.458981 0.112966
H39   H     H_    0.986334 0.837117 0.246340 0.150311
H40   H     H_    0.206119 0.865775 0.238462 0.128751
H41   H     H_    0.092650 0.766988 0.568760 0.012092
H42   H     H_    0.945029 0.810331 0.665723 0.050169
H43   H     H_    0.311573 0.197249 0.789908 0.126547
H44   H     H_    0.914921 0.149158 0.837390 0.023041
H45   H     H_    0.852957 0.248319 0.419207 -0.162556
H46   H     H_    0.205669 0.826005 0.917926 0.073674
H47   H     H_    0.979397 0.922687 0.578402 -0.010318
H48   H     H_    0.063722 0.251758 0.441325 0.045184
H49   H     H_    0.856819 0.078544 0.358145 -0.006079
H50   H     H_    0.927372 0.068644 0.431409 -0.046456
H51   H     H_    0.685672 0.637336 0.635451 -0.035975
N1    N     N_R   0.960997 0.522013 0.853309 -0.419444
N2    N     N_R   0.198811 0.515508 0.151196 -0.422058
O1    O     O_2   0.890290 0.440320 0.360790 -0.459643
O2    O     O_2   0.188200 0.122100 0.539237 -0.484973
O3    O     O_3   0.116953 0.150424 0.650112 -0.580865
O4    O     O_3   0.130840 0.441440 0.431840 -0.491959
O5    O     O_3   0.574800 0.630800 0.528960 -0.416386
O6    O     O_2   0.344900 0.234690 0.472540 -0.449868
O7    O     O_3   0.519011 0.202079 0.376100 -0.629678
O8    O     O_2   0.373311 0.426272 0.703244 -0.459486
O9    O     O_3   0.535710 0.272283 0.710739 -0.564486
O10   O     O_2   0.138058 0.671541 0.851346 -0.591227
O11   O     O_2   0.776804 0.378389 0.865175 -0.541045
O12   O     O_3   0.661674 0.790969 0.621123 -0.636807
O13   O     O_2   0.059370 0.349792 0.143560 -0.592928
O14   O     O_2   0.334576 0.680878 0.149008 -0.613437
O15   O     O_3   0.672400 0.637930 0.395560 -0.495243
O16   O     O_2   0.795910 0.557917 0.293415 -0.500011
O17   O     O_3   0.020197 0.270939 0.353928 -0.619287
O18   O     O_3   0.714595 0.745199 0.294216 -0.594938
O19   O     O_2   0.844800 0.765340 0.527490 -0.535718
O20   O     O_3   0.090520 0.693800 0.424220 -0.484315
O21   O     O_2   0.021782 0.883997 0.462783 -0.488060
O22   O     O_2   0.894669 0.730790 0.734024 -0.600212
O23   O     O_3   0.102177 0.860501 0.352448 -0.542199
O24   O     O_2   0.213202 0.329616 0.796989 -0.572406
O25   O     O_2   0.800219 0.225387 0.783892 -0.534011
O26   O     O_2   0.414360 0.847156 0.963104 -0.563933
O27   O     O_2   0.845321 0.974160 0.645251 -0.638658
O28   O     O_2   0.299410 0.559720 0.639240 -0.444273
O29   O     O_3   0.058870 0.558650 0.568170 -0.466006
O30   O     O_3   0.517310 0.362160 0.604450 -0.490146
O31   O     O_3   0.182608 0.728084 0.644820 -0.659329
O32   O     O_3   0.614910 0.369290 0.471050 -0.483267
O33   O     O_3   0.099190 0.306290 0.575790 -0.490327
P1    P     P_3+3 0.057140 0.408270 0.369700 1.003144
P2    P     P_3+3 0.667360 0.749400 0.544670 1.034605
P3    P     P_3+3 0.144459 0.829722 0.422679 1.002592
P4    P     P_3+3 0.132580 0.591820 0.630310 1.059218
P5    P     P_3+3 0.061425 0.172178 0.579212 0.953907
P6    P     P_3+3 0.660964 0.621607 0.318309 0.954131
P7    P     P_3+3 0.528080 0.235364 0.452852 0.965414
P8    P     P_3+3 0.536588 0.391051 0.681240 1.022198

loop_
_geom_bond_atom_site_label_1
_geom_bond_atom_site_label_2
_ccdc_geom_bond_type
O4    P1    S    
C47   H51   S    
C21   P4    S    
Ba2   O28   S    
C3    N1    Am   
C51   O25   D    
Ba2   O29   S    
O7    P7    S    
C45   H17   S    
C18   O14   D    
C19   C24   D    
C5    C6    A    
C20   P8    S    
C1    H2    S    
Ba2   O30   S    
C37   P2    S    
C25   H28   S    
C40   H34   S    
C42   P5    S    
C5    N1    Am   
C1    H7    S    
C22   C24   S    
O12   P2    S    
C16   H40   S    
C41   P7    S    
C26   C57   A    
Ba2   O33   S    
C13   C14   A    
O19   P2    D    
C17   O13   D    
C50   O24   D    
O3    P5    S    
Ba1   Ba2   S    
Ba1   O4    S    
C7    C11   A    
O1    P1    D    
O30   P8    S    
C51   H44   S    
C45   O3    S    
C27   C57   A    
C6    C7    A    
C21   C31   D    
C28   H41   S    
C14   H25   S    
C21   C22   D    
C28   O31   S    
C23   H9    S    
C57   H32   S    
O32   P7    S    
C23   O7    S    
C56   F2    S    
C30   N2    S    
C53   O27   D    
C19   C20   S    
C53   H47   S    
C26   P6    S    
O17   P1    S    
C39   C41   A    
C4    C16   S    
C35   H36   S    
C46   F1    S    
O8    P8    D    
Ba2   P4    S    
C38   C43   A    
C47   O12   S    
C44   C46   S    
C40   H12   S    
O18   P6    S    
C33   C36   A    
C32   C42   A    
Ba1   O15   S    
C8    C9    A    
C37   C38   A    
Ba2   O5    S    
C14   C15   A    
C47   C49   S    
C49   H42   S    
C29   H31   S    
C16   H39   S    
C4    O23   S    
C33   C37   A    
C24   N1    S    
C35   C36   A    
C34   H13   S    
C56   H22   S    
Ba2   O6    S    
C9    H27   S    
C29   C30   A    
C17   N2    Am   
Ba2   O4    S    
C44   H45   S    
C10   C18   A    
C32   H37   S    
Ba1   P2    S    
O15   P6    S    
C40   H23   S    
Ba1   P1    S    
C1    H14   S    
C48   H4    S    
C1    C12   S    
O31   P4    S    
C49   O22   D    
O28   P4    D    
C46   H50   S    
C45   C54   S    
C50   H43   S    
C47   C48   S    
C6    C13   A    
O9    P8    S    
O2    P5    D    
C55   H19   S    
Ba1   O32   S    
O33   P5    S    
C2    C8    A    
Ba1   O19   S    
C22   H29   S    
C36   P3    S    
O21   P3    D    
C42   C43   A    
C48   H5    S    
C51   C54   S    
C20   C31   S    
C38   C39   A    
O6    P7    D    
C25   C30   A    
O16   P6    D    
C32   C41   A    
C2    C3    A    
C4    H24   S    
C18   N2    Am   
C9    C10   A    
C12   O18   S    
C11   C15   A    
O23   P3    S    
C46   H49   S    
O5    P2    S    
C54   H18   S    
C52   H46   S    
C28   F3    S    
Ba2   O32   S    
O29   P4    S    
C44   H48   S    
C56   H21   S    
C55   O9    S    
C44   O17   S    
Ba1   O1    S    
C55   C56   S    
C50   C54   S    
C16   H15   S    
O20   P3    S    
C12   H1    S    
C15   C17   A    
C31   H35   S    
C5    O11   D    
C35   C39   A    
C8    C52   S    
C48   H3    S    
C34   H11   S    
C23   C34   S    
C27   P1    S    
C34   H10   S    
C52   O26   D    
C10   C11   A    
C43   C53   S    
C27   C29   A    
C4    H33   S    
C3    O10   D    
C25   C26   A    
Ba1   O29   S    
C12   H6    S    
C55   H20   S    
C28   C40   S    
C23   H8    S    
C45   H16   S    
C2    C7    A    
Ba1   O20   S    
Ba1   O5    S    
C33   H38   S    
C13   H26   S    
C19   H30   S    
