data_mof_unit_5623.cif
_audit_creation_date              2012-12-10T17:48:37-0500
_audit_creation_method            fapswitch 2.2
_symmetry_space_group_name_H-M    P1
_symmetry_Int_Tables_number       1
_space_group_crystal_system       triclinic
_cell_length_a                    15.718934
_cell_length_b                    10.70514
_cell_length_c                    9.934052
_cell_angle_alpha                 91.192029
_cell_angle_beta                  91.616409
_cell_angle_gamma                 92.161009
_cell_volume                      1669.38288495

loop_
_atom_site_label
_atom_site_type_symbol
_atom_type_description
_atom_site_fract_x
_atom_site_fract_y
_atom_site_fract_z
_atom_type_partial_charge
C1    C     C_R   0.507683 0.261019 0.499257 0.923342
C2    C     C_R   0.588313 0.072204 0.851918 -0.125551
C3    C     C_R   0.545396 0.958614 0.871641 -0.161238
C4    C     C_R   0.338457 0.500827 0.498524 0.903488
C5    C     C_R   0.505009 0.894438 0.762602 -0.141510
C6    C     C_R   0.508047 0.942507 0.630456 0.067117
C7    C     C_R   0.537019 0.066540 0.617560 0.080394
C8    C     C_R   0.515215 0.127876 0.498132 -0.228888
C9    C     C_R   0.482169 0.061816 0.384979 -0.157929
C10   C     C_R   0.464073 0.935953 0.390292 0.422562
C11   C     C_R   0.482739 0.873518 0.510480 -0.269580
C12   C     C_3   0.955605 0.500575 0.646620 -0.419307
C13   C     C_R   0.410285 0.301479 0.125248 -0.022413
C14   C     C_R   0.394850 0.191032 0.048791 -0.255231
C15   C     C_R   0.389374 0.197892 0.910045 -0.190603
C16   C     C_R   0.492757 0.739667 0.502369 0.875820
C17   C     C_R   0.411088 0.309640 0.849650 -0.116669
C18   C     C_R   0.456300 0.405608 0.922746 0.165006
C19   C     C_R   0.455979 0.404141 0.066926 0.092407
C20   C     C_R   0.542121 0.590447 0.075459 -0.070925
C21   C     C_R   0.542441 0.590008 0.932594 -0.138320
C22   C     C_R   0.661588 0.500280 0.501621 0.893390
C23   C     C_3   0.917250 0.496543 0.501469 0.231941
C24   C     C_3   0.053630 0.503718 0.642759 -0.474363
C25   C     C_3   0.043242 0.374761 0.421341 0.827075
C26   C     C_3   0.944315 0.375731 0.428589 -0.396168
C27   C     C_1   0.750540 0.499069 0.504912 -0.180507
C28   C     C_3   0.082434 0.496125 0.494642 0.208020
C29   C     C_2   0.338425 0.321263 0.213083 0.981927
C30   C     C_3   0.951430 0.611719 0.424800 -0.391205
C31   C     C_3   0.049548 0.612496 0.422059 -0.415830
C32   C     C_1   0.825882 0.497839 0.504837 -0.081749
C33   C     C_1   0.174062 0.498524 0.493929 -0.057187
C34   C     C_1   0.249473 0.500161 0.495204 -0.139042
C35   C     C_R   0.583963 0.126642 0.725969 -0.130267
H1    H     H_    0.932881 0.416987 0.702094 0.179763
H2    H     H_    0.576767 0.664323 0.132069 0.152801
H3    H     H_    0.079151 0.426295 0.702807 0.190086
H4    H     H_    0.366244 0.108697 0.093787 0.200337
H5    H     H_    0.361238 0.120326 0.850448 0.173553
H6    H     H_    0.390056 0.319147 0.747434 0.207062
H7    H     H_    0.577756 0.663146 0.882388 0.146350
H8    H     H_    0.918942 0.292376 0.481831 0.143510
H9    H     H_    0.914711 0.370113 0.325292 0.192410
H10   H     H_    0.076465 0.699658 0.472575 0.184595
H11   H     H_    0.070403 0.613724 0.315950 0.216986
H12   H     H_    0.079423 0.592159 0.691992 0.203532
H13   H     H_    0.931181 0.699438 0.474581 0.183609
H14   H     H_    0.386879 0.809635 0.308289 0.346170
H15   H     H_    0.267704 0.257002 0.365370 0.342712
H16   H     H_    0.124957 0.353176 0.278500 0.373707
H17   H     H_    0.050292 0.256172 0.570218 0.311842
H18   H     H_    0.934682 0.584838 0.702308 0.194934
H19   H     H_    0.924695 0.609530 0.319751 0.185734
H20   H     H_    0.465652 0.108878 0.293366 0.201836
H21   H     H_    0.617016 0.216121 0.714373 0.150351
H22   H     H_    0.621997 0.120557 0.935334 0.140624
H23   H     H_    0.543686 0.919724 0.971325 0.158805
H24   H     H_    0.468108 0.811082 0.785767 0.175847
N1    N     N_R   0.499210 0.498800 0.142780 -0.122228
N2    N     N_R   0.499180 0.498720 0.857170 -0.120872
O1    O     O_R   0.500000 0.316780 0.614690 -0.647683
O2    O     O_2   0.287793 0.401576 0.185174 -0.632249
O3    O     O_R   0.322171 0.238942 0.317651 -0.825965
O4    O     O_3   0.064253 0.374435 0.284315 -0.759354
O5    O     O_3   0.074525 0.265590 0.479780 -0.787333
O6    O     O_R   0.499990 0.316750 0.385360 -0.624851
O7    O     O_R   0.377150 0.500020 0.614720 -0.638548
O8    O     O_R   0.377140 0.499990 0.385380 -0.591356
O9    O     O_R   0.500010 0.683250 0.614640 -0.631781
O10   O     O_R   0.500000 0.683220 0.385310 -0.595442
O11   O     O_R   0.622860 0.500010 0.614620 -0.617455
O12   O     O_R   0.622850 0.499980 0.385280 -0.615874
O13   O     O_3   0.425388 0.878200 0.277819 -0.760374
Zn1   Zn    Zn3+2 0.500010 0.500020 0.653130 0.930904
Zn2   Zn    Zn3+2 0.499990 0.499980 0.346870 0.975301

loop_
_geom_bond_atom_site_label_1
_geom_bond_atom_site_label_2
_ccdc_geom_bond_type
C2    C35   A    
C29   O2    D    
C1    C8    S    
H15   O3    S    
C1    O1    A    
C2    H22   S    
C26   H9    S    
C7    C8    A    
N2    Zn1   S    
C25   C28   S    
C30   H19   S    
C12   C23   S    
C13   C29   S    
O10   Zn2   S    
O8    Zn2   S    
C18   C19   A    
H16   O4    S    
C23   C26   S    
C14   H4    S    
C8    C9    A    
C31   H11   S    
C24   H3    S    
C9    H20   S    
C12   H1    S    
C9    C10   A    
C21   N2    A    
C12   H18   S    
C27   C32   T    
C29   O3    S    
C13   C14   A    
C16   O10   A    
O11   Zn1   S    
C22   O11   A    
C4    O8    A    
C26   H8    S    
C17   C18   A    
C4    C34   S    
C5    H24   S    
C23   C30   S    
C16   O9    A    
C6    C11   A    
C4    O7    A    
C13   C19   A    
C25   C26   S    
N1    Zn2   S    
O7    Zn1   S    
C11   C16   S    
C30   C31   S    
C33   C34   T    
C25   O4    S    
C28   C33   S    
C22   C27   S    
O12   Zn2   S    
O1    Zn1   S    
C20   N1    A    
H17   O5    S    
C30   H13   S    
C15   C17   A    
C35   H21   S    
C14   C15   A    
C24   H12   S    
C7    C35   A    
C28   C31   S    
C25   O5    S    
C24   C28   S    
C3    C5    A    
C18   N2    A    
C6    C7    A    
C19   N1    A    
C12   C24   S    
C23   C32   S    
C2    C3    A    
C20   H2    S    
C10   O13   S    
C5    C6    A    
C1    O6    A    
C17   H6    S    
C15   H5    S    
C10   C11   A    
C21   H7    S    
C3    H23   S    
C20   C21   A    
C31   H10   S    
O9    Zn1   S    
H14   O13   S    
O6    Zn2   S    
C22   O12   A    
