data_mof_unit_7864.cif
_audit_creation_date              2012-12-11T17:02:12-0500
_audit_creation_method            fapswitch 2.2
_symmetry_space_group_name_H-M    P1
_symmetry_Int_Tables_number       1
_space_group_crystal_system       triclinic
_cell_length_a                    21.642215
_cell_length_b                    7.068215
_cell_length_c                    14.83125
_cell_angle_alpha                 89.659675
_cell_angle_beta                  105.958789
_cell_angle_gamma                 89.87673
_cell_volume                      2181.2692416

loop_
_atom_site_label
_atom_site_type_symbol
_atom_type_description
_atom_site_fract_x
_atom_site_fract_y
_atom_site_fract_z
_atom_type_partial_charge
O1    O     O_R   0.585850 0.505770 0.002130 -0.544331
O2    O     O_R   0.414150 0.005770 0.997870 -0.544593
O3    O     O_R   0.467530 0.173560 0.861970 -0.534662
O4    O     O_R   0.532470 0.673560 0.138030 -0.535795
C1    C     C_R   0.455775 0.345177 0.825325 0.683655
C2    C     C_R   0.544309 0.843653 0.174793 0.683081
O5    O     O_R   0.588690 0.175900 0.993250 -0.538699
O6    O     O_R   0.411310 0.675900 0.006750 -0.538281
O7    O     O_R   0.536170 0.007950 0.130090 -0.538610
O8    O     O_R   0.463830 0.507950 0.869910 -0.539110
C3    C     C_R   0.615007 0.344525 0.997391 0.687286
C4    C     C_R   0.384976 0.844778 0.002516 0.689050
O9    O     O_3   0.482630 0.339970 0.044740 -0.368252
O10   O     O_3   0.517370 0.839970 0.955260 -0.368374
V1    V     V_3+5 0.503220 0.064200 0.991700 1.451020
V2    V     V_3+5 0.496780 0.564200 0.008300 1.450517
C5    C     C_R   0.292773 0.006260 0.044937 0.069683
C6    C     C_R   0.706946 0.506840 0.954626 0.067545
C7    C     C_R   0.317095 0.852716 0.005762 -0.109984
C8    C     C_R   0.682862 0.352314 0.993965 -0.106870
C9    C     C_R   0.274695 0.701931 0.971861 -0.157006
C10   C     C_R   0.725566 0.200977 0.028153 -0.158700
H1    H     H_    0.291222 0.579462 0.941759 0.121218
H2    H     H_    0.709257 0.077675 0.058318 0.119293
C11   C     C_R   0.209335 0.713333 0.970292 -0.186077
C12   C     C_R   0.790961 0.212858 0.029981 -0.184258
H3    H     H_    0.177737 0.598155 0.940057 0.129685
H4    H     H_    0.822774 0.097069 0.060405 0.128354
C13   C     C_R   0.184193 0.876857 0.001579 -0.100161
C14   C     C_R   0.815831 0.377331 0.998602 -0.096899
C15   C     C_R   0.228023 0.018177 0.042531 0.094468
C16   C     C_R   0.771694 0.519117 0.957190 0.089687
C17   C     C_3   0.225844 0.226389 0.025014 -0.450275
C18   C     C_3   0.773308 0.727090 0.973959 -0.450854
C19   C     C_3   0.296746 0.213367 0.027929 -0.221067
C20   C     C_3   0.702388 0.713726 0.970843 -0.218818
H5    H     H_    0.215674 0.306618 0.083722 0.168920
H6    H     H_    0.783368 0.808163 0.915031 0.168819
H7    H     H_    0.307073 0.246759 0.960198 0.117328
H8    H     H_    0.691849 0.746216 0.038358 0.119549
C21   C     C_R   0.927119 0.889825 0.723370 -0.032779
C22   C     C_R   0.073006 0.380335 0.276229 -0.029114
C23   C     C_R   0.572104 0.847264 0.276417 -0.030349
C24   C     C_R   0.427720 0.356299 0.724004 -0.026678
C25   C     C_R   0.936552 0.952342 0.567668 -0.163414
C26   C     C_R   0.061462 0.335859 0.432025 -0.162795
C27   C     C_R   0.964650 0.937110 0.663760 -0.174105
C28   C     C_R   0.033923 0.353404 0.335851 -0.176874
C29   C     C_R   0.861157 0.858592 0.686935 -0.210972
C30   C     C_R   0.139770 0.389299 0.312490 -0.210561
C31   C     C_R   0.830839 0.878472 0.589619 0.084311
C32   C     C_R   0.169242 0.370607 0.410000 0.084719
C33   C     C_R   0.870190 0.925331 0.530321 0.142061
C34   C     C_R   0.128476 0.343809 0.469448 0.142321
C35   C     C_R   0.763009 0.857094 0.549573 0.053004
C36   C     C_R   0.237428 0.376658 0.450238 0.052825
C37   C     C_R   0.735933 0.882379 0.450618 0.060429
C38   C     C_R   0.263498 0.356470 0.549607 0.060954
C39   C     C_R   0.777559 0.927749 0.395080 -0.188210
C40   C     C_R   0.220574 0.330188 0.605286 -0.187901
C41   C     C_R   0.843136 0.948211 0.434299 -0.203890
C42   C     C_R   0.154642 0.324127 0.565814 -0.204155
C43   C     C_R   0.721332 0.812368 0.605143 -0.180317
C44   C     C_R   0.280390 0.401905 0.394518 -0.181480
C45   C     C_R   0.655746 0.791600 0.565828 -0.188526
C46   C     C_R   0.346337 0.408235 0.434071 -0.192270
C47   C     C_R   0.628760 0.813526 0.469694 0.131104
C48   C     C_R   0.372459 0.389927 0.530546 0.130303
C49   C     C_R   0.668155 0.860362 0.410474 0.085447
C50   C     C_R   0.331649 0.363440 0.589938 0.086847
C51   C     C_R   0.562447 0.785602 0.432123 -0.160783
C52   C     C_R   0.439455 0.398898 0.568162 -0.160556
C53   C     C_R   0.534488 0.799904 0.335914 -0.156942
C54   C     C_R   0.466893 0.382786 0.664461 -0.155585
C55   C     C_R   0.637972 0.879333 0.313077 -0.213650
C56   C     C_R   0.361013 0.346311 0.687542 -0.213653
H9    H     H_    0.873008 0.984063 0.388792 0.120843
H10   H     H_    0.123725 0.303379 0.611477 0.120278
H11   H     H_    0.664200 0.912171 0.262955 0.089798
H12   H     H_    0.333842 0.327063 0.737771 0.087374
H13   H     H_    0.483615 0.772221 0.307674 0.120840
H14   H     H_    0.518597 0.391687 0.692617 0.115408
H15   H     H_    0.625834 0.756107 0.611329 0.141791
H16   H     H_    0.377291 0.428316 0.388412 0.146460
H17   H     H_    0.966572 0.989273 0.522563 0.113897
H18   H     H_    0.030315 0.314851 0.477295 0.113739
H19   H     H_    0.015575 0.964160 0.691843 0.103944
H20   H     H_    0.982198 0.345119 0.307835 0.102589
H21   H     H_    0.834977 0.825549 0.737107 0.094948
H22   H     H_    0.166900 0.409188 0.262242 0.092805
H23   H     H_    0.761205 0.949573 0.320437 0.119348
H24   H     H_    0.236110 0.313221 0.680269 0.119411
H25   H     H_    0.737666 0.791410 0.679866 0.129481
H26   H     H_    0.264861 0.417550 0.319453 0.132392
H27   H     H_    0.532372 0.748675 0.477147 0.118235
H28   H     H_    0.470656 0.419582 0.522949 0.118045
O11   O     O_R   0.036080 0.231270 0.130120 -0.538105
O12   O     O_R   0.963920 0.731270 0.869880 -0.538625
O13   O     O_R   0.911300 0.558970 0.006750 -0.540784
O14   O     O_R   0.088700 0.058970 0.993250 -0.540611
C57   C     C_R   0.884863 0.390067 0.001898 0.690194
C58   C     C_R   0.115145 0.889807 0.998155 0.691549
O15   O     O_R   0.032450 0.561140 0.138040 -0.539069
O16   O     O_R   0.967550 0.061140 0.861960 -0.539090
O17   O     O_R   0.085870 0.728910 0.002130 -0.540621
O18   O     O_R   0.914130 0.228910 0.997870 -0.540059
C59   C     C_R   0.044748 0.391786 0.174985 0.692454
C60   C     C_R   0.955153 0.893367 0.824908 0.692690
O19   O     O_3   0.017320 0.394650 0.955270 -0.374115
O20   O     O_3   0.982680 0.894650 0.044730 -0.373773
V3    V     V_3+5 0.996780 0.670490 0.008300 1.412277
V4    V     V_3+5 0.003220 0.170490 0.991700 1.413237
H29   H     H_    0.194391 0.263439 0.954298 0.164226
H30   H     H_    0.804571 0.763325 0.044601 0.165613
C61   C     C_1   0.339446 0.308864 0.109275 0.371273
N1    N     N_1   0.373020 0.384205 0.173206 -0.379777
C62   C     C_1   0.659547 0.810038 0.889030 0.365284
N2    N     N_1   0.625858 0.885961 0.824710 -0.372044

loop_
_geom_bond_atom_site_label_1
_geom_bond_atom_site_label_2
_ccdc_geom_bond_type
C23   C53   A    
C46   C48   A    
C43   C45   A    
C21   C60   S    
C25   H17   S    
O1    C3    A    
O2    C4    A    
C2    O7    A    
O18   V4    S    
O5    C3    A    
C40   C42   A    
C7    C9    A    
O19   V3    S    
C52   H28   S    
C37   C39   A    
C51   H27   S    
C38   C40   A    
C61   N1    T    
O12   C60   A    
C14   C57   S    
C58   O17   A    
O15   V3    S    
C21   C29   A    
C24   C56   A    
O20   V3    S    
C17   C19   S    
C33   C41   A    
C30   H22   S    
C41   H9    S    
C45   C47   A    
C35   C43   A    
C30   C32   A    
C28   H20   S    
C19   C61   S    
C22   C59   S    
C47   C51   A    
C48   C52   A    
O5    V1    S    
O17   V3    S    
C25   C33   A    
O6    V2    S    
C23   C55   A    
C54   H14   S    
C53   H13   S    
C32   C34   A    
C25   C27   A    
C11   C13   A    
C18   H30   S    
C26   C28   A    
C3    C8    S    
C39   C41   A    
C15   C17   S    
C20   H8    S    
C52   C54   A    
O19   V4    S    
C51   C53   A    
O11   V4    S    
C38   C50   A    
C22   C28   A    
C34   C42   A    
C31   C35   A    
C29   C31   A    
C17   H5    S    
C31   C33   A    
C16   C18   S    
O4    V2    S    
C19   H7    S    
C20   C62   S    
O6    C4    A    
O13   V3    S    
C26   C34   A    
C36   C44   A    
C21   C27   A    
O1    V2    S    
C39   H23   S    
C24   C54   A    
O2    V1    S    
C22   C30   A    
O4    C2    A    
O13   C57   A    
C1    C24   S    
C8    C10   A    
O14   V4    S    
C2    C23   S    
C35   C37   A    
C50   C56   A    
C5    C15   A    
C10   H2    S    
C6    C16   A    
O16   C60   A    
O3    V1    S    
O16   V4    S    
O14   C58   A    
C57   O18   A    
C9    C11   A    
O12   V3    S    
C18   H6    S    
C17   H29   S    
C42   H10   S    
C56   H12   S    
C29   H21   S    
O3    C1    A    
C12   C14   A    
C11   H3    S    
C43   H25   S    
C12   H4    S    
C37   C49   A    
C9    H1    S    
O7    V1    S    
C44   H26   S    
C1    O8    A    
C13   C15   A    
O8    V2    S    
C62   N2    T    
C14   C16   A    
C6    C20   S    
C4    C7    S    
C5    C7    A    
C18   C20   S    
C36   C38   A    
C13   C58   S    
C49   C55   A    
C6    C8    A    
O20   V4    S    
C45   H15   S    
C46   H16   S    
O11   C59   A    
C48   C50   A    
C10   C12   A    
O9    V2    S    
O10   V1    S    
O15   C59   A    
C5    C19   S    
C47   C49   A    
C40   H24   S    
C55   H11   S    
C32   C36   A    
C44   C46   A    
C26   H18   S    
C27   H19   S    
