data_mof_unit_56235.cif
_audit_creation_date              2012-12-10T19:01:23-0500
_audit_creation_method            fapswitch 2.2
_symmetry_space_group_name_H-M    P1
_symmetry_Int_Tables_number       1
_space_group_crystal_system       triclinic
_cell_length_a                    9.570473
_cell_length_b                    10.838667
_cell_length_c                    15.439886
_cell_angle_alpha                 89.922343
_cell_angle_beta                  74.559111
_cell_angle_gamma                 90.505607
_cell_volume                      1543.71729944

loop_
_atom_site_label
_atom_site_type_symbol
_atom_type_description
_atom_site_fract_x
_atom_site_fract_y
_atom_site_fract_z
_atom_type_partial_charge
C1    C     C_R   0.998701 0.262567 0.501823 0.799848
C2    C     C_R   0.668915 0.471424 0.905142 0.094477
C3    C     C_R   0.763892 0.420988 0.952039 0.157898
C4    C     C_R   0.519333 0.487059 0.950079 0.074709
C5    C     C_R   0.468982 0.460517 0.043730 0.080690
C6    C     C_R   0.567539 0.408742 0.087514 -0.223220
C7    C     C_R   0.711364 0.388449 0.042121 -0.256041
C8    C     C_R   0.418274 0.527118 0.904129 -0.253293
C9    C     C_R   0.276131 0.552120 0.949379 -0.211310
C10   C     C_R   0.227420 0.537134 0.042289 0.162373
C11   C     C_R   0.322313 0.487869 0.090303 0.046026
C12   C     C_R   0.918409 0.497776 0.672145 0.796632
C13   C     C_R   0.085585 0.572645 0.088247 0.138517
C14   C     C_R   0.037132 0.556884 0.181140 -0.245869
C15   C     C_R   0.268386 0.472497 0.183945 -0.267705
C16   C     C_R   0.124266 0.065702 0.499600 0.078994
C17   C     C_R   0.995335 0.129606 0.509603 -0.080408
C18   C     C_R   0.863854 0.063205 0.529278 -0.211479
C19   C     C_R   0.865050 0.934397 0.528024 -0.213800
C20   C     C_R   0.997732 0.871169 0.506504 -0.073590
C21   C     C_R   0.125978 0.938741 0.496796 0.113553
C22   C     C_3   0.265828 0.939088 0.423975 -0.071896
C23   C     C_R   0.000154 0.737703 0.500417 0.794156
C24   C     C_3   0.263839 0.079030 0.428599 -0.432128
C25   C     C_R   0.607127 0.518975 0.422256 0.259877
C26   C     C_R   0.541348 0.469058 0.574961 -0.087897
C27   C     C_R   0.392952 0.469503 0.575030 -0.087427
C28   C     C_R   0.459939 0.517942 0.422172 0.262385
C29   C     C_3   0.479080 0.628694 0.363308 -0.516812
C30   C     C_3   0.636896 0.631212 0.364067 -0.505001
C31   C     C_R   0.081824 0.501014 0.327812 0.806229
C32   C     C_R   0.872397 0.482689 0.770166 -0.050861
C33   C     C_R   0.127703 0.507354 0.229235 -0.074693
C34   C     C_R   0.911169 0.403864 0.908315 -0.179222
C35   C     C_R   0.965009 0.433783 0.817636 -0.193998
C36   C     C_R   0.727711 0.505641 0.814810 -0.249698
Cu1   Cu    Cu3+1 0.140670 0.499980 0.500000 0.934482
Cu2   Cu    Cu3+1 0.859330 0.500020 0.500000 0.939761
H1    H     H_    0.782881 0.348880 0.078454 0.149628
H2    H     H_    0.761016 0.110248 0.542123 0.161677
H3    H     H_    0.762715 0.884955 0.540635 0.161465
H4    H     H_    0.357810 0.898087 0.444787 0.136171
H5    H     H_    0.351181 0.118201 0.455766 0.169529
H6    H     H_    0.568621 0.444698 0.636247 0.143489
H7    H     H_    0.311436 0.446249 0.636198 0.136788
H8    H     H_    0.462835 0.607680 0.296194 0.198816
H9    H     H_    0.334209 0.436165 0.224357 0.148514
H10   H     H_    0.417296 0.707816 0.398233 0.209344
H11   H     H_    0.709264 0.612150 0.296857 0.187381
H12   H     H_    0.930578 0.588119 0.215799 0.144391
H13   H     H_    0.984207 0.365522 0.944028 0.143116
H14   H     H_    0.077477 0.415371 0.784217 0.141521
H15   H     H_    0.444520 0.539322 0.832395 0.138691
N1    N     N_R   0.648210 0.500930 0.499430 -0.184169
N2    N     N_R   0.352300 0.500890 0.499430 -0.183735
O1    O     O_R   0.118810 0.319640 0.500000 -0.578627
O2    O     O_R   0.881230 0.319680 0.499990 -0.581363
O3    O     O_R   0.055580 0.499970 0.629840 -0.588671
O4    O     O_R   0.818000 0.500010 0.629830 -0.592624
O5    O     O_R   0.118770 0.680320 0.500010 -0.583347
O6    O     O_R   0.881190 0.680360 0.500000 -0.581287
O7    O     O_R   0.182000 0.499990 0.370170 -0.589231
O8    O     O_R   0.944420 0.500030 0.370160 -0.577698
N3    N     N_3   0.993115 0.631369 0.041583 -0.611268
H16   H     H_    0.894269 0.583739 0.056854 0.229172
H17   H     H_    0.972425 0.720636 0.067073 0.224857
N4    N     N_3   0.248362 0.894335 0.338108 -0.566401
H18   H     H_    0.231432 0.798956 0.342915 0.224611
H19   H     H_    0.347031 0.908540 0.289848 0.226893
H20   H     H_    0.250738 0.125695 0.367014 0.206229
H21   H     H_    0.667254 0.713025 0.398743 0.213871
H22   H     H_    0.204570 0.584888 0.910663 0.183736
H23   H     H_    0.663470 0.550516 0.776780 0.143474
H24   H     H_    0.537649 0.381289 0.157030 0.140801

loop_
_geom_bond_atom_site_label_1
_geom_bond_atom_site_label_2
_ccdc_geom_bond_type
C8    C9    A    
C16   C21   A    
C19   C20   A    
C9    H22   S    
C15   H9    S    
C4    C8    A    
C14   C33   A    
C30   H21   S    
C24   H20   S    
C14   H12   S    
C25   C28   A    
C26   C27   A    
C29   C30   S    
C32   C36   A    
C28   C29   S    
C1    O1    A    
C5    C11   A    
C3    C7    A    
C5    C6    A    
C27   N2    A    
C34   C35   A    
C18   H2    S    
Cu1   O1    S    
C11   C15   A    
C16   C17   A    
C31   C33   S    
C9    C10   A    
Cu1   O3    S    
Cu2   O6    S    
C12   O3    A    
C27   H7    S    
C16   C24   S    
C21   C22   S    
C12   C32   S    
C12   O4    A    
C31   O7    A    
C26   N1    A    
C28   N2    A    
C6    H24   S    
C23   O5    A    
C29   H10   S    
C26   H6    S    
N4    H18   S    
C32   C35   A    
C31   O8    A    
C25   N1    A    
C36   H23   S    
C18   C19   A    
C3    C34   A    
N4    H19   S    
N3    H17   S    
C2    C4    A    
Cu1   Cu2   S    
C1    O2    A    
Cu2   O2    S    
Cu2   N1    S    
C20   C23   S    
C17   C18   A    
C34   H13   S    
C30   H11   S    
C22   C24   S    
Cu2   O8    S    
C2    C36   A    
C25   C30   S    
C7    H1    S    
C4    C5    A    
C10   C13   A    
C8    H15   S    
C6    C7    A    
C1    C17   S    
C29   H8    S    
N3    H16   S    
C2    C3    A    
C22   H4    S    
C13   N3    S    
C22   N4    S    
Cu1   O5    S    
C10   C11   A    
Cu2   O4    S    
Cu1   N2    S    
C23   O6    A    
C20   C21   A    
C35   H14   S    
C24   H5    S    
Cu1   O7    S    
C13   C14   A    
C15   C33   A    
C19   H3    S    
