data_mof_unit_22984.cif
_audit_creation_date              2012-12-11T14:34:14-0500
_audit_creation_method            fapswitch 2.2
_symmetry_space_group_name_H-M    P1
_symmetry_Int_Tables_number       1
_space_group_crystal_system       triclinic
_cell_length_a                    14.164169
_cell_length_b                    14.103557
_cell_length_c                    27.233309
_cell_angle_alpha                 90.28502
_cell_angle_beta                  88.927329
_cell_angle_gamma                 120.175861
_cell_volume                      4702.15163187

loop_
_atom_site_label
_atom_site_type_symbol
_atom_type_description
_atom_site_fract_x
_atom_site_fract_y
_atom_site_fract_z
_atom_type_partial_charge
C1    C     C_R   0.233132 0.788005 0.568627 0.550146
C2    C     C_1   0.748676 0.880932 0.854788 0.073860
C3    C     C_1   0.158696 0.839104 0.864438 0.054342
C4    C     C_1   0.166553 0.303062 0.861448 0.042172
C5    C     C_1   0.621696 0.812287 0.658808 0.114957
C6    C     C_1   0.179806 0.822887 0.657867 0.091476
C7    C     C_1   0.179033 0.354935 0.656276 0.093547
C8    C     C_1   0.593782 0.793905 0.616914 0.121591
C9    C     C_1   0.197795 0.809060 0.615509 0.099951
C10   C     C_1   0.189829 0.388202 0.614536 0.100254
C11   C     C_R   0.105940 0.222313 0.087636 0.553846
C12   C     C_R   0.211456 0.445421 0.568353 0.546601
C13   C     C_R   0.775716 0.883210 0.086910 0.571287
C14   C     C_R   0.114789 0.893123 0.087735 0.556371
C15   C     C_R   0.107954 0.220541 0.950999 0.556630
C16   C     C_R   0.833086 0.906842 0.942781 0.569155
C17   C     C_R   0.115296 0.891974 0.951977 0.558141
C18   C     C_R   0.626100 0.895706 0.360479 -0.129428
C19   C     C_R   0.105491 0.734579 0.361726 -0.126677
C20   C     C_R   0.272555 0.375960 0.360247 -0.128260
C21   C     C_R   0.645262 0.909358 0.309809 -0.028849
C22   C     C_R   0.089716 0.740925 0.311528 -0.029179
C23   C     C_R   0.549982 0.764326 0.569115 0.555587
C24   C     C_R   0.263321 0.351799 0.310070 -0.029306
C25   C     C_R   0.678924 0.932212 0.207488 0.025466
C26   C     C_R   0.061445 0.753660 0.210132 0.024540
C27   C     C_R   0.247719 0.314447 0.208065 0.023591
C28   C     C_R   0.235667 0.787412 0.430875 0.543667
C29   C     C_R   0.212701 0.446065 0.431517 0.541280
C30   C     C_R   0.553752 0.765917 0.431195 0.544998
C31   C     C_R   0.679181 0.017007 0.235402 0.223223
C32   C     C_R   0.974951 0.674250 0.239714 0.232099
C33   C     C_R   0.336836 0.321929 0.233890 0.226902
C34   C     C_3   0.800195 0.858642 0.770313 0.136514
C35   C     C_R   0.661348 0.004541 0.286226 -0.103278
C36   C     C_R   0.990008 0.667864 0.289974 -0.094189
C37   C     C_R   0.344839 0.342248 0.284441 -0.098283
C38   C     C_R   0.707804 0.945298 0.157475 -0.104545
C39   C     C_R   0.047551 0.769173 0.160496 -0.102683
C40   C     C_R   0.232932 0.288499 0.157928 -0.104041
C41   C     C_R   0.711679 0.860693 0.131980 -0.021196
C42   C     C_R   0.134333 0.852421 0.133154 -0.019932
C43   C     C_R   0.141841 0.279666 0.134141 -0.020106
C44   C     C_R   0.616875 0.718972 0.355706 -0.119978
C45   C     C_3   0.287309 0.913894 0.790114 0.140809
C46   C     C_R   0.289673 0.890683 0.353376 -0.119662
C47   C     C_R   0.095896 0.365492 0.360258 -0.118854
C48   C     C_R   0.628861 0.728217 0.305258 0.009270
C49   C     C_R   0.277043 0.894724 0.303349 0.010609
C50   C     C_R   0.089026 0.348801 0.310115 0.011798
C51   C     C_R   0.643323 0.823793 0.282010 0.050764
C52   C     C_R   0.176693 0.819749 0.282127 0.050020
C53   C     C_R   0.173240 0.342461 0.284655 0.050870
C54   C     C_R   0.621291 0.640743 0.277693 -0.103104
C55   C     C_R   0.364943 0.970465 0.274121 -0.107933
C56   C     C_3   0.066323 0.314952 0.790148 0.139888
C57   C     C_R   0.002052 0.344816 0.284823 -0.113367
C58   C     C_R   0.629866 0.648491 0.226936 -0.075711
C59   C     C_R   0.353158 0.973274 0.223805 -0.086262
C60   C     C_R   0.998723 0.335402 0.234130 -0.090888
C61   C     C_R   0.650045 0.745244 0.203641 0.008975
C62   C     C_R   0.252680 0.901999 0.202538 0.009665
C63   C     C_R   0.079954 0.325481 0.208626 0.008550
C64   C     C_3   0.568742 0.736058 0.744071 0.105010
C65   C     C_3   0.139576 0.715613 0.734729 0.097886
C66   C     C_3   0.270414 0.441170 0.733619 0.090572
C67   C     C_3   0.766976 0.836666 0.715135 0.387897
C68   C     C_R   0.656217 0.833477 0.230985 0.024059
C69   C     C_R   0.163709 0.824247 0.231512 0.023818
C70   C     C_R   0.167497 0.328044 0.233725 0.024435
C71   C     C_R   0.672792 0.758040 0.153843 -0.115464
C72   C     C_R   0.238125 0.912513 0.153228 -0.115948
C73   C     C_R   0.070964 0.306518 0.158700 -0.116753
C74   C     C_R   0.607744 0.798553 0.383128 0.008409
C75   C     C_R   0.206389 0.807974 0.382487 0.009489
C76   C     C_R   0.190991 0.387750 0.384835 0.007601
C77   C     C_3   0.666368 0.940764 0.728670 -0.169101
C78   C     C_3   0.287387 0.922177 0.732390 0.409782
C79   C     C_3   0.087628 0.860917 0.730743 -0.156565
C80   C     C_3   0.186621 0.237099 0.724544 -0.169306
C81   C     C_3   0.695825 0.958670 0.783843 0.145406
C82   C     C_3   0.084663 0.859290 0.787986 0.124936
C83   C     C_3   0.189657 0.230128 0.781553 0.122768
C84   C     C_1   0.785019 0.892556 0.895464 0.098936
C85   C     C_1   0.139401 0.856470 0.905989 0.072021
C86   C     C_1   0.145655 0.272538 0.903703 0.068368
C87   C     C_3   0.654721 0.830935 0.710290 -0.009586
C88   C     C_3   0.173716 0.831216 0.712303 -0.028669
C89   C     C_3   0.062523 0.316107 0.732561 0.414234
C90   C     C_3   0.173832 0.336235 0.710167 -0.020294
C91   C     C_3   0.604647 0.754626 0.798340 -0.234965
C92   C     C_3   0.143091 0.718026 0.791983 -0.212301
C93   C     C_3   0.268220 0.433536 0.790817 -0.214406
C94   C     C_3   0.712588 0.864830 0.803315 -0.040442
C95   C     C_3   0.169655 0.832959 0.810212 -0.050105
C96   C     C_3   0.173271 0.320137 0.807507 -0.042359
Cl1   Cl    Cl    0.932334 0.976121 0.779213 -0.587215
Cl2   Cl    Cl    0.595196 0.972664 0.819133 -0.461333
Cl3   Cl    Cl    0.951641 0.758283 0.810794 -0.558364
Cl4   Cl    Cl    0.316215 0.241763 0.799175 -0.415542
Cl5   Cl    Cl    0.758560 0.709844 0.696323 -0.456964
Cl6   Cl    Cl    0.395195 0.907232 0.706202 -0.495255
Cl7   Cl    Cl    0.037229 0.421366 0.713699 -0.467033
Cl8   Cl    Cl    0.867414 0.937094 0.673246 -0.460240
Cl9   Cl    Cl    0.318932 0.056348 0.711526 -0.411803
Cl10  Cl    Cl    0.950358 0.193916 0.707844 -0.411100
Cl11  Cl    Cl    0.352555 0.042517 0.821595 -0.360044
Cl12  Cl    Cl    0.945577 0.208142 0.819824 -0.494042
Cl13  Cl    Cl    0.700514 0.139706 0.208406 -0.625564
Cl14  Cl    Cl    0.846429 0.580888 0.215582 -0.610537
Cl15  Cl    Cl    0.440864 0.307419 0.204589 -0.597991
Cl16  Cl    Cl    0.434926 0.717689 0.740048 -0.616538
Cl17  Cl    Cl    0.003610 0.617608 0.715525 -0.389704
Cl18  Cl    Cl    0.399133 0.464344 0.709154 -0.511560
Cr1   Cr    Cr6+3 0.164410 0.584450 0.499910 1.078434
Cr2   Cr    Cr6+3 0.415550 0.579960 0.499910 1.074059
Cr3   Cr    Cr6+3 0.420040 0.835590 0.499910 1.072593
Cr4   Cr    Cr6+3 0.155170 0.075460 0.019960 1.083008
Cr5   Cr    Cr6+3 0.924540 0.079710 0.019960 1.089071
Cr6   Cr    Cr6+3 0.920290 0.844830 0.019960 1.072190
H1    H     H_    0.735915 0.023308 0.139285 0.185623
H2    H     H_    0.603968 0.643967 0.372795 0.138741
H3    H     H_    0.368339 0.947576 0.368758 0.138118
H4    H     H_    0.031199 0.372001 0.379039 0.140858
H5    H     H_    0.590416 0.941932 0.722585 0.267036
H6    H     H_    0.005788 0.804506 0.715755 0.268256
H7    H     H_    0.261411 0.244308 0.707017 0.250026
H8    H     H_    0.772367 0.037424 0.787094 0.269707
H9    H     H_    0.102258 0.941193 0.801256 0.207197
H10   H     H_    0.125009 0.148371 0.794252 0.218718
H11   H     H_    0.540359 0.753037 0.822976 0.223669
H12   H     H_    0.968179 0.722845 0.143934 0.187052
H13   H     H_    0.065236 0.652417 0.808496 0.245030
H14   H     H_    0.347499 0.447776 0.804774 0.237726
H15   H     H_    0.562063 0.658129 0.732071 0.245886
H16   H     H_    0.195391 0.687288 0.720536 0.199550
H17   H     H_    0.263319 0.513291 0.723218 0.209011
H18   H     H_    0.615975 0.685932 0.810767 0.138007
H19   H     H_    0.206374 0.699175 0.804328 0.113131
H20   H     H_    0.257077 0.500085 0.806864 0.111896
H21   H     H_    0.619481 0.957500 0.381643 0.127571
H22   H     H_    0.041234 0.670349 0.384081 0.129532
H23   H     H_    0.287525 0.268677 0.137964 0.186173
H24   H     H_    0.345684 0.391931 0.379236 0.129184
H25   H     H_    0.661051 0.069748 0.307343 0.142457
H26   H     H_    0.923273 0.606318 0.312284 0.147376
H27   H     H_    0.414584 0.349960 0.303746 0.144982
H28   H     H_    0.624732 0.580491 0.206039 0.199089
H29   H     H_    0.421612 0.033204 0.201732 0.185821
H30   H     H_    0.931408 0.333442 0.214971 0.192631
H31   H     H_    0.729966 0.010540 0.706709 0.210601
H32   H     H_    0.106265 0.942724 0.717208 0.181985
H33   H     H_    0.118635 0.159164 0.710248 0.199385
H34   H     H_    0.672758 0.691813 0.133345 0.154907
H35   H     H_    0.802524 0.786945 0.783961 0.224820
H36   H     H_    0.339636 0.879004 0.799942 0.204801
H37   H     H_    0.068246 0.390108 0.804304 0.165514
H38   H     H_    0.305493 0.975312 0.131542 0.152802
H39   H     H_    0.001680 0.301635 0.139983 0.157269
H40   H     H_    0.607904 0.566143 0.295351 0.138751
H41   H     H_    0.442822 0.027236 0.290154 0.138178
H42   H     H_    0.937928 0.351329 0.304124 0.135345
O1    O     O_R   0.137150 0.468200 0.553200 -0.470811
O2    O     O_R   0.140110 0.470540 0.446010 -0.520826
O3    O     O_R   0.529460 0.669570 0.446010 -0.520650
O4    O     O_R   0.330430 0.859890 0.446010 -0.523054
O5    O     O_R   0.176710 0.690910 0.450560 -0.504176
O6    O     O_R   0.309090 0.485800 0.450560 -0.507521
O7    O     O_R   0.514200 0.823290 0.450560 -0.506481
O8    O     O_3   0.333333 0.666667 0.499990 -0.297878
O9    O     O_R   0.176750 0.985260 0.074180 -0.506292
O10   O     O_R   0.014740 0.191490 0.074180 -0.511945
O11   O     O_R   0.808510 0.823250 0.074180 -0.506025
O12   O     O_R   0.531800 0.668950 0.553200 -0.473059
O13   O     O_R   0.146100 0.172630 0.068980 -0.496052
O14   O     O_R   0.827370 0.973470 0.068980 -0.491554
O15   O     O_R   0.026530 0.853900 0.068980 -0.499838
O16   O     O_3   0.000000 0.000000 0.020040 -0.263066
O17   O     O_R   0.148270 0.170520 0.969620 -0.491371
O18   O     O_R   0.829480 0.977750 0.969620 -0.477303
O19   O     O_R   0.022250 0.851730 0.969620 -0.505478
O20   O     O_R   0.331050 0.862850 0.553200 -0.473309
O21   O     O_R   0.179100 0.982980 0.967000 -0.481576
O22   O     O_R   0.017020 0.196120 0.967000 -0.488662
O23   O     O_R   0.803880 0.820900 0.967000 -0.496729
O24   O     O_R   0.173970 0.688730 0.549930 -0.481360
O25   O     O_R   0.311270 0.485240 0.549930 -0.485610
O26   O     O_R   0.514760 0.826030 0.549930 -0.489377

loop_
_geom_bond_atom_site_label_1
_geom_bond_atom_site_label_2
_ccdc_geom_bond_type
C25   C31   A    
C65   C92   S    
C26   C32   A    
C55   C59   A    
C78   Cl6   S    
C18   C21   A    
C82   Cl3   S    
C20   H24   S    
C2    C84   T    
C92   H13   S    
C17   O19   A    
Cr6   O23   S    
C77   H31   S    
C6    C9    T    
C13   C41   S    
C72   H38   S    
C80   H33   S    
C66   C90   S    
C29   C76   S    
C1    O24   A    
C27   C33   A    
C13   O11   A    
C46   C49   A    
C32   Cl14  S    
C60   C63   A    
C17   C85   S    
C32   C36   A    
C29   O6    A    
C51   C68   A    
C47   C76   A    
C15   O17   A    
C16   O23   A    
Cr1   O8    S    
C23   O26   A    
C30   C74   S    
C58   H28   S    
C26   C39   A    
C64   Cl16  S    
C4    C86   T    
C81   Cl2   S    
Cr2   O3    S    
C16   C84   S    
C8    C23   S    
C6    C88   S    
C20   C76   A    
C35   H25   S    
C7    C10   T    
Cr1   O2    S    
Cr6   O16   S    
C56   Cl12  S    
C52   C69   A    
C28   O5    A    
C4    C96   S    
C13   O14   A    
C66   C93   S    
Cr3   O8    S    
C34   Cl1   S    
C40   C43   A    
C57   H42   S    
C20   C24   A    
C89   Cl10  S    
C11   C43   S    
C45   C78   S    
C33   Cl15  S    
Cr5   O16   S    
C39   C42   A    
Cr6   O19   S    
Cr3   O4    S    
C64   C87   S    
C28   O4    A    
Cr5   O10   S    
C41   C71   A    
Cr4   O17   S    
C61   C71   A    
C58   C61   A    
C64   H15   S    
C11   O10   A    
C18   C74   A    
C89   Cl7   S    
C80   C90   S    
C29   O2    A    
C25   C68   A    
C80   C83   S    
C53   C70   A    
C10   C12   S    
C46   C75   A    
C67   Cl8   S    
C47   C50   A    
C59   H29   S    
Cr2   O25   S    
C48   C51   A    
C50   C53   A    
C62   C72   A    
C38   H1    S    
Cr4   O21   S    
C65   H16   S    
C2    C94   S    
C19   C22   A    
C1    C9    S    
C55   H41   S    
C38   C41   A    
C93   H14   S    
C23   O12   A    
Cr1   O24   S    
Cr3   O20   S    
C57   C60   A    
C63   C73   A    
C24   C53   A    
C34   H35   S    
C12   O25   A    
C92   C95   S    
C33   C37   A    
C62   C69   A    
C67   C87   S    
C48   C54   A    
Cr6   O15   S    
C30   O7    A    
C56   H37   S    
Cr3   O7    S    
C25   C38   A    
C79   C82   S    
C91   H18   S    
C17   O21   A    
C63   C70   A    
C77   C81   S    
C27   C40   A    
C49   C52   A    
C15   O22   A    
C42   C72   A    
C24   C37   A    
C31   Cl13  S    
Cr2   O8    S    
C45   H36   S    
C60   H30   S    
C14   C42   S    
C37   H27   S    
C82   H9    S    
C44   C74   A    
C92   H19   S    
C27   C70   A    
C79   C88   S    
C83   H10   S    
C15   C86   S    
Cr4   O16   S    
C36   H26   S    
C56   C89   S    
C79   H6    S    
Cr4   O13   S    
C93   C96   S    
C83   Cl4   S    
C78   Cl9   S    
C81   H8    S    
C31   C35   A    
C3    C85   T    
Cr5   O18   S    
Cr1   O5    S    
C45   C95   S    
C21   C51   A    
C77   H5    S    
C67   Cl5   S    
C65   C88   S    
C22   C52   A    
C54   C58   A    
C78   C88   S    
C56   C96   S    
C59   C62   A    
C82   C95   S    
C66   Cl18  S    
C50   C57   A    
C65   Cl17  S    
C18   H21   S    
C34   C94   S    
C30   O3    A    
C14   O9    A    
Cr3   O26   S    
C34   C67   S    
C5    C8    T    
C1    O20   A    
C21   C35   A    
C80   H7    S    
Cr2   O12   S    
C19   H22   S    
C22   C36   A    
C73   H39   S    
C11   O13   A    
C45   Cl11  S    
C43   C73   A    
C71   H34   S    
C19   C75   A    
C93   H20   S    
C49   C55   A    
C12   O1    A    
C81   C94   S    
C7    C90   S    
C61   C68   A    
C47   H4    S    
C66   H17   S    
Cr4   O9    S    
C83   C96   S    
C44   H2    S    
Cr5   O22   S    
Cr1   O1    S    
C46   H3    S    
C14   O15   A    
C54   H40   S    
C5    C87   S    
C44   C48   A    
Cr6   O11   S    
C91   H11   S    
C77   C87   S    
C39   H12   S    
C40   H23   S    
C26   C69   A    
Cr2   O6    S    
C3    C95   S    
C64   C91   S    
C89   C90   S    
C28   C75   S    
Cr5   O14   S    
C16   O18   A    
C79   H32   S    
C91   C94   S    
