data_mof_unit_27635.cif
_audit_creation_date              2012-12-11T16:57:17-0500
_audit_creation_method            fapswitch 2.2
_symmetry_space_group_name_H-M    P1
_symmetry_Int_Tables_number       1
_space_group_crystal_system       triclinic
_cell_length_a                    14.514578
_cell_length_b                    16.156349
_cell_length_c                    6.964607
_cell_angle_alpha                 90.072843
_cell_angle_beta                  98.765294
_cell_angle_gamma                 90.014484
_cell_volume                      1614.14232351

loop_
_atom_site_label
_atom_site_type_symbol
_atom_type_description
_atom_site_fract_x
_atom_site_fract_y
_atom_site_fract_z
_atom_type_partial_charge
O1    O     O_R   0.584990 0.413650 0.534420 -0.542026
O2    O     O_R   0.584990 0.586350 0.534420 -0.543531
O3    O     O_R   0.596190 0.585230 0.208380 -0.539349
O4    O     O_R   0.596190 0.414770 0.208380 -0.543117
O5    O     O_R   0.415010 0.586420 0.976930 -0.538132
O6    O     O_R   0.415010 0.413580 0.976930 -0.537535
C1    C     C_R   0.617887 0.614909 0.384206 0.703647
C2    C     C_R   0.618624 0.385653 0.384074 0.699092
O7    O     O_3   0.440560 0.500000 0.319140 -0.367281
V1    V     V_3+5 0.511030 0.500000 0.068070 1.389282
O8    O     O_R   0.403810 0.414840 0.643540 -0.542262
O9    O     O_R   0.403810 0.585160 0.643540 -0.543578
C3    C     C_R   0.381449 0.386154 0.805821 0.748853
C4    C     C_R   0.381641 0.613954 0.805961 0.752377
V2    V     V_3+5 0.488970 0.500000 0.560620 1.388399
O10   O     O_3   0.559440 0.500000 0.859420 -0.379843
H1    H     H_    0.188238 0.805942 0.806477 0.155455
H2    H     H_    0.188279 0.193825 0.806606 0.156140
H3    H     H_    0.318640 0.693301 0.101302 0.154013
H4    H     H_    0.318809 0.306795 0.101185 0.155010
C5    C     C_2   0.312470 0.681826 0.796625 -0.334983
C6    C     C_2   0.312335 0.318160 0.796432 -0.330942
C7    C     C_2   0.287811 0.715709 0.958837 -0.122930
C8    C     C_2   0.287870 0.284285 0.958735 -0.120605
H5    H     H_    0.225294 0.795464 0.253219 0.125899
H6    H     H_    0.225456 0.204705 0.253411 0.126921
C9    C     C_2   0.194462 0.818065 0.110949 -0.336176
C10   C     C_2   0.194575 0.181976 0.111138 -0.338868
C11   C     C_2   0.219112 0.783781 0.949141 -0.119145
C12   C     C_2   0.219202 0.216129 0.949258 -0.119357
H7    H     H_    0.281662 0.704821 0.654694 0.126370
H8    H     H_    0.281435 0.295073 0.654498 0.126643
C13   C     C_R   0.750896 0.689481 0.590238 0.034994
C14   C     C_R   0.685920 0.260032 0.569926 0.108997
C15   C     C_R   0.688216 0.682719 0.416803 -0.127742
C16   C     C_R   0.685303 0.314938 0.413964 -0.141267
C17   C     C_R   0.693755 0.743733 0.275428 -0.174601
C18   C     C_R   0.750728 0.300401 0.287713 -0.185094
H9    H     H_    0.642298 0.744301 0.147327 0.178199
H10   H     H_    0.753991 0.342074 0.167826 0.127486
C19   C     C_R   0.759537 0.808723 0.306557 -0.184403
C20   C     C_R   0.815091 0.234334 0.320108 -0.168291
H11   H     H_    0.758880 0.856032 0.196514 0.137270
H12   H     H_    0.866374 0.226077 0.225366 0.123243
C21   C     C_R   0.821347 0.815452 0.482861 -0.148045
C22   C     C_R   0.818447 0.182450 0.482652 -0.079345
C23   C     C_R   0.817753 0.752701 0.620567 0.101032
C24   C     C_R   0.753604 0.197807 0.607886 0.078731
C25   C     C_3   0.808272 0.761661 0.829660 0.008590
C26   C     C_3   0.772744 0.220673 0.818159 0.009643
C27   C     C_3   0.730875 0.697231 0.794601 0.034152
C28   C     C_3   0.691739 0.281534 0.778968 -0.005893
H13   H     H_    0.786497 0.824534 0.870503 0.137577
H14   H     H_    0.763340 0.168937 0.918787 0.138126
H15   H     H_    0.744123 0.639613 0.881873 0.153343
H16   H     H_    0.708779 0.347573 0.814090 0.135142
O11   O     O_R   0.921430 0.915960 0.371040 -0.535048
O12   O     O_R   0.921430 0.084040 0.371040 -0.540314
O13   O     O_R   0.910450 0.087500 0.697310 -0.544531
O14   O     O_R   0.910450 0.912500 0.697310 -0.549603
O15   O     O_R   0.091710 0.087460 0.928430 -0.539782
O16   O     O_R   0.091710 0.912540 0.928430 -0.541057
C29   C     C_R   0.888662 0.114778 0.520020 0.698990
C30   C     C_R   0.888188 0.885662 0.519567 0.701949
O17   O     O_3   0.065970 0.000000 0.586140 -0.368329
V3    V     V_3+5 0.995640 0.000000 0.837400 1.394364
O18   O     O_R   0.103020 0.915700 0.261710 -0.540099
O19   O     O_R   0.103020 0.084300 0.261710 -0.541108
C31   C     C_R   0.125220 0.885964 0.100116 0.752117
C32   C     C_R   0.125242 0.114062 0.100231 0.752895
V4    V     V_3+5 0.017940 1.000000 0.344880 1.392754
O20   O     O_3   0.947330 0.000000 0.046180 -0.377857
N1    N     N_3   0.891311 0.730636 0.953519 -0.667611
H17   H     H_    0.875674 0.724397 0.094271 0.243824
H18   H     H_    0.942858 0.776214 0.960128 0.236162
N2    N     N_3   0.863217 0.262771 0.859704 -0.668077
H19   H     H_    0.913470 0.219617 0.917621 0.234448
H20   H     H_    0.861068 0.309010 0.963621 0.220184
N3    N     N_3   0.639537 0.734503 0.804863 -0.710406
H21   H     H_    0.589117 0.688019 0.795017 0.250555
H22   H     H_    0.620571 0.776726 0.691888 0.238002
N4    N     N_3   0.608381 0.252022 0.851755 -0.670472
H23   H     H_    0.554131 0.293043 0.803667 0.237926
H24   H     H_    0.619627 0.255798 0.002889 0.239839

loop_
_geom_bond_atom_site_label_1
_geom_bond_atom_site_label_2
_ccdc_geom_bond_type
O15   C32   A    
C9    C11   D    
O1    C2    A    
H1    C11   S    
N1    H17   S    
O2    C1    A    
O4    C2    A    
C23   C25   S    
C5    H7    S    
C26   H14   S    
C6    H8    S    
C7    C11   S    
C4    C5    S    
C15   C17   A    
N2    H20   S    
C18   C20   A    
O3    C1    A    
O13   V3    S    
C20   C22   A    
O12   V4    S    
O18   V4    S    
V2    O10   S    
C2    C16   S    
O8    V2    S    
O15   V3    S    
V3    O20   S    
H4    C8    S    
C25   C27   S    
C26   C28   S    
H2    C12   S    
O7    V1    S    
C27   H15   S    
C9    C31   S    
C6    C8    D    
C24   C26   S    
O14   V3    S    
C19   H11   S    
C20   H12   S    
H6    C10   S    
C27   N3    S    
C21   C23   A    
C22   C24   A    
O16   V3    S    
N2    H19   S    
N3    H22   S    
O17   V4    S    
O16   C31   A    
O18   C31   A    
H3    C7    S    
C26   N2    S    
O9    V2    S    
O11   V4    S    
C28   N4    S    
O2    V2    S    
O5    C4    A    
O1    V2    S    
O9    C4    A    
O17   V3    S    
N4    H24   S    
C5    C7    D    
C13   C23   A    
C25   N1    S    
O13   C29   A    
C13   C27   S    
N1    H18   S    
O4    V1    S    
O11   C30   A    
O12   C29   A    
C1    C15   S    
C10   C32   S    
O6    V1    S    
H5    C9    S    
C21   C30   S    
C14   C28   S    
C22   C29   S    
O14   C30   A    
C16   C18   A    
O7    V2    S    
O5    V1    S    
C17   H9    S    
O3    V1    S    
V1    O10   S    
O6    C3    A    
C18   H10   S    
O8    C3    A    
O19   V4    S    
C25   H13   S    
C10   C12   D    
C13   C15   A    
C3    C6    S    
C14   C16   A    
C17   C19   A    
C8    C12   S    
N3    H21   S    
V4    O20   S    
C14   C24   A    
O19   C32   A    
N4    H23   S    
C19   C21   A    
C28   H16   S    
