data_mof_unit_45241.cif
_audit_creation_date              2012-12-10T17:39:21-0500
_audit_creation_method            fapswitch 2.2
_symmetry_space_group_name_H-M    P1
_symmetry_Int_Tables_number       1
_space_group_crystal_system       triclinic
_cell_length_a                    12.47172
_cell_length_b                    13.065358
_cell_length_c                    27.793677
_cell_angle_alpha                 73.781942
_cell_angle_beta                  101.060578
_cell_angle_gamma                 117.5662
_cell_volume                      3844.56984262

loop_
_atom_site_label
_atom_site_type_symbol
_atom_type_description
_atom_site_fract_x
_atom_site_fract_y
_atom_site_fract_z
_atom_type_partial_charge
C1    C     C_R   0.855756 0.285435 0.503715 0.810322
C2    C     C_R   0.913644 0.516923 0.711932 0.450080
C3    C     C_R   0.007873 0.504750 0.746341 0.272248
C4    C     C_R   0.004549 0.505506 0.897692 -0.050052
C5    C     C_R   0.967258 0.398417 0.883044 -0.017488
C6    C     C_R   0.928234 0.292062 0.918904 -0.150085
C7    C     C_R   0.043569 0.612436 0.861264 -0.038481
C8    C     C_R   0.001928 0.500369 0.645386 -0.135124
C9    C     C_R   0.999849 0.501708 0.354508 -0.028330
C10   C     C_R   0.972623 0.398856 0.036540 0.060500
C11   C     C_R   0.027864 0.612818 0.012915 -0.021157
C12   C     C_R   0.000189 0.499690 0.592364 0.818263
C13   C     C_R   0.999406 0.506037 0.049956 0.064943
C14   C     C_R   0.952807 0.296474 0.075233 -0.208977
C15   C     C_R   0.954353 0.298156 0.125019 -0.146628
C16   C     C_R   0.976063 0.401840 0.138364 0.008476
C17   C     C_R   0.998549 0.506410 0.101016 -0.106640
C18   C     C_R   0.020428 0.610998 0.114881 -0.126771
C19   C     C_R   0.021161 0.608071 0.166114 0.554061
C20   C     C_R   0.976437 0.403158 0.188619 0.530707
C21   C     C_R   0.090127 0.487148 0.288175 -0.103225
C22   C     C_R   0.090348 0.485761 0.338516 -0.224976
C23   C     C_R   0.144912 0.715744 0.492668 0.843682
C24   C     C_R   0.909189 0.518904 0.319234 -0.223757
C25   C     C_R   0.909136 0.520122 0.268938 -0.111747
C26   C     C_R   0.999567 0.504319 0.253230 0.354246
C27   C     C_R   0.967831 0.397547 0.985224 0.040283
C28   C     C_R   0.002844 0.505653 0.948654 0.069816
C29   C     C_R   0.036218 0.613895 0.962450 0.067768
C30   C     C_R   0.928298 0.291342 0.968959 -0.210971
C31   C     C_R   0.081042 0.718919 0.875549 -0.150551
C32   C     C_R   0.045877 0.715144 0.027567 -0.297258
C33   C     C_R   0.039818 0.714569 0.077264 0.467398
C34   C     C_R   0.000151 0.500775 0.407606 0.763524
C35   C     C_R   0.077746 0.719939 0.925067 -0.203116
C36   C     C_R   0.288764 0.038593 0.425346 0.172213
C37   C     C_R   0.228388 0.843899 0.482295 -0.228340
C38   C     C_R   0.814314 0.069968 0.527774 0.460721
C39   C     C_R   0.729155 0.950872 0.534610 -0.283788
C40   C     C_R   0.608094 0.920220 0.518145 -0.195623
C41   C     C_R   0.567705 0.007608 0.493236 0.123672
C42   C     C_R   0.656301 0.125306 0.479556 0.001144
C43   C     C_R   0.443020 0.981351 0.479195 -0.056263
C44   C     C_R   0.412013 0.065223 0.441965 0.040495
C45   C     C_R   0.969052 0.400186 0.832508 0.514204
C46   C     C_R   0.505494 0.175361 0.422538 -0.194028
C47   C     C_R   0.624679 0.205068 0.441277 -0.190927
C48   C     C_R   0.348763 0.876032 0.502281 0.313766
C49   C     C_R   0.196009 0.930283 0.448239 0.102366
C50   C     C_R   0.775494 0.159057 0.503049 -0.206293
C51   C     C_R   0.362127 0.366459 0.595443 0.086151
C52   C     C_R   0.767251 0.650290 0.430900 0.074083
C53   C     C_R   0.695393 0.708942 0.422276 -0.273496
C54   C     C_R   0.603616 0.670488 0.453547 -0.185638
C55   C     C_R   0.572565 0.565016 0.491444 -0.015089
C56   C     C_R   0.045030 0.610355 0.811194 0.594451
C57   C     C_R   0.658741 0.516025 0.503190 0.262211
C58   C     C_R   0.463209 0.506618 0.519453 -0.081417
C59   C     C_R   0.466416 0.432631 0.567340 0.084016
C60   C     C_R   0.572268 0.419434 0.584962 -0.255283
C61   C     C_R   0.645993 0.430307 0.550203 0.138460
C62   C     C_R   0.349558 0.512225 0.501877 0.335614
C63   C     C_R   0.252551 0.368937 0.574143 0.030539
C64   C     C_R   0.099419 0.489697 0.730294 0.156057
C65   C     C_R   0.094395 0.485859 0.680111 -0.232176
C66   C     C_R   0.912391 0.516953 0.661546 -0.316166
Cu1   Cu    Cu3+1 0.098270 0.475420 0.511360 0.959296
Cu2   Cu    Cu3+1 0.901730 0.524580 0.488640 0.915234
H1    H     H_    0.840906 0.529588 0.635321 0.186836
H2    H     H_    0.113363 0.802548 0.848408 0.186531
H3    H     H_    0.062275 0.797764 0.001094 0.153290
H4    H     H_    0.838166 0.531210 0.330431 0.155237
H5    H     H_    0.838610 0.532980 0.242120 0.136063
H6    H     H_    0.111275 0.806220 0.932891 0.143952
H7    H     H_    0.488014 0.242464 0.393980 0.156234
H8    H     H_    0.549326 0.826865 0.522764 0.207570
H9    H     H_    0.755834 0.880995 0.553887 0.156367
H10   H     H_    0.692306 0.290438 0.424131 0.175296
H11   H     H_    0.172166 0.319868 0.594968 0.161317
H12   H     H_    0.578874 0.368446 0.622540 0.163571
H13   H     H_    0.841499 0.683142 0.407650 0.129027
H14   H     H_    0.897269 0.208325 0.908449 0.183789
H15   H     H_    0.566018 0.731565 0.448720 0.157403
H16   H     H_    0.714483 0.787985 0.392683 0.153327
H17   H     H_    0.161470 0.472505 0.364782 0.160303
H18   H     H_    0.160470 0.475151 0.276226 0.140413
H19   H     H_    0.938677 0.217202 0.153171 0.183738
H20   H     H_    0.938689 0.213624 0.068593 0.137310
H21   H     H_    0.893998 0.205224 0.993792 0.137865
H22   H     H_    0.164177 0.472905 0.668185 0.173512
N1    N     N_R   0.007898 0.505215 0.797889 -0.449738
N2    N     N_R   0.999125 0.505239 0.201468 -0.473217
N3    N     N_R   0.246290 0.438210 0.528570 -0.204669
N4    N     N_R   0.754320 0.561170 0.471730 -0.196872
O1    O     O_R   0.972510 0.318140 0.514280 -0.515942
O2    O     O_2   0.953462 0.302905 0.224444 -0.548844
O3    O     O_2   0.083347 0.712396 0.776058 -0.530725
O4    O     O_2   0.045051 0.707033 0.180833 -0.494039
O5    O     O_R   0.806530 0.359640 0.495100 -0.593650
O6    O     O_R   0.082990 0.479270 0.579320 -0.581745
O7    O     O_R   0.917010 0.520770 0.560140 -0.579976
O8    O     O_R   0.193470 0.640360 0.504900 -0.534343
O9    O     O_R   0.027490 0.681860 0.485720 -0.584751
O10   O     O_R   0.082990 0.479230 0.439860 -0.597837
O11   O     O_R   0.917010 0.520730 0.420680 -0.598791
O12   O     O_2   0.932367 0.297939 0.817975 -0.557376
C67   C     C_3   0.204140 0.479174 0.765120 -0.801199
H23   H     H_    0.200948 0.391136 0.768456 0.239839
H24   H     H_    0.290849 0.548897 0.749574 0.221167
H25   H     H_    0.203666 0.489685 0.803282 0.234915
O13   O     O_3   0.060821 0.818862 0.088956 -0.530713
C68   C     C_3   0.953269 0.834480 0.076799 0.102336
H26   H     H_    0.876945 0.758048 0.097481 0.143473
H27   H     H_    0.927695 0.845096 0.035665 0.120335
C69   C     C_3   0.973580 0.945857 0.091850 -0.741600
H28   H     H_    0.048198 0.024101 0.071332 0.242936
H29   H     H_    0.889560 0.959081 0.082465 0.181158
H30   H     H_    0.997653 0.937582 0.132908 0.270046
C70   C     C_3   0.064862 0.910762 0.439029 -0.824468
H31   H     H_    0.019223 0.862027 0.408538 0.231487
H32   H     H_    0.016676 0.863060 0.473930 0.238187
H33   H     H_    0.056468 0.995107 0.429315 0.222949
C71   C     C_3   0.257917 0.122806 0.381333 -0.849511
H34   H     H_    0.314464 0.147682 0.349889 0.227823
H35   H     H_    0.163662 0.083340 0.364711 0.247717
H36   H     H_    0.274134 0.203467 0.393242 0.226199
O14   O     O_3   0.827126 0.537034 0.727064 -0.558581
C72   C     C_3   0.722804 0.428662 0.737350 0.057435
H37   H     H_    0.743917 0.363357 0.768043 0.171542
H38   H     H_    0.684379 0.390881 0.703274 0.130737
C73   C     C_3   0.627029 0.449627 0.754234 -0.767464
H39   H     H_    0.601873 0.512539 0.723930 0.250870
H40   H     H_    0.544847 0.364693 0.762962 0.198610
H41   H     H_    0.662562 0.486779 0.788458 0.256783
O15   O     O_3   0.372929 0.803970 0.545620 -0.578481
C74   C     C_3   0.345267 0.826165 0.587482 0.093116
H42   H     H_    0.246001 0.797818 0.586778 0.135385
H43   H     H_    0.395375 0.921807 0.588555 0.138980
C75   C     C_3   0.382950 0.755509 0.635217 -0.759841
H44   H     H_    0.482712 0.785968 0.638230 0.247076
H45   H     H_    0.356975 0.767750 0.668525 0.208415
H46   H     H_    0.337337 0.660053 0.634507 0.250931
O16   O     O_3   0.933991 0.100449 0.546826 -0.564180
C76   C     C_3   0.985453 0.045346 0.527225 0.072360
H47   H     H_    0.955680 0.043970 0.486792 0.133131
H48   H     H_    0.960894 0.953320 0.549323 0.149048
C77   C     C_3   0.122948 0.112855 0.531336 -0.770293
H49   H     H_    0.156547 0.116978 0.571074 0.251350
H50   H     H_    0.163980 0.067423 0.517866 0.204197
H51   H     H_    0.151119 0.203937 0.507870 0.252735
C78   C     C_3   0.363593 0.289069 0.647133 -0.911601
H52   H     H_    0.430895 0.343490 0.673066 0.241357
H53   H     H_    0.273987 0.245759 0.663229 0.238684
H54   H     H_    0.387041 0.218117 0.645173 0.239484
C79   C     C_3   0.347329 0.606137 0.455919 -0.761752
H55   H     H_    0.263920 0.611598 0.441201 0.260118
H56   H     H_    0.398717 0.693350 0.466102 0.198860
H57   H     H_    0.379690 0.597132 0.423517 0.190704
C80   C     C_3   0.657101 0.316623 0.558608 -0.740653
H58   H     H_    0.597221 0.243850 0.587183 0.180245
H59   H     H_    0.620626 0.280507 0.524343 0.247191
H60   H     H_    0.748855 0.326296 0.574158 0.242839

loop_
_geom_bond_atom_site_label_1
_geom_bond_atom_site_label_2
_ccdc_geom_bond_type
C10   C27   A    
C58   C62   A    
C21   C26   A    
C35   H6    S    
C8    C66   A    
C6    H14   S    
C79   H56   S    
C67   H24   S    
C41   C42   A    
C48   O15   S    
C77   H49   S    
Cu2   O9    S    
C73   H41   S    
C72   H37   S    
C1    O5    A    
C68   H27   S    
O15   C74   S    
C63   H11   S    
C3    C64   A    
C45   O12   S    
C20   N2    A    
C53   H16   S    
C56   O3    S    
C28   C29   A    
C77   H50   S    
O16   C76   S    
C76   C77   S    
C5    C6    A    
C75   H46   S    
C9    C22   A    
C78   H54   S    
C23   O8    A    
C26   N2    S    
C15   C16   A    
C11   C13   A    
C62   C79   S    
C3    N1    S    
C18   C19   A    
C38   O16   S    
C22   H17   S    
C54   H15   S    
C19   N2    A    
C54   C55   A    
C56   N1    A    
C23   O9    A    
O13   C68   S    
C16   C17   A    
C69   H29   S    
C67   H23   S    
C80   H59   S    
C52   N4    A    
C33   O13   S    
C43   C48   A    
C25   H5    S    
C8    C12   S    
C2    O14   S    
C20   O2    S    
C78   H52   S    
C51   C78   S    
C59   C60   A    
C21   C22   A    
C79   H57   S    
Cu1   O1    S    
C41   C43   A    
C7    C56   A    
C30   H21   S    
C46   H7    S    
C4    C28   A    
C19   O4    S    
C44   C46   A    
Cu1   O10   S    
C32   H3    S    
C70   H32   S    
C65   H22   S    
C7    C31   A    
Cu1   Cu2   S    
C71   H34   S    
C36   C71   S    
C51   C63   A    
Cu2   O7    S    
C74   H43   S    
C10   C14   A    
C39   C40   A    
C76   H47   S    
C71   H36   S    
C4    C7    A    
C58   C59   A    
C53   C54   A    
C5    C45   A    
Cu2   N4    S    
C40   H8    S    
C60   C61   A    
C74   C75   S    
C43   C44   A    
C37   C49   A    
C80   H58   S    
C1    O1    A    
C69   H30   S    
C77   H51   S    
C62   N3    A    
C73   H40   S    
C17   C18   A    
C80   H60   S    
C16   C20   A    
C24   C25   A    
C37   C48   A    
Cu1   O6    S    
C42   C50   A    
C76   H48   S    
C40   C41   A    
C6    C30   A    
C11   C32   A    
C57   N4    A    
C55   C57   A    
C9    C34   S    
C67   H25   S    
C31   C35   A    
C36   C44   A    
C51   C59   A    
Cu2   O11   S    
C73   H39   S    
C72   C73   S    
C39   H9    S    
C79   H55   S    
C52   C53   A    
C24   H4    S    
C64   C67   S    
C15   H19   S    
C1    C50   S    
C70   H33   S    
C63   N3    A    
C21   H18   S    
C60   H12   S    
C38   C39   A    
C34   O11   A    
C4    C5    A    
C2    C66   A    
C10   C13   A    
C72   H38   S    
C75   H44   S    
C9    C24   A    
C57   C61   A    
O14   C72   S    
C38   C50   A    
C29   C35   A    
C13   C17   A    
C64   C65   A    
C31   H2    S    
C61   C80   S    
C2    C3    A    
C25   C26   A    
Cu2   O5    S    
C14   H20   S    
C12   O7    A    
C23   C37   S    
C32   C33   A    
C75   H45   S    
C49   C70   S    
C68   H26   S    
C42   C47   A    
C78   H53   S    
C52   H13   S    
C45   N1    A    
C18   C33   A    
C34   O10   A    
C12   O6    A    
C46   C47   A    
C71   H35   S    
C66   H1    S    
C8    C65   A    
C11   C29   A    
C70   H31   S    
C55   C58   A    
C27   C28   A    
Cu1   N3    S    
C14   C15   A    
C74   H42   S    
C47   H10   S    
C68   C69   S    
C36   C49   A    
C69   H28   S    
Cu1   O8    S    
C27   C30   A    
