data_mof_unit_49261.cif
_audit_creation_date              2012-12-11T15:37:25-0500
_audit_creation_method            fapswitch 2.2
_symmetry_space_group_name_H-M    P1
_symmetry_Int_Tables_number       1
_space_group_crystal_system       triclinic
_cell_length_a                    17.489382
_cell_length_b                    24.632784
_cell_length_c                    14.802604
_cell_angle_alpha                 90.01936
_cell_angle_beta                  126.144836
_cell_angle_gamma                 90.013467
_cell_volume                      5149.72326615

loop_
_atom_site_label
_atom_site_type_symbol
_atom_type_description
_atom_site_fract_x
_atom_site_fract_y
_atom_site_fract_z
_atom_type_partial_charge
C1    C     C_R   0.843228 0.649098 0.907133 -0.056788
C2    C     C_3   0.576953 0.499735 0.641684 0.173539
C3    C     C_3   0.049925 0.007128 0.523325 -0.131567
C4    C     C_3   0.905267 0.000420 0.461643 0.173203
C5    C     C_3   0.076865 0.999637 0.641717 0.173605
C6    C     C_R   0.723964 0.271476 0.921575 0.552748
C7    C     C_R   0.332641 0.684083 0.064960 0.550914
C8    C     C_R   0.332589 0.315892 0.065071 0.551067
C9    C     C_R   0.723910 0.728433 0.921744 0.552565
C10   C     C_R   0.223972 0.771467 0.921543 0.552715
C11   C     C_R   0.832641 0.184080 0.064944 0.550902
C12   C     C_R   0.832632 0.815907 0.065128 0.551112
C13   C     C_R   0.189118 0.373452 0.091476 -0.093171
C14   C     C_R   0.223869 0.228397 0.921765 0.552506
C15   C     C_R   0.180460 0.724073 0.916888 -0.452931
C16   C     C_R   0.877309 0.231688 0.068288 -0.456995
C17   C     C_R   0.877265 0.768279 0.068538 -0.456637
C18   C     C_R   0.180385 0.275815 0.917011 -0.453020
C19   C     C_R   0.680454 0.224081 0.916919 -0.452932
C20   C     C_R   0.377310 0.731690 0.068303 -0.456943
C21   C     C_R   0.377227 0.268267 0.068492 -0.456697
C22   C     C_R   0.680433 0.775853 0.917005 -0.452989
C23   C     C_R   0.233896 0.681226 0.989068 0.005246
C24   C     C_R   0.189123 0.626589 0.091456 -0.093001
C25   C     C_R   0.822675 0.274690 0.997476 0.004381
C26   C     C_R   0.822613 0.725239 0.997702 0.004317
C27   C     C_R   0.233847 0.318722 0.989128 0.005420
C28   C     C_R   0.733895 0.181228 0.989074 0.005206
C29   C     C_R   0.322680 0.774687 0.997470 0.004370
C30   C     C_R   0.322576 0.225216 0.997696 0.004336
C31   C     C_R   0.733893 0.818750 0.989157 0.005458
C32   C     C_R   0.885159 0.450826 0.457091 -0.169592
C33   C     C_R   0.890283 0.549075 0.367389 -0.161254
C34   C     C_R   0.890276 0.450852 0.367326 -0.161340
C35   C     C_R   0.843272 0.350859 0.907048 -0.056578
C36   C     C_R   0.885150 0.549090 0.457141 -0.169845
C37   C     C_R   0.385165 0.950825 0.457095 -0.169537
C38   C     C_R   0.390281 0.049074 0.367387 -0.161252
C39   C     C_R   0.390281 0.950851 0.367329 -0.161382
C40   C     C_R   0.385149 0.049089 0.457141 -0.169896
C41   C     C_R   0.904500 0.499970 0.331381 0.143756
C42   C     C_R   0.893487 0.499959 0.510093 0.137175
C43   C     C_R   0.404500 0.999969 0.331380 0.143755
C44   C     C_R   0.393490 0.999958 0.510094 0.137229
C45   C     C_R   0.937296 0.351900 0.094014 -0.177025
C46   C     C_R   0.343205 0.149088 0.907126 -0.056763
C47   C     C_R   0.093585 0.622629 0.903655 -0.172067
C48   C     C_R   0.093570 0.377327 0.903655 -0.172154
C49   C     C_R   0.937263 0.648072 0.094103 -0.177267
C50   C     C_R   0.437297 0.851899 0.094014 -0.177003
C51   C     C_R   0.593587 0.122627 0.903656 -0.172075
C52   C     C_R   0.593594 0.877345 0.903670 -0.172148
C53   C     C_R   0.437250 0.148066 0.094101 -0.177316
C54   C     C_R   0.982068 0.545748 0.250607 -0.118893
C55   C     C_R   0.946524 0.454592 0.692371 -0.132126
C56   C     C_R   0.946509 0.545368 0.692378 -0.132529
C57   C     C_R   0.689148 0.873489 0.091495 -0.093296
C58   C     C_R   0.982090 0.454238 0.250615 -0.118969
C59   C     C_R   0.482069 0.045748 0.250609 -0.118847
C60   C     C_R   0.446524 0.954592 0.692372 -0.132076
C61   C     C_R   0.446510 0.045368 0.692379 -0.132569
C62   C     C_R   0.482090 0.954238 0.250615 -0.118977
C63   C     C_R   0.731896 0.454693 0.752110 -0.121654
C64   C     C_R   0.262426 0.545335 0.298407 -0.114884
C65   C     C_R   0.262308 0.454900 0.298965 -0.122099
C66   C     C_R   0.731838 0.545097 0.752580 -0.127479
C67   C     C_R   0.231896 0.954652 0.751919 -0.120489
C68   C     C_R   0.689130 0.126580 0.091458 -0.093071
C69   C     C_R   0.762272 0.045369 0.298536 -0.113401
C70   C     C_R   0.762133 0.954941 0.299288 -0.123282
C71   C     C_R   0.231803 0.045069 0.752531 -0.128499
C72   C     C_R   0.867016 0.676225 0.000878 0.143380
C73   C     C_R   0.181603 0.361198 0.995264 0.176601
C74   C     C_R   0.181623 0.638781 0.995249 0.176696
C75   C     C_R   0.867092 0.323714 0.000733 0.143279
C76   C     C_R   0.366988 0.176211 0.000872 0.143386
C77   C     C_R   0.681640 0.861229 0.995286 0.176551
C78   C     C_R   0.681628 0.138776 0.995251 0.176734
C79   C     C_R   0.343280 0.850856 0.907049 -0.056493
C80   C     C_R   0.367097 0.823712 0.000733 0.143273
C81   C     C_R   0.951091 0.499986 0.275632 0.041582
C82   C     C_R   0.928224 0.499970 0.627314 0.047023
C83   C     C_R   0.451091 0.999985 0.275632 0.041576
C84   C     C_R   0.428227 0.999969 0.627315 0.047077
C85   C     C_R   0.676917 0.499802 0.728675 0.050280
C86   C     C_R   0.313909 0.500195 0.355564 0.044430
C87   C     C_R   0.176893 0.999737 0.728429 0.050209
C88   C     C_R   0.813587 0.000259 0.356017 0.043833
C89   C     C_3   0.507316 0.452766 0.605817 -0.164176
C90   C     C_3   0.405550 0.500315 0.461253 0.173247
C91   C     C_3   0.475371 0.547175 0.497473 -0.156650
C92   C     C_3   0.480014 0.458313 0.486287 -0.152456
C93   C     C_3   0.502830 0.541886 0.617204 -0.155155
C94   C     C_3   0.008217 0.951937 0.603715 -0.165458
C95   C     C_3   0.974061 0.048022 0.499966 -0.157174
C96   C     C_3   0.980526 0.959593 0.484421 -0.151311
C97   C     C_3   0.001973 0.040621 0.619543 -0.152990
C98   C     C_3   0.430585 0.494871 0.578900 -0.147729
C99   C     C_3   0.550442 0.505124 0.523108 -0.131059
C100  C     C_3   0.930721 0.992858 0.579102 -0.148000
H1    H     H_    0.800594 0.663699 0.821774 0.102144
H2    H     H_    0.063577 0.629134 0.816512 0.110508
H3    H     H_    0.063557 0.370783 0.816509 0.110485
H4    H     H_    0.979669 0.662371 0.179637 0.099052
H5    H     H_    0.479707 0.837610 0.179521 0.099014
H6    H     H_    0.563578 0.129137 0.816514 0.110516
H7    H     H_    0.563592 0.870805 0.816525 0.110472
H8    H     H_    0.479652 0.162368 0.179633 0.099061
H9    H     H_    0.972603 0.587538 0.262988 0.094063
H10   H     H_    0.927115 0.413195 0.663566 0.081497
H11   H     H_    0.927076 0.586748 0.663588 0.081471
H12   H     H_    0.246028 0.362958 0.176634 0.116604
H13   H     H_    0.972656 0.412444 0.262999 0.094049
H14   H     H_    0.472606 0.087537 0.262993 0.094052
H15   H     H_    0.427116 0.913194 0.663567 0.081501
H16   H     H_    0.427078 0.086748 0.663588 0.081460
H17   H     H_    0.472655 0.912444 0.262997 0.094040
H18   H     H_    0.708559 0.412983 0.733392 0.120228
H19   H     H_    0.277642 0.586838 0.327882 0.085108
H20   H     H_    0.277747 0.413467 0.328796 0.088351
H21   H     H_    0.708233 0.586753 0.734077 0.123357
H22   H     H_    0.208641 0.912930 0.733219 0.119536
H23   H     H_    0.246021 0.637188 0.176574 0.116549
H24   H     H_    0.777375 0.086895 0.327869 0.084485
H25   H     H_    0.777573 0.913508 0.329124 0.088928
H26   H     H_    0.208164 0.086722 0.734108 0.123817
H27   H     H_    0.378127 0.490725 0.597751 0.120776
H28   H     H_    0.601494 0.509291 0.501997 0.123167
H29   H     H_    0.878529 0.987082 0.597963 0.120738
H30   H     H_    0.100681 0.012933 0.502165 0.123097
H31   H     H_    0.523021 0.414414 0.653154 0.133061
H32   H     H_    0.460847 0.585660 0.450890 0.122267
H33   H     H_    0.468870 0.424357 0.430309 0.128826
H34   H     H_    0.800672 0.336235 0.821673 0.101834
H35   H     H_    0.515124 0.575753 0.673863 0.133844
H36   H     H_    0.024713 0.912878 0.649121 0.132658
H37   H     H_    0.958733 0.087228 0.455338 0.121001
H38   H     H_    0.969913 0.926686 0.426730 0.130055
H39   H     H_    0.013736 0.073441 0.677916 0.133749
H40   H     H_    0.103813 0.722317 0.861998 0.148717
H41   H     H_    0.953654 0.235441 0.125630 0.151766
H42   H     H_    0.953603 0.764548 0.125926 0.151744
H43   H     H_    0.103740 0.277554 0.862089 0.148708
H44   H     H_    0.603806 0.222328 0.862049 0.148719
H45   H     H_    0.300554 0.163684 0.821764 0.102147
H46   H     H_    0.453654 0.735447 0.125664 0.151760
H47   H     H_    0.453568 0.264545 0.125859 0.151750
H48   H     H_    0.603789 0.777598 0.862060 0.148708
H49   H     H_    0.884824 0.412051 0.490916 0.106853
H50   H     H_    0.893163 0.587816 0.335316 0.110259
H51   H     H_    0.893141 0.412114 0.335194 0.110288
H52   H     H_    0.884801 0.587865 0.490999 0.106833
H53   H     H_    0.384835 0.912049 0.490923 0.106851
H54   H     H_    0.393159 0.087815 0.335312 0.110252
H55   H     H_    0.393148 0.912113 0.335199 0.110292
H56   H     H_    0.746083 0.863041 0.176676 0.116771
H57   H     H_    0.384798 0.087864 0.490996 0.106826
H58   H     H_    0.603274 0.306443 0.808701 0.308533
H59   H     H_    0.451066 0.649996 0.183039 0.313365
H60   H     H_    0.451033 0.350043 0.183170 0.313002
H61   H     H_    0.603199 0.693412 0.808842 0.308678
H62   H     H_    0.103284 0.806424 0.808626 0.308571
H63   H     H_    0.951072 0.149984 0.182984 0.313428
H64   H     H_    0.951077 0.850039 0.183276 0.312939
H65   H     H_    0.103163 0.193355 0.808925 0.308774
H66   H     H_    0.746037 0.137168 0.176580 0.116635
H67   H     H_    0.300695 0.836226 0.821678 0.101777
H68   H     H_    0.979706 0.337610 0.179521 0.099029
N1    N     N_R   0.892620 0.603790 0.941800 -0.051416
N2    N     N_R   0.047790 0.602400 0.942090 -0.047689
N3    N     N_R   0.047790 0.397600 0.942090 -0.047732
N4    N     N_R   0.952210 0.602400 0.057910 -0.039672
N5    N     N_R   0.452210 0.897600 0.057910 -0.039678
N6    N     N_R   0.547790 0.102400 0.942090 -0.047685
N7    N     N_R   0.547790 0.897600 0.942090 -0.047736
N8    N     N_R   0.452210 0.102400 0.057910 -0.039679
N9    N     N_R   0.026300 0.529110 0.206760 -0.042210
N10   N     N_R   0.973700 0.470890 0.793240 -0.034157
N11   N     N_R   0.973700 0.529110 0.793240 -0.034084
N12   N     N_R   0.107380 0.396210 0.058200 -0.055883
N13   N     N_R   0.026300 0.470890 0.206760 -0.042130
N14   N     N_R   0.526300 0.029110 0.206760 -0.042207
N15   N     N_R   0.473700 0.970890 0.793240 -0.034177
N16   N     N_R   0.473700 0.029110 0.793240 -0.034083
N17   N     N_R   0.526300 0.970890 0.206760 -0.042103
N18   N     N_R   0.818530 0.472270 0.792960 -0.045953
N19   N     N_R   0.181470 0.527730 0.207040 -0.037312
N20   N     N_R   0.181470 0.472270 0.207040 -0.036812
N21   N     N_R   0.818530 0.527730 0.792960 -0.045886
N22   N     N_R   0.318530 0.972270 0.792960 -0.045927
N23   N     N_R   0.107380 0.603790 0.058200 -0.056068
N24   N     N_R   0.681470 0.027730 0.207040 -0.037369
N25   N     N_R   0.681470 0.972270 0.207040 -0.036702
N26   N     N_R   0.318530 0.027730 0.792960 -0.045828
N27   N     N_R   0.892620 0.396210 0.941800 -0.051566
N28   N     N_R   0.392620 0.103790 0.941800 -0.051399
N29   N     N_R   0.607380 0.896210 0.058200 -0.055868
N30   N     N_R   0.607380 0.103790 0.058200 -0.056112
N31   N     N_R   0.392620 0.896210 0.941800 -0.051607
N32   N     N_R   0.952210 0.397600 0.057910 -0.039672
Ni1   Ni    Ni4+2 0.934150 0.565840 0.869060 0.209643
Ni2   Ni    Ni4+2 0.065850 0.434160 0.130940 0.213831
Ni3   Ni    Ni4+2 0.065850 0.565840 0.130940 0.213910
Ni4   Ni    Ni4+2 0.934150 0.434160 0.869060 0.209850
Ni5   Ni    Ni4+2 0.434150 0.065840 0.869060 0.209608
Ni6   Ni    Ni4+2 0.565850 0.934160 0.130940 0.213803
Ni7   Ni    Ni4+2 0.565850 0.065840 0.130940 0.213898
Ni8   Ni    Ni4+2 0.434150 0.934160 0.869060 0.209894
O1    O     O_3   0.671488 0.316004 0.857530 -0.785220
O2    O     O_3   0.382709 0.640754 0.134826 -0.767351
O3    O     O_3   0.382689 0.359271 0.134901 -0.768445
O4    O     O_3   0.671404 0.683872 0.857688 -0.785128
O5    O     O_3   0.171495 0.815990 0.857475 -0.785165
O6    O     O_3   0.882714 0.140745 0.134786 -0.767152
O7    O     O_3   0.882737 0.859275 0.134993 -0.768681
O8    O     O_3   0.171372 0.183824 0.857749 -0.785018

loop_
_geom_bond_atom_site_label_1
_geom_bond_atom_site_label_2
_ccdc_geom_bond_type
C62   C83   A    
C59   H14   S    
C19   H44   S    
C59   N14   A    
N10   Ni4   S    
N5    N31   A    
C3    H30   S    
C43   C83   S    
C14   C18   A    
C36   C42   A    
N13   Ni2   S    
C42   C82   S    
C92   H33   S    
C70   C88   A    
C97   C100  S    
C49   H4    S    
C46   C76   A    
C5    C94   S    
C67   N22   A    
C65   C86   A    
C6    O1    S    
C45   N32   A    
C6    C19   A    
C35   C75   A    
C64   H19   S    
C58   N13   A    
C17   C26   A    
C21   H47   S    
N8    Ni7   S    
C18   H43   S    
C59   C83   A    
N27   N32   A    
C13   H12   S    
N12   Ni2   S    
C33   H50   S    
C70   N25   A    
C96   H38   S    
H63   O6    S    
C7    C23   A    
C9    C22   A    
C46   H45   S    
C91   C93   S    
C9    O4    S    
C48   N3    A    
C66   N21   A    
N19   Ni3   S    
N28   Ni5   S    
C33   C36   A    
C26   C72   S    
C35   H34   S    
C2    C85   S    
C68   N30   A    
N14   Ni7   S    
C1    N1    A    
N3    Ni4   S    
H60   O3    S    
N7    N29   A    
C62   H17   S    
C4    C88   S    
C4    C96   S    
C55   H10   S    
C32   H49   S    
N11   Ni1   S    
C52   H7    S    
N2    Ni1   S    
C49   C72   A    
C12   C17   A    
N6    Ni5   S    
C94   H36   S    
N9    Ni3   S    
C71   H26   S    
N5    Ni6   S    
C8    O3    S    
C28   C78   S    
C56   H11   S    
C35   N27   A    
C60   N15   A    
C15   C23   A    
C65   N20   A    
C47   H2    S    
C63   C85   A    
C55   C82   A    
N15   Ni8   S    
C79   H67   S    
N29   Ni6   S    
C34   C41   A    
N23   Ni3   S    
N7    Ni8   S    
C66   C85   A    
N17   Ni6   S    
C69   N24   A    
C64   C86   A    
C57   H56   S    
C9    C26   A    
C31   C77   S    
C20   C29   A    
H64   O7    S    
C68   C78   A    
C37   C44   A    
H61   O4    S    
C95   H37   S    
C1    C72   A    
N6    N30   A    
C22   C31   A    
N18   Ni4   S    
N10   N11   A    
C40   H57   S    
C79   N31   A    
C53   H8    S    
C86   C90   S    
C58   C81   A    
C63   H18   S    
C100  H29   S    
C36   H52   S    
C71   N26   A    
C39   C43   A    
N27   Ni4   S    
C69   H24   S    
N21   Ni1   S    
C14   C30   A    
C48   H3    S    
N2    N23   A    
C24   H23   S    
N16   Ni5   S    
C54   H9    S    
C39   H55   S    
C17   H42   S    
C25   C75   S    
N14   N17   A    
C32   C34   A    
N4    Ni3   S    
N15   N16   A    
C57   C77   A    
C58   H13   S    
C4    C95   S    
C30   C76   S    
C11   C16   A    
H65   O8    S    
C90   C92   S    
C50   H5    S    
C94   C100  S    
C63   N18   A    
C41   C81   S    
C38   C43   A    
C61   H16   S    
C8    C21   A    
C5    C87   S    
C66   H21   S    
C14   O8    S    
N8    N28   A    
C89   C92   S    
C94   C96   S    
C19   C28   A    
H59   O2    S    
C52   N7    A    
C45   C75   A    
C3    C96   S    
C69   C88   A    
C62   N17   A    
C71   C87   A    
C70   H25   S    
N22   Ni8   S    
C98   H27   S    
C5    C97   S    
C2    C99   S    
C51   N6    A    
C4    C100  S    
C12   C31   A    
C56   N11   A    
N24   Ni7   S    
C20   H46   S    
N3    N12   A    
C53   C76   A    
C38   H54   S    
C23   C74   S    
C52   C77   A    
C67   H22   S    
C1    H1    S    
C47   N2    A    
C15   H40   S    
C16   C25   A    
N26   Ni5   S    
C61   N16   A    
N25   Ni6   S    
C57   N29   A    
N30   Ni7   S    
C48   C73   A    
C2    C93   S    
C18   C27   A    
C47   C74   A    
C13   C73   A    
C3    C5    S    
C61   C84   A    
C50   C80   A    
C49   N4    A    
C34   H51   S    
C95   C97   S    
C10   O5    S    
C56   C82   A    
C99   H28   S    
C91   H32   S    
C13   N12   A    
C21   C30   A    
C93   H35   S    
C67   C87   A    
C89   H31   S    
C54   N9    A    
C44   C84   S    
C89   C98   S    
C10   C15   A    
C33   C41   A    
N24   N25   A    
C37   H53   S    
C16   H41   S    
C51   C78   A    
N19   N20   A    
C37   C39   A    
C38   C40   A    
C60   C84   A    
C10   C29   A    
C24   C74   A    
C90   C91   S    
C29   C80   S    
C11   C28   A    
N18   N21   A    
C51   H6    S    
N9    N13   A    
N20   Ni2   S    
N31   Ni8   S    
C55   N10   A    
C65   H20   S    
C97   H39   S    
C24   N23   A    
C54   C81   A    
C45   H68   S    
C64   N19   A    
N22   N26   A    
C11   O6    S    
N1    Ni1   S    
C79   C80   A    
C6    C25   A    
C2    C89   S    
C40   C44   A    
C7    O2    S    
C53   N8    A    
H58   O1    S    
N32   Ni2   S    
C7    C20   A    
C46   N28   A    
C8    C27   A    
C32   C42   A    
C60   H15   S    
C3    C95   S    
N1    N4    A    
C12   O7    S    
C91   C99   S    
C27   C73   S    
C93   C98   S    
C90   C98   S    
C22   H48   S    
C92   C99   S    
C50   N5    A    
H62   O5    S    
C68   H66   S    
