data_mof_unit_26654.cif
_audit_creation_date              2012-12-10T18:11:04-0500
_audit_creation_method            fapswitch 2.2
_symmetry_space_group_name_H-M    P1
_symmetry_Int_Tables_number       1
_space_group_crystal_system       triclinic
_cell_length_a                    10.801181
_cell_length_b                    9.466738
_cell_length_c                    10.623641
_cell_angle_alpha                 90.269522
_cell_angle_beta                  85.694238
_cell_angle_gamma                 90.149929
_cell_volume                      1083.20728714

loop_
_atom_site_label
_atom_site_type_symbol
_atom_type_description
_atom_site_fract_x
_atom_site_fract_y
_atom_site_fract_z
_atom_type_partial_charge
C1    C     C_R   0.259464 0.499762 0.520351 0.747085
C2    C     C_3   0.510890 0.498737 0.122606 -0.010294
C3    C     C_3   0.052081 0.615949 0.616640 -0.135302
C4    C     C_3   0.058644 0.349123 0.561874 -0.123797
C5    C     C_3   0.909158 0.600790 0.609885 -0.378253
C6    C     C_3   0.924404 0.346804 0.521011 -0.403201
C7    C     C_3   0.086898 0.535745 0.389135 -0.405822
C8    C     C_3   0.118662 0.499095 0.528085 0.073697
C9    C     C_3   0.876962 0.500158 0.501104 0.144528
C10   C     C_3   0.945678 0.554493 0.378764 -0.436413
C11   C     C_3   0.616789 0.083607 0.434638 0.139111
C12   C     C_3   0.614091 0.914272 0.432136 0.184042
C13   C     C_3   0.498815 0.083635 0.632476 -0.259611
C14   C     C_3   0.500858 0.917355 0.632332 -0.273436
C15   C     C_3   0.394344 0.081685 0.438862 -0.181652
C16   C     C_3   0.390127 0.916159 0.445956 -0.199141
C17   C     C_R   0.505514 0.499627 0.259450 0.804506
C18   C     C_R   0.740048 0.500004 0.494608 0.754446
C19   C     C_R   0.503709 0.500479 0.740315 0.788290
C20   C     C_3   0.436086 0.603628 0.049486 -0.124384
C21   C     C_3   0.469529 0.373095 0.043728 -0.190171
C22   C     C_3   0.397428 0.478940 0.969517 0.178317
C23   C     C_3   0.509717 0.501729 0.876921 -0.003773
C24   C     C_3   0.551826 0.626732 0.956535 -0.181631
C25   C     C_3   0.585438 0.397241 0.950745 -0.190825
C26   C     C_3   0.627302 0.522347 0.032730 -0.176009
Cu1   Cu    Cu3+1 0.499860 0.642410 0.500060 0.907772
Cu2   Cu    Cu3+1 0.499860 0.357590 0.500060 0.892733
H1    H     H_    0.923771 0.667878 0.364367 0.166477
H2    H     H_    0.916158 0.495015 0.295421 0.145781
H3    H     H_    0.697773 0.113683 0.488545 0.076584
H4    H     H_    0.696272 0.879491 0.481358 0.088956
H5    H     H_    0.580496 0.123232 0.680165 0.144127
H6    H     H_    0.584100 0.880298 0.678312 0.139824
H7    H     H_    0.304967 0.122849 0.480086 0.124590
H8    H     H_    0.303893 0.885017 0.502474 0.128839
H9    H     H_    0.399655 0.114659 0.338270 0.161696
H10   H     H_    0.381335 0.870702 0.350473 0.147163
H11   H     H_    0.417794 0.120602 0.692040 0.150672
H12   H     H_    0.420508 0.879244 0.692371 0.151404
H13   H     H_    0.375582 0.686915 0.094368 0.119383
H14   H     H_    0.434134 0.270052 0.080967 0.131998
H15   H     H_    0.585502 0.730067 0.918462 0.126469
H16   H     H_    0.647028 0.313639 0.907570 0.125249
H17   H     H_    0.722474 0.539964 0.062623 0.115341
H18   H     H_    0.074690 0.717948 0.567758 0.131645
H19   H     H_    0.108665 0.269539 0.499601 0.121994
H20   H     H_    0.858054 0.562183 0.695935 0.134521
H21   H     H_    0.860923 0.283213 0.584844 0.160664
H22   H     H_    0.870864 0.708212 0.595536 0.150148
H23   H     H_    0.923109 0.288065 0.429860 0.141977
H24   H     H_    0.134535 0.634582 0.355557 0.164291
H25   H     H_    0.121324 0.449990 0.323503 0.166307
N1    N     N_3   0.500250 0.143650 0.502780 -0.117721
N2    N     N_3   0.500250 0.856350 0.502780 -0.119705
O1    O     O_R   0.317570 0.620260 0.500070 -0.601047
O2    O     O_R   0.317570 0.379740 0.500070 -0.601034
O3    O     O_R   0.499850 0.620240 0.316900 -0.552824
O4    O     O_R   0.499850 0.379760 0.316900 -0.577116
O5    O     O_R   0.682190 0.620260 0.500030 -0.582810
O6    O     O_R   0.682190 0.379740 0.500030 -0.615164
O7    O     O_R   0.499910 0.620280 0.683200 -0.593332
O8    O     O_R   0.499910 0.379720 0.683200 -0.600236
N3    N     N_3   0.271010 0.459267 0.935402 -0.572615
H26   H     H_    0.226757 0.388993 0.999636 0.221022
H27   H     H_    0.275490 0.413045 0.846263 0.226920
N4    N     N_3   0.640951 0.143400 0.307399 -0.581055
H28   H     H_    0.678113 0.244144 0.315366 0.251383
H29   H     H_    0.716471 0.091542 0.261012 0.157307
N5    N     N_3   0.629130 0.852485 0.304836 -0.538639
H30   H     H_    0.573458 0.903517 0.242870 0.221042
H31   H     H_    0.722079 0.858422 0.269733 0.169748
C27   C     C_R   0.092593 0.642414 0.751582 0.100116
C28   C     C_R   0.198750 0.726018 0.764025 -0.156911
C29   C     C_R   0.228303 0.780167 0.880812 -0.098394
C30   C     C_R   0.151039 0.753604 0.988888 -0.089896
C31   C     C_R   0.046169 0.669715 0.980782 -0.127916
C32   C     C_R   0.016612 0.615244 0.864207 -0.083979
H32   H     H_    0.254860 0.756347 0.681532 0.139448
H33   H     H_    0.310342 0.844566 0.887612 0.094419
H34   H     H_    0.172633 0.797418 0.078958 0.089564
H35   H     H_    0.986182 0.648439 0.064893 0.106547
H36   H     H_    0.931694 0.556509 0.866933 0.103767
C33   C     C_R   0.064783 0.294769 0.698365 0.146169
C34   C     C_R   0.962800 0.297443 0.790751 -0.126330
C35   C     C_R   0.968355 0.229910 0.906982 -0.157546
C36   C     C_R   0.073974 0.154681 0.932896 -0.102714
C37   C     C_R   0.174302 0.148162 0.842868 -0.151621
C38   C     C_R   0.168949 0.217295 0.727384 -0.218993
H37   H     H_    0.876925 0.349641 0.775086 0.100106
H38   H     H_    0.889730 0.234550 0.976365 0.113859
H39   H     H_    0.078210 0.101808 0.022582 0.108382
H40   H     H_    0.257086 0.091360 0.863189 0.112495
H41   H     H_    0.246548 0.211729 0.660138 0.148388

loop_
_geom_bond_atom_site_label_1
_geom_bond_atom_site_label_2
_ccdc_geom_bond_type
C7    C10   S    
C36   C37   A    
C1    C8    S    
C27   C28   A    
C4    C8    S    
C6    C9    S    
C20   H13   S    
C7    C8    S    
C31   C32   A    
C13   H5    S    
C1    O1    A    
C24   C26   S    
C7    H24   S    
C35   H38   S    
C34   C35   A    
Cu1   N2    S    
C19   O7    A    
C15   C16   S    
C38   H41   S    
C15   H9    S    
C12   N5    S    
C26   H17   S    
C32   H36   S    
C20   C24   S    
C19   O8    A    
C23   C24   S    
N5    H30   S    
C6    H23   S    
C9    C10   S    
C17   O3    A    
Cu2   O6    S    
C14   N2    S    
C11   H3    S    
C21   C22   S    
C12   H4    S    
C2    C17   S    
C25   H16   S    
C15   H7    S    
C11   N4    S    
C5    H20   S    
C28   C29   A    
C2    C20   S    
N4    H28   S    
C15   N1    S    
C33   C34   A    
C4    C6    S    
C3    C8    S    
Cu2   N1    S    
Cu1   O1    S    
C25   C26   S    
Cu2   O2    S    
C22   N3    S    
N4    H29   S    
N3    H27   S    
C19   C23   S    
C29   C30   A    
C5    C9    S    
Cu1   O7    S    
C1    O2    A    
C10   H2    S    
C4    C33   S    
C27   C32   A    
C2    C21   S    
C2    C26   S    
C30   C31   A    
C11   N1    S    
C17   O4    A    
C18   O5    A    
C20   C22   S    
C28   H32   S    
C5    H22   S    
C33   C38   A    
C7    H25   S    
C36   H39   S    
C13   N1    S    
C29   H33   S    
Cu2   O4    S    
C21   C25   S    
C37   H40   S    
C35   C36   A    
C3    C5    S    
Cu1   O3    S    
C30   H34   S    
C14   H6    S    
C34   H37   S    
C18   O6    A    
C3    H18   S    
Cu1   O5    S    
N3    H26   S    
C16   N2    S    
C16   H8    S    
C10   H1    S    
C31   H35   S    
C23   C25   S    
C6    H21   S    
C3    C27   S    
C13   H11   S    
C12   N2    S    
C14   H12   S    
C21   H14   S    
Cu2   O8    S    
C9    C18   S    
C37   C38   A    
Cu1   Cu2   S    
C24   H15   S    
C22   C23   S    
N5    H31   S    
C13   C14   S    
C11   C12   S    
C16   H10   S    
C4    H19   S    
