data_mof_unit_57325.cif
_audit_creation_date              2012-12-11T15:50:46-0500
_audit_creation_method            fapswitch 2.2
_symmetry_space_group_name_H-M    P1
_symmetry_Int_Tables_number       1
_space_group_crystal_system       triclinic
_cell_length_a                    19.013401
_cell_length_b                    11.305516
_cell_length_c                    18.771308
_cell_angle_alpha                 90.264302
_cell_angle_beta                  90.369852
_cell_angle_gamma                 89.966571
_cell_volume                      4034.88347178

loop_
_atom_site_label
_atom_site_type_symbol
_atom_type_description
_atom_site_fract_x
_atom_site_fract_y
_atom_site_fract_z
_atom_type_partial_charge
C1    C     C_R   0.273145 0.039115 0.854760 0.554827
C2    C     C_R   0.725727 0.035157 0.143875 0.563055
C3    C     C_R   0.773145 0.539114 0.854760 0.557429
C4    C     C_R   0.225727 0.535154 0.143874 0.562931
C5    C     C_3   0.495880 0.720593 0.980868 -0.112777
C6    C     C_3   0.444879 0.745060 0.043173 -0.131940
C7    C     C_3   0.995881 0.220596 0.980867 -0.112946
C8    C     C_3   0.944880 0.245062 0.043172 -0.131860
C9    C     C_R   0.238328 0.558270 0.068080 0.010044
C10   C     C_R   0.759798 0.566660 0.929733 0.017364
C11   C     C_R   0.738326 0.058272 0.068082 0.009982
C12   C     C_R   0.259795 0.066666 0.929733 0.017498
C13   C     C_R   0.282307 0.485586 0.026138 -0.028067
C14   C     C_R   0.709075 0.504090 0.967708 -0.025670
C15   C     C_R   0.782306 0.985590 0.026140 -0.027992
C16   C     C_R   0.209073 0.004095 0.967706 -0.025381
C17   C     C_R   0.289470 0.509137 0.953694 0.014170
C18   C     C_R   0.704649 0.516295 0.041559 0.015440
C19   C     C_R   0.789470 0.009142 0.953697 0.014455
C20   C     C_R   0.204647 0.016296 0.041558 0.015407
C21   C     C_R   0.191483 0.641780 0.958786 -0.148031
C22   C     C_R   0.811789 0.628514 0.042395 -0.148759
C23   C     C_R   0.691483 0.141786 0.958789 -0.148534
C24   C     C_R   0.311785 0.128519 0.042395 -0.148757
C25   C     C_R   0.190389 0.632574 0.031997 0.225018
C26   C     C_R   0.811955 0.628393 0.968521 0.225836
C27   C     C_R   0.690385 0.132574 0.031999 0.225029
C28   C     C_R   0.311949 0.128404 0.968521 0.225891
C29   C     C_3   0.359700 0.466695 0.032876 -0.254815
C30   C     C_3   0.631608 0.515653 0.958720 -0.268317
C31   C     C_3   0.859697 0.966695 0.032882 -0.254802
C32   C     C_3   0.131607 0.015664 0.958719 -0.268370
C33   C     C_3   0.367776 0.509603 0.955734 -0.114591
C34   C     C_3   0.626673 0.531280 0.039374 -0.112190
C35   C     C_3   0.867777 0.009601 0.955740 -0.115091
C36   C     C_3   0.126672 0.031285 0.039373 -0.112129
C37   C     C_R   0.244676 0.587617 0.919379 -0.034413
C38   C     C_R   0.754466 0.582956 0.079661 -0.037519
C39   C     C_R   0.744678 0.087626 0.919382 -0.034948
C40   C     C_R   0.254464 0.082957 0.079661 -0.037585
C41   C     C_R   0.496702 0.828581 0.421900 0.019897
C42   C     C_R   0.485988 0.828206 0.571243 0.021212
C43   C     C_R   0.997449 0.327033 0.422217 0.020590
C44   C     C_R   0.987394 0.329683 0.571734 0.015444
C45   C     C_R   0.442171 0.817458 0.862579 0.548916
C46   C     C_R   0.528377 0.821706 0.146459 0.534434
C47   C     C_R   0.942169 0.317458 0.862578 0.549983
C48   C     C_R   0.028378 0.321707 0.146458 0.534865
C49   C     C_R   0.484841 0.723437 0.459203 0.025210
C50   C     C_R   0.479854 0.723994 0.531974 0.036278
C51   C     C_R   0.991970 0.222024 0.461072 0.024252
C52   C     C_R   0.988443 0.224411 0.533667 0.020773
C53   C     C_R   0.488523 0.935711 0.534084 -0.169860
C54   C     C_R   0.492151 0.935881 0.459437 -0.177624
C55   C     C_R   0.982154 0.435635 0.532955 -0.167177
C56   C     C_R   0.986249 0.434258 0.458220 -0.177176
C57   C     C_3   0.525240 0.609391 0.460398 -0.270987
C58   C     C_3   0.519515 0.611144 0.540530 -0.282473
C59   C     C_3   0.037589 0.113805 0.463243 -0.267090
C60   C     C_3   0.032613 0.117255 0.543591 -0.285026
C61   C     C_R   0.247812 0.602258 0.419358 0.016012
C62   C     C_R   0.748950 0.589784 0.578397 0.017397
C63   C     C_R   0.750475 0.109791 0.417492 0.013392
C64   C     C_R   0.251085 0.084373 0.576553 0.014012
C65   C     C_R   0.192902 0.651524 0.458751 0.009090
C66   C     C_R   0.786420 0.680565 0.545768 0.006658
C67   C     C_R   0.696991 0.164519 0.456157 0.013364
C68   C     C_R   0.289691 0.173418 0.543632 0.001275
C69   C     C_R   0.197949 0.669069 0.530482 0.049411
C70   C     C_R   0.788049 0.686358 0.472875 0.044200
C71   C     C_R   0.705392 0.200246 0.525642 0.038564
C72   C     C_R   0.291007 0.179030 0.470887 0.044997
C73   C     C_R   0.317192 0.593107 0.526381 -0.158428
C74   C     C_R   0.703866 0.527515 0.462795 -0.177938
C75   C     C_R   0.825882 0.129085 0.520618 -0.162909
C76   C     C_R   0.206737 0.020186 0.460930 -0.179504
C77   C     C_R   0.313097 0.586338 0.452175 -0.175067
C78   C     C_R   0.703297 0.519709 0.536696 -0.174103
C79   C     C_R   0.817674 0.103730 0.447839 -0.175711
C80   C     C_R   0.206304 0.012230 0.534879 -0.167471
C81   C     C_3   0.118723 0.609849 0.463646 -0.247102
C82   C     C_3   0.861970 0.717093 0.552583 -0.256559
C83   C     C_3   0.624974 0.118138 0.467574 -0.254058
C84   C     C_3   0.366275 0.204509 0.549475 -0.253887
C85   C     C_3   0.121627 0.638070 0.542255 -0.115111
C86   C     C_3   0.865529 0.713650 0.472079 -0.120776
C87   C     C_3   0.630813 0.161426 0.543378 -0.103700
C88   C     C_3   0.368786 0.202183 0.468955 -0.118909
C89   C     C_R   0.259934 0.637319 0.850616 0.552127
C90   C     C_R   0.739985 0.636180 0.149009 0.549738
C91   C     C_R   0.759935 0.137324 0.850618 0.560022
C92   C     C_R   0.239985 0.136180 0.149010 0.549271
C93   C     C_R   0.257217 0.624683 0.566014 0.013619
C94   C     C_R   0.749187 0.607562 0.430228 0.017267
C95   C     C_R   0.768621 0.170928 0.560696 0.009568
C96   C     C_R   0.251154 0.101792 0.428445 0.014513
C97   C     C_R   0.271712 0.043728 0.645991 0.558659
C98   C     C_R   0.729250 0.048314 0.352503 0.544876
C99   C     C_R   0.771248 0.545015 0.646558 0.554343
C100  C     C_R   0.229052 0.547898 0.352313 0.546841
C101  C     C_R   0.467421 0.822729 0.646050 0.555103
C102  C     C_R   0.530200 0.822856 0.352497 0.543043
C103  C     C_R   0.967714 0.323008 0.646218 0.545713
C104  C     C_R   0.030227 0.322721 0.352487 0.540447
C105  C     C_R   0.261993 0.645322 0.641159 0.555324
C106  C     C_R   0.740152 0.639404 0.356676 0.548138
C107  C     C_R   0.774203 0.188859 0.636956 0.572720
C108  C     C_R   0.240620 0.137727 0.355877 0.546063
C109  C     C_3   0.464759 0.933087 0.035240 -0.156549
C110  C     C_3   0.515716 0.910515 0.971950 -0.139985
C111  C     C_3   0.964757 0.433090 0.035237 -0.156333
C112  C     C_3   0.015715 0.410517 0.971946 -0.140190
C113  C     C_3   0.411197 0.846850 0.001094 -0.151123
C114  C     C_3   0.549295 0.808027 0.012918 -0.113743
C115  C     C_3   0.911196 0.346851 0.001092 -0.151044
C116  C     C_3   0.049295 0.308032 0.012916 -0.113903
C117  C     C_3   0.462645 0.823325 0.939373 0.044844
C118  C     C_3   0.498408 0.830310 0.074612 0.058923
C119  C     C_3   0.962644 0.323325 0.939371 0.044466
C120  C     C_3   0.998408 0.330314 0.074610 0.058945
Cr1   Cr    Cr6+3 0.229640 0.835880 0.747370 0.981850
Cr2   Cr    Cr6+3 0.770360 0.835880 0.252630 0.989778
Cr3   Cr    Cr6+3 0.729640 0.335880 0.747370 0.974108
Cr4   Cr    Cr6+3 0.270360 0.335880 0.252630 0.989106
Cr5   Cr    Cr6+3 0.387390 0.989720 0.750850 0.984451
Cr6   Cr    Cr6+3 0.612610 0.989720 0.249150 0.989935
Cr7   Cr    Cr6+3 0.887390 0.489720 0.750850 0.978002
Cr8   Cr    Cr6+3 0.112610 0.489720 0.249150 0.988942
Cr9   Cr    Cr6+3 0.385770 0.677220 0.749340 0.968299
Cr10  Cr    Cr6+3 0.614230 0.677220 0.250660 0.977032
Cr11  Cr    Cr6+3 0.885770 0.177220 0.749340 0.965446
Cr12  Cr    Cr6+3 0.114230 0.177220 0.250660 0.976179
H1    H     H_    0.353776 0.862209 0.995217 0.108926
H2    H     H_    0.607394 0.800313 0.016732 0.095927
H3    H     H_    0.853775 0.362208 0.995215 0.108836
H4    H     H_    0.107394 0.300318 0.016729 0.095782
H5    H     H_    0.490864 0.018404 0.562781 0.119772
H6    H     H_    0.498378 0.018730 0.431861 0.117888
H7    H     H_    0.977868 0.518850 0.560490 0.124918
H8    H     H_    0.987784 0.516759 0.429500 0.115357
H9    H     H_    0.091097 0.133046 0.443830 0.179769
H10   H     H_    0.002524 0.041765 0.565769 0.135237
H11   H     H_    0.579966 0.620528 0.442084 0.178283
H12   H     H_    0.486768 0.538103 0.561594 0.129319
H13   H     H_    0.495832 0.535695 0.434850 0.127744
H14   H     H_    0.570738 0.623972 0.568348 0.146177
H15   H     H_    0.011612 0.035337 0.438925 0.129684
H16   H     H_    0.083283 0.137335 0.570866 0.145833
H17   H     H_    0.366034 0.570903 0.552670 0.139598
H18   H     H_    0.670001 0.470236 0.431357 0.125108
H19   H     H_    0.874833 0.107785 0.546709 0.143352
H20   H     H_    0.172537 0.963511 0.429466 0.125902
H21   H     H_    0.358502 0.559977 0.421633 0.118113
H22   H     H_    0.672603 0.450965 0.560622 0.141889
H23   H     H_    0.861687 0.070649 0.417540 0.120984
H24   H     H_    0.175447 0.943289 0.558945 0.144268
H25   H     H_    0.115426 0.513274 0.453022 0.152797
H26   H     H_    0.897462 0.651258 0.576544 0.153277
H27   H     H_    0.623773 0.020021 0.463586 0.144616
H28   H     H_    0.399805 0.134809 0.572543 0.156826
H29   H     H_    0.082661 0.665328 0.431149 0.134417
H30   H     H_    0.866424 0.806408 0.577305 0.132170
H31   H     H_    0.586284 0.164971 0.433386 0.136013
H32   H     H_    0.373596 0.292901 0.574710 0.126072
H33   H     H_    0.114117 0.558711 0.576230 0.140033
H34   H     H_    0.896235 0.637259 0.451963 0.141565
H35   H     H_    0.628541 0.087319 0.582160 0.161096
H36   H     H_    0.397603 0.124441 0.447786 0.144710
H37   H     H_    0.446457 0.013341 0.062797 0.095541
H38   H     H_    0.548123 0.975313 0.942813 0.099850
H39   H     H_    0.946451 0.513346 0.062788 0.095566
H40   H     H_    0.048116 0.475317 0.942805 0.099362
H41   H     H_    0.507581 0.630211 0.963445 0.114145
H42   H     H_    0.413102 0.693037 0.080042 0.104831
H43   H     H_    0.007581 0.130214 0.963444 0.114207
H44   H     H_    0.913102 0.193038 0.080040 0.104875
H45   H     H_    0.154448 0.702816 0.934689 0.149876
H46   H     H_    0.852754 0.677708 0.069557 0.133806
H47   H     H_    0.654449 0.202825 0.934693 0.149816
H48   H     H_    0.352751 0.177712 0.069558 0.133811
H49   H     H_    0.871538 0.871644 0.040709 0.157774
H50   H     H_    0.108260 0.933086 0.936603 0.134195
H51   H     H_    0.371542 0.371644 0.040702 0.157773
H52   H     H_    0.608263 0.433072 0.936607 0.134297
H53   H     H_    0.382840 0.520617 0.075377 0.106172
H54   H     H_    0.618187 0.596444 0.928022 0.121407
H55   H     H_    0.882836 0.020618 0.075384 0.106193
H56   H     H_    0.118188 0.096458 0.928023 0.121024
H57   H     H_    0.386889 0.600726 0.950413 0.167098
H58   H     H_    0.612118 0.620772 0.056855 0.176434
H59   H     H_    0.886892 0.100722 0.950418 0.166717
H60   H     H_    0.112119 0.120778 0.056856 0.176481
O1    O     O_R   0.214300 0.709080 0.827500 -0.534789
O2    O     O_R   0.785700 0.709080 0.172500 -0.532903
O3    O     O_R   0.714300 0.209080 0.827500 -0.531104
O4    O     O_R   0.285700 0.209080 0.172500 -0.533116
O5    O     O_R   0.445900 0.919370 0.676500 -0.506779
O6    O     O_R   0.554100 0.919370 0.323500 -0.511936
O7    O     O_R   0.945900 0.419370 0.676500 -0.508782
O8    O     O_R   0.054100 0.419370 0.323500 -0.513507
O9    O     O_R   0.456660 0.717710 0.669820 -0.521254
O10   O     O_R   0.543340 0.717710 0.330180 -0.527971
O11   O     O_R   0.956660 0.217710 0.669820 -0.527347
O12   O     O_R   0.043340 0.217710 0.330180 -0.527305
O13   O     O_R   0.320590 0.625770 0.672930 -0.515668
O14   O     O_R   0.679410 0.625770 0.327070 -0.512311
O15   O     O_R   0.820590 0.125770 0.672930 -0.510762
O16   O     O_R   0.179410 0.125770 0.327070 -0.513654
O17   O     O_3   0.334270 0.834280 0.749190 -0.270917
O18   O     O_3   0.665730 0.834280 0.250810 -0.253755
O19   O     O_3   0.834270 0.334280 0.749190 -0.289289
O20   O     O_3   0.165730 0.334280 0.250810 -0.253661
O21   O     O_R   0.236190 0.958390 0.823150 -0.513363
O22   O     O_R   0.763810 0.958390 0.176850 -0.514319
O23   O     O_R   0.736190 0.458390 0.823150 -0.512376
O24   O     O_R   0.263810 0.458390 0.176850 -0.514355
O25   O     O_R   0.332090 0.075280 0.831290 -0.487495
O26   O     O_R   0.667910 0.075280 0.168710 -0.473017
O27   O     O_R   0.832090 0.575280 0.831290 -0.485622
O28   O     O_R   0.167910 0.575280 0.168710 -0.473038
O29   O     O_R   0.446280 0.918040 0.826620 -0.525386
O30   O     O_R   0.553720 0.918040 0.173380 -0.531649
O31   O     O_R   0.946280 0.418040 0.826620 -0.524177
O32   O     O_R   0.053720 0.418040 0.173380 -0.531235
O33   O     O_R   0.457080 0.716270 0.831760 -0.540780
O34   O     O_R   0.542920 0.716270 0.168240 -0.546763
O35   O     O_R   0.957080 0.216270 0.831760 -0.540650
O36   O     O_R   0.042920 0.216270 0.168240 -0.546586
O37   O     O_R   0.320980 0.624440 0.823040 -0.526657
O38   O     O_R   0.679020 0.624440 0.176960 -0.506345
O39   O     O_R   0.820980 0.124440 0.823040 -0.523053
O40   O     O_R   0.179020 0.124440 0.176960 -0.506428
O41   O     O_R   0.213880 0.710510 0.665560 -0.527601
O42   O     O_R   0.786120 0.710510 0.334440 -0.528712
O43   O     O_R   0.713880 0.210510 0.665560 -0.530851
O44   O     O_R   0.286120 0.210510 0.334440 -0.528911
O45   O     O_R   0.235800 0.959720 0.673040 -0.520757
O46   O     O_R   0.764200 0.959720 0.326960 -0.519902
O47   O     O_R   0.735800 0.459720 0.673040 -0.537189
O48   O     O_R   0.264200 0.459720 0.326960 -0.519454
O49   O     O_R   0.331670 0.076720 0.669350 -0.529743
O50   O     O_R   0.668330 0.076720 0.330650 -0.522698
O51   O     O_R   0.831670 0.576720 0.669350 -0.528699
O52   O     O_R   0.168330 0.576720 0.330650 -0.525646
C121  C     C_3   0.071130 0.741958 0.559069 -0.276141
C122  C     C_3   0.064601 0.770589 0.638268 -0.406263
H61   H     H_    0.014577 0.818887 0.647630 0.103304
H62   H     H_    0.064122 0.688575 0.670622 0.158179
H63   H     H_    0.107892 0.829583 0.655849 0.190305
H64   H     H_    0.085820 0.822667 0.529224 0.140494
H65   H     H_    0.017881 0.716895 0.539652 0.134547
C123  C     C_3   0.885426 0.832714 0.438757 -0.261949
C124  C     C_3   0.937278 0.818003 0.377556 -0.433395
H66   H     H_    0.988847 0.787857 0.398525 0.119050
H67   H     H_    0.917837 0.752868 0.337695 0.178186
H68   H     H_    0.944775 0.904275 0.350616 0.128184
H69   H     H_    0.837268 0.875283 0.418635 0.208566
H70   H     H_    0.910064 0.892836 0.478733 0.125371
C125  C     C_3   0.575406 0.259406 0.556772 -0.285996
C126  C     C_3   0.568896 0.295756 0.634819 -0.409880
H71   H     H_    0.520865 0.350491 0.641690 0.104427
H72   H     H_    0.564293 0.216580 0.669298 0.156706
H73   H     H_    0.614412 0.349866 0.651988 0.194578
H74   H     H_    0.585013 0.337845 0.522912 0.141495
H75   H     H_    0.523148 0.224468 0.540245 0.137324
C127  C     C_3   0.389836 0.320661 0.435423 -0.263494
C128  C     C_3   0.440678 0.304054 0.373530 -0.432905
H76   H     H_    0.492214 0.272848 0.393802 0.121438
H77   H     H_    0.420056 0.239010 0.334199 0.176871
H78   H     H_    0.448546 0.389795 0.346108 0.126147
H79   H     H_    0.342144 0.365017 0.415382 0.209991
H80   H     H_    0.415463 0.379815 0.475226 0.121365
O53   O     O_3   0.141650 0.698444 0.068596 -0.572625
C129  C     C_3   0.076461 0.640110 0.063450 0.003766
H81   H     H_    0.082585 0.542970 0.068711 0.174349
H82   H     H_    0.054913 0.659300 0.010369 0.094645
C130  C     C_3   0.026600 0.682055 0.122282 -0.348602
H83   H     H_    0.982212 0.731581 0.098383 0.070122
H84   H     H_    0.002987 0.607491 0.151328 0.138008
H85   H     H_    0.054497 0.736204 0.162943 0.174540
O54   O     O_3   0.861224 0.695531 0.933399 -0.582767
C131  C     C_3   0.926340 0.637009 0.934960 -0.011158
H86   H     H_    0.918055 0.542111 0.927384 0.188454
H87   H     H_    0.950342 0.657323 0.986427 0.102561
C132  C     C_3   0.975512 0.674518 0.874673 -0.356207
H88   H     H_    0.012305 0.744502 0.892912 0.080017
H89   H     H_    0.009861 0.600614 0.857962 0.128467
H90   H     H_    0.945016 0.702610 0.827121 0.185587
O55   O     O_3   0.641647 0.198446 0.068599 -0.572582
C133  C     C_3   0.576457 0.140111 0.063463 0.003861
H91   H     H_    0.582582 0.042971 0.068721 0.174357
H92   H     H_    0.554902 0.159300 0.010385 0.094675
C134  C     C_3   0.526603 0.182055 0.122303 -0.348717
H93   H     H_    0.482213 0.231584 0.098411 0.070136
H94   H     H_    0.502988 0.107491 0.151349 0.137748
H95   H     H_    0.554503 0.236199 0.162964 0.174607
O56   O     O_3   0.361220 0.195537 0.933401 -0.582887
C135  C     C_3   0.426336 0.137018 0.934980 -0.011390
H96   H     H_    0.418053 0.042119 0.927399 0.188412
H97   H     H_    0.450326 0.157336 0.986453 0.102575
C136  C     C_3   0.475519 0.174526 0.874706 -0.356077
H98   H     H_    0.512311 0.244507 0.892951 0.080210
H99   H     H_    0.509865 0.100618 0.857998 0.129407
H100  H     H_    0.445028 0.202624 0.827152 0.184977
C137  C     C_3   0.403085 0.421089 0.905047 -0.248132
C138  C     C_3   0.452712 0.468713 0.848269 -0.424408
H101  H     H_    0.423907 0.514704 0.805767 0.222197
H102  H     H_    0.495403 0.522271 0.871456 0.160193
H103  H     H_    0.479078 0.395250 0.820098 0.086790
H104  H     H_    0.436581 0.366214 0.939637 0.187245
H105  H     H_    0.362068 0.371146 0.875382 0.230785
C139  C     C_3   0.586837 0.433411 0.078478 -0.251034
C140  C     C_3   0.527725 0.480060 0.125047 -0.439689
H106  H     H_    0.549313 0.508717 0.177306 0.197595
H107  H     H_    0.499923 0.551637 0.097324 0.174726
H108  H     H_    0.487967 0.411983 0.136522 0.103048
H109  H     H_    0.563054 0.371850 0.039164 0.179383
H110  H     H_    0.623872 0.387224 0.114734 0.223164
C141  C     C_3   0.903087 0.921083 0.905055 -0.247781
C142  C     C_3   0.952713 0.968708 0.848278 -0.423619
H111  H     H_    0.923908 0.014713 0.805783 0.223528
H112  H     H_    0.995408 0.022254 0.871465 0.159720
H113  H     H_    0.979069 0.895244 0.820097 0.086736
H114  H     H_    0.936582 0.866204 0.939644 0.187052
H115  H     H_    0.862069 0.871144 0.875389 0.231845
C143  C     C_3   0.086835 0.933414 0.078472 -0.251047
C144  C     C_3   0.027718 0.980062 0.125034 -0.439686
H116  H     H_    0.049299 0.008713 0.177297 0.197612
H117  H     H_    0.999922 0.051644 0.097311 0.174734
H118  H     H_    0.987956 0.911986 0.136499 0.103046
H119  H     H_    0.063057 0.871851 0.039156 0.179397
H120  H     H_    0.123867 0.887228 0.114732 0.223082

loop_
_geom_bond_atom_site_label_1
_geom_bond_atom_site_label_2
_ccdc_geom_bond_type
C121  H64   S    
C57   H13   S    
C133  C134  S    
C73   C93   A    
Cr8   O32   S    
C75   C95   A    
C48   C120  S    
C136  H98   S    
C131  H86   S    
C53   H5    S    
C104  O12   A    
C16   C20   A    
C63   C98   S    
C69   C93   A    
C5    C6    S    
C20   C40   A    
C71   C95   A    
C92   O40   A    
C3    O23   A    
C137  H104  S    
C22   C38   A    
C29   C33   S    
C55   H7    S    
C33   H57   S    
C129  H81   S    
C9    C13   A    
C26   O54   S    
C11   C15   A    
C87   H35   S    
C12   C16   A    
C88   H36   S    
C143  C144  S    
C107  O15   A    
Cr10  O10   S    
C21   H45   S    
C96   C108  S    
C59   C60   S    
C113  H1    S    
C121  C122  S    
C31   H49   S    
Cr2   O2    S    
C41   C49   A    
C109  C118  S    
C63   C67   A    
C9    C25   A    
C51   C52   A    
C142  H113  S    
C7    C119  S    
C87   C125  S    
C57   H11   S    
C6    H42   S    
C30   H52   S    
Cr1   O21   S    
C23   H47   S    
C66   C82   S    
C91   O3    A    
C11   C27   A    
C68   C72   A    
C89   O1    A    
C138  H101  S    
C45   O33   A    
C98   O46   A    
C64   C97   S    
Cr2   O42   S    
C2    O22   A    
Cr8   O52   S    
C135  H96   S    
Cr9   O17   S    
C97   O45   A    
C136  H100  S    
C47   O31   A    
C84   C88   S    
C92   O4    A    
C106  O14   A    
C82   H30   S    
C38   C90   S    
C46   O30   A    
C85   H33   S    
C18   C38   A    
C132  H89   S    
C19   C35   S    
C76   C96   A    
C44   C55   A    
C66   C70   A    
C56   H8    S    
C98   O50   A    
C79   H23   S    
C62   C99   S    
C72   C96   A    
C61   C65   A    
Cr10  O34   S    
C31   H55   S    
C2    O26   A    
C73   C77   A    
C127  H80   S    
C60   H16   S    
C75   C79   A    
Cr6   O26   S    
C142  H112  S    
C123  C124  S    
C59   H15   S    
C67   C83   S    
C4    O24   A    
C111  C112  S    
C108  O16   A    
C30   C34   S    
Cr11  O15   S    
C7    C8    S    
C53   C54   A    
C32   C36   S    
C127  H79   S    
C42   C53   A    
C124  H66   S    
C82   H26   S    
C128  H78   S    
C101  O5    A    
C140  H107  S    
C49   C57   S    
C41   C102  S    
C43   C104  S    
C52   C60   S    
C77   H21   S    
C61   C77   A    
C24   H48   S    
Cr2   O18   S    
Cr8   O28   S    
C100  O52   A    
Cr9   O9    S    
C44   C52   A    
C130  H83   S    
C85   C121  S    
C104  O8    A    
C1    C12   S    
C2    C11   S    
C44   C103  S    
C109  H37   S    
Cr3   O47   S    
C62   C66   A    
C34   H58   S    
Cr7   O51   S    
C10   C14   A    
C144  H117  S    
Cr5   O17   S    
C103  O7    A    
C48   O32   A    
C116  C120  S    
C91   O39   A    
Cr4   O44   S    
C7    C116  S    
C34   C139  S    
C134  H93   S    
Cr10  O14   S    
Cr4   O4    S    
O55   C133  S    
C114  H2    S    
C42   C50   A    
C113  C117  S    
C115  C119  S    
Cr11  O19   S    
C139  H110  S    
C61   C100  S    
C42   C101  S    
C112  C116  S    
C69   C85   S    
Cr11  O39   S    
C48   O36   A    
C21   C25   A    
C122  H61   S    
C35   H59   S    
C106  O42   A    
C36   H60   S    
C5    H41   S    
C62   C78   A    
C76   C80   A    
C126  H71   S    
Cr7   O7    S    
C124  H68   S    
C128  H76   S    
C8    H44   S    
C15   C31   S    
Cr5   O29   S    
C16   C32   S    
C131  H87   S    
C13   C17   A    
C45   O29   A    
C143  H120  S    
C57   C58   S    
Cr2   O46   S    
C115  H3    S    
C29   H53   S    
C100  O48   A    
C111  H39   S    
C58   H12   S    
C47   O35   A    
C59   H9    S    
C131  C132  S    
C49   C50   A    
C130  H85   S    
Cr9   O33   S    
C90   O38   A    
C4    C9    S    
C81   C85   S    
C129  H82   S    
C83   C87   S    
C55   C56   A    
C108  O44   A    
Cr3   O23   S    
C129  C130  S    
C74   C94   A    
C86   H34   S    
C84   H28   S    
Cr7   O27   S    
C122  H63   S    
C15   C19   A    
C17   C33   S    
C12   C28   A    
C13   C29   S    
C70   C94   A    
C134  H95   S    
Cr12  O36   S    
Cr4   O24   S    
Cr4   O48   S    
C76   H20   S    
C45   C117  S    
C46   C118  S    
C133  H91   S    
C39   C91   S    
C25   O53   S    
C60   H10   S    
C141  H115  S    
C4    O28   A    
C138  H102  S    
Cr11  O11   S    
C99   O47   A    
C121  H65   S    
C64   C80   A    
Cr3   O3    S    
C135  H97   S    
C126  H73   S    
C110  C117  S    
Cr1   O1    S    
C123  H69   S    
C136  H99   S    
C86   C123  S    
Cr12  O12   S    
C138  H103  S    
C81   H25   S    
C68   C84   S    
C24   C28   A    
C125  H74   S    
C78   H22   S    
C35   C141  S    
Cr4   O20   S    
C82   C86   S    
Cr2   O22   S    
C135  C136  S    
C50   C58   S    
Cr8   O8    S    
C132  H88   S    
Cr9   O13   S    
C65   C81   S    
C90   O2    A    
Cr6   O30   S    
Cr10  O38   S    
C27   O55   S    
C95   C107  S    
C71   C87   S    
C110  H38   S    
Cr1   O41   S    
C1    O21   A    
C31   C35   S    
C107  O43   A    
C64   C68   A    
C83   H31   S    
C141  H114  S    
C73   H17   S    
C81   H29   S    
C112  C119  S    
C105  O13   A    
C116  H4    S    
C37   C89   S    
C102  O10   A    
C144  H116  S    
C137  H105  S    
C109  C110  S    
Cr8   O20   S    
C128  H77   S    
C43   C51   A    
C140  H106  S    
C112  H40   S    
C65   C69   A    
C36   C143  S    
C67   C71   A    
C99   O51   A    
C97   O49   A    
C141  C142  S    
C20   C36   S    
Cr11  O35   S    
C21   C37   A    
C3    O27   A    
C137  C138  S    
C22   C26   A    
C1    O25   A    
Cr5   O25   S    
C5    C114  S    
O56   C135  S    
C14   C18   A    
Cr12  O20   S    
C22   H46   S    
C88   C127  S    
C63   C79   A    
C139  C140  S    
Cr3   O19   S    
C30   H54   S    
C32   H50   S    
C132  H90   S    
C102  O6    A    
Cr1   O45   S    
Cr9   O37   S    
C8    C115  S    
C93   C105  S    
C7    H43   S    
Cr5   O49   S    
Cr1   O17   S    
C74   C78   A    
C84   H32   S    
Cr7   O31   S    
C10   C26   A    
C47   C119  S    
Cr5   O5    S    
C14   C30   S    
Cr12  O40   S    
C72   C88   S    
C80   H24   S    
C122  H62   S    
C32   H56   S    
C126  H72   S    
Cr6   O18   S    
C75   H19   S    
C101  O9    A    
C124  H67   S    
C140  H108  S    
O54   C131  S    
C5    C117  S    
C111  C120  S    
C6    C113  S    
Cr6   O50   S    
C125  H75   S    
O53   C129  S    
C46   O34   A    
C17   C37   A    
C40   C92   S    
C18   C34   S    
C114  C118  S    
C19   C39   A    
Cr7   O19   S    
Cr12  O16   S    
C23   C27   A    
C130  H84   S    
Cr3   O43   S    
Cr10  O18   S    
C51   C59   S    
C33   C137  S    
C125  C126  S    
C70   C86   S    
C28   O56   S    
C8    C120  S    
C123  H70   S    
C110  C114  S    
C94   C106  S    
C29   H51   S    
C105  O41   A    
C144  H118  S    
C58   H14   S    
C109  C113  S    
C142  H111  S    
C134  H94   S    
C3    C10   S    
Cr6   O6    S    
C54   H6    S    
C23   C39   A    
C24   C40   A    
C133  H92   S    
C103  O11   A    
C41   C54   A    
C127  C128  S    
C43   C56   A    
C83   H27   S    
C143  H119  S    
C139  H109  S    
C74   H18   S    
C111  C115  S    
C89   O37   A    
C6    C118  S    
