data_mof_unit_68230.cif
_audit_creation_date              2012-12-11T17:19:10-0500
_audit_creation_method            fapswitch 2.2
_symmetry_space_group_name_H-M    P1
_symmetry_Int_Tables_number       1
_space_group_crystal_system       triclinic
_cell_length_a                    14.686798
_cell_length_b                    7.358359
_cell_length_c                    13.521385
_cell_angle_alpha                 90.582177
_cell_angle_beta                  100.340171
_cell_angle_gamma                 88.981013
_cell_volume                      1437.27078312

loop_
_atom_site_label
_atom_site_type_symbol
_atom_type_description
_atom_site_fract_x
_atom_site_fract_y
_atom_site_fract_z
_atom_type_partial_charge
O1    O     O_R   0.648180 0.355050 0.151550 -0.483975
O2    O     O_R   0.351820 0.644950 0.848450 -0.485559
O3    O     O_R   0.851820 0.855050 0.348450 -0.526868
O4    O     O_R   0.148180 0.144950 0.651550 -0.496266
O5    O     O_R   0.835240 0.681980 0.154280 -0.545650
O6    O     O_R   0.164760 0.318020 0.845720 -0.496251
O7    O     O_R   0.664760 0.181980 0.345720 -0.509185
O8    O     O_R   0.335240 0.818020 0.654280 -0.510086
C1    C     C_R   0.870108 0.515359 0.140912 0.764001
C2    C     C_R   0.131281 0.484342 0.860063 0.791213
C3    C     C_R   0.630991 0.018923 0.360809 0.775041
C4    C     C_R   0.368429 0.981959 0.639303 0.789562
O9    O     O_R   0.647870 0.684600 0.139630 -0.538199
O10   O     O_R   0.352130 0.315400 0.860370 -0.533826
O11   O     O_R   0.852130 0.184600 0.360370 -0.500989
O12   O     O_R   0.147870 0.815400 0.639630 -0.521077
O13   O     O_R   0.663110 0.857440 0.333700 -0.533709
O14   O     O_R   0.336890 0.142560 0.666300 -0.540081
O15   O     O_R   0.836890 0.357440 0.166300 -0.491759
O16   O     O_R   0.163110 0.642560 0.833700 -0.551133
C5    C     C_R   0.615731 0.516453 0.112937 0.744783
C6    C     C_R   0.384714 0.483581 0.886509 0.730986
C7    C     C_R   0.883943 0.015149 0.387417 0.760728
C8    C     C_R   0.115519 0.983883 0.613211 0.739898
O17   O     O_3   0.755220 0.522230 0.313690 -0.356993
O18   O     O_3   0.244780 0.477770 0.686310 -0.355851
O19   O     O_3   0.744780 0.022230 0.186310 -0.349393
O20   O     O_3   0.255220 0.977770 0.813690 -0.353011
V1    V     V_3+5 0.749030 0.796100 0.238190 1.741132
V2    V     V_3+5 0.250970 0.203900 0.761810 1.765460
V3    V     V_3+5 0.750970 0.296100 0.261810 1.851282
V4    V     V_3+5 0.249030 0.703900 0.738190 1.770148
C9    C     C_1   0.965382 0.002602 0.467270 0.001942
C10   C     C_1   0.033799 0.992813 0.533581 -0.002451
C11   C     C_1   0.534543 0.506081 0.032650 0.016809
C12   C     C_1   0.466410 0.494469 0.966135 0.004271
H1    H     H_    0.191748 0.974306 0.313400 0.217596
H2    H     H_    0.802179 0.078155 0.689711 0.209929
H3    H     H_    0.309721 0.510461 0.184817 0.223182
H4    H     H_    0.696704 0.584654 0.813197 0.214241
C13   C     C_R   0.579704 0.992109 0.714628 0.320685
C14   C     C_R   0.416367 0.035602 0.287781 0.311270
C15   C     C_R   0.919482 0.492022 0.786504 0.322669
C16   C     C_R   0.084528 0.464428 0.211996 0.319240
C17   C     C_R   0.675103 0.036178 0.743462 0.358747
C18   C     C_R   0.319473 0.004148 0.259361 0.402512
C19   C     C_R   0.823558 0.537285 0.758421 0.358898
C20   C     C_R   0.182038 0.488321 0.239701 0.401423
C21   C     C_R   0.728679 0.054900 0.669866 -0.118144
C22   C     C_R   0.266051 0.988612 0.332958 -0.054408
C23   C     C_R   0.770433 0.559649 0.832619 -0.120078
C24   C     C_R   0.235246 0.499022 0.165686 -0.055511
C25   C     C_R   0.690977 0.040614 0.569343 0.005061
C26   C     C_R   0.305746 0.985842 0.432950 -0.040951
C27   C     C_R   0.808714 0.543041 0.932949 0.005395
C28   C     C_R   0.195055 0.499583 0.065823 -0.042271
C29   C     C_R   0.595054 0.021601 0.535266 0.019743
C30   C     C_R   0.402502 0.995263 0.465910 -0.013156
C31   C     C_R   0.904837 0.517886 0.966254 0.017217
C32   C     C_R   0.098054 0.493266 0.033587 -0.015730
C33   C     C_R   0.536140 0.001430 0.608335 -0.072733
C34   C     C_R   0.461249 0.015955 0.392870 -0.063418
C35   C     C_R   0.963479 0.501138 0.892455 -0.077729
C36   C     C_R   0.039295 0.485136 0.107210 -0.062989
C37   C     C_R   0.560228 0.019057 0.429273 -0.077007
C38   C     C_R   0.438142 0.987723 0.571234 -0.093697
C39   C     C_R   0.940161 0.502319 0.071845 -0.072066
C40   C     C_R   0.061944 0.493098 0.928466 -0.092810
H5    H     H_    0.739726 0.051433 0.518730 0.124952
H6    H     H_    0.257430 0.973202 0.483882 0.122887
H7    H     H_    0.760023 0.553139 0.983904 0.130197
H8    H     H_    0.243103 0.508808 0.014349 0.124324
S1    S     S_3+6 0.732804 0.081029 0.868827 -0.004076
O21   O     O_2   0.673826 0.205685 0.920557 -0.336630
O22   O     O_2   0.755799 0.913259 0.930441 -0.334353
O23   O     O_3   0.834723 0.177787 0.866248 -0.523594
H9    H     H_    0.879840 0.076049 0.866275 0.358957
S2    S     S_3+6 0.260034 0.961679 0.134582 -0.007222
O24   O     O_2   0.235224 0.133252 0.077107 -0.338186
O25   O     O_2   0.318892 0.842943 0.079434 -0.345930
O26   O     O_3   0.159152 0.860487 0.138973 -0.537440
H10   H     H_    0.119486 0.884444 0.072884 0.363279
S3    S     S_3+6 0.764511 0.576632 0.633015 -0.005021
O27   O     O_2   0.821615 0.696225 0.579541 -0.334698
O28   O     O_2   0.743215 0.405736 0.573202 -0.335900
O29   O     O_3   0.661493 0.676076 0.635081 -0.526423
H11   H     H_    0.617700 0.575464 0.635943 0.360307
S4    S     S_3+6 0.242598 0.527219 0.364291 -0.004010
O30   O     O_2   0.184892 0.645584 0.420962 -0.344012
O31   O     O_2   0.266383 0.353538 0.420065 -0.339772
O32   O     O_3   0.343930 0.626651 0.359734 -0.533082
H12   H     H_    0.383481 0.602380 0.425852 0.366808
S5    S     S_3+6 0.527386 0.871731 0.803495 -0.009224
O33   O     O_2   0.450651 0.984155 0.834127 -0.362315
O34   O     O_2   0.490411 0.699573 0.752276 -0.367908
O35   O     O_3   0.596927 0.806834 0.909561 -0.481238
H13   H     H_    0.578900 0.883537 0.963780 0.394131
S6    S     S_3+6 0.470265 0.153965 0.200540 -0.005263
O36   O     O_2   0.511431 0.321354 0.253747 -0.350580
O37   O     O_2   0.543833 0.036367 0.166946 -0.366961
O38   O     O_3   0.399179 0.226257 0.097131 -0.487386
H14   H     H_    0.413282 0.147841 0.041633 0.392209
S7    S     S_3+6 0.972648 0.367961 0.697544 -0.012015
O39   O     O_2   0.047918 0.477654 0.666457 -0.365371
O40   O     O_2   0.011453 0.196779 0.749348 -0.365600
O41   O     O_3   0.903622 0.300955 0.591874 -0.482900
H15   H     H_    0.919820 0.376832 0.537632 0.391588
S8    S     S_3+6 0.029198 0.352793 0.299835 -0.004766
O42   O     O_2   0.959764 0.479276 0.334792 -0.369414
O43   O     O_2   0.983101 0.189958 0.246322 -0.351970
O44   O     O_3   0.099803 0.273057 0.401959 -0.484760
H16   H     H_    0.084818 0.345065 0.459424 0.388332

loop_
_geom_bond_atom_site_label_1
_geom_bond_atom_site_label_2
_ccdc_geom_bond_type
C30   C34   A    
C16   C20   A    
O1    C5    A    
O38   H14   S    
C27   C31   A    
O19   V1    S    
O13   V1    S    
S1    O21   D    
O3    C7    A    
O44   H16   S    
C13   C33   A    
C17   S1    S    
C25   H5    S    
O26   H10   S    
C15   C35   A    
H2    C21   S    
C16   C36   A    
O7    C3    A    
C22   C26   A    
O9    V1    S    
C14   S6    S    
C26   C30   A    
O4    C8    A    
S2    O25   D    
O41   H15   S    
O1    V3    S    
S8    O42   D    
O2    V4    S    
C14   C18   A    
O3    V1    S    
C31   C39   A    
C33   C38   A    
C30   C38   A    
C13   S5    S    
C11   C12   T    
C2    O16   A    
C7    C9    S    
O2    C6    A    
C20   S4    S    
O14   V2    S    
C19   S3    S    
C14   C34   A    
O11   C7    A    
H3    C24   S    
O15   V3    S    
S5    O34   D    
S1    O22   D    
O10   V2    S    
C1    O15   A    
O5    V1    S    
C16   S8    S    
O4    V2    S    
O7    V3    S    
O8    V4    S    
C36   C39   A    
O23   H9    S    
O32   H12   S    
C18   S2    S    
C25   C29   A    
O29   H11   S    
C19   C23   A    
C28   H8    S    
C4    C38   S    
C8    C10   S    
C28   C32   A    
C1    C39   S    
O5    C1    A    
S3    O27   D    
C26   H6    S    
S4    O32   S    
C17   C21   A    
O8    C4    A    
O35   H13   S    
C9    C10   T    
O9    C5    A    
S7    O40   D    
S5    O33   D    
O11   V3    S    
O6    V2    S    
S4    O31   D    
S5    O35   S    
S6    O37   D    
S1    O23   S    
H4    C23   S    
O16   V4    S    
C35   C40   A    
C3    O13   A    
C34   C37   A    
S3    O28   D    
S2    O24   D    
O17   V3    S    
C29   C37   A    
O6    C2    A    
C29   C33   A    
C5    C11   S    
C2    C40   S    
O12   V4    S    
S6    O38   S    
C6    C12   S    
C18   C22   A    
C31   C35   A    
S8    O44   S    
C32   C36   A    
O10   C6    A    
O20   V2    S    
H1    C22   S    
S2    O26   S    
C21   C25   A    
S8    O43   D    
S7    O41   S    
C23   C27   A    
C15   S7    S    
C24   C28   A    
C20   C24   A    
S3    O29   S    
S4    O30   D    
C32   C40   A    
O12   C8    A    
S6    O36   D    
C4    O14   A    
S7    O39   D    
C13   C17   A    
C15   C19   A    
O18   V4    S    
C27   H7    S    
C3    C37   S    
