data_mof_unit_30435.cif
_audit_creation_date              2013-03-05T15:51:58-0500
_audit_creation_method            fapswitch 2.2
_symmetry_space_group_name_H-M    P1
_symmetry_Int_Tables_number       1
_space_group_crystal_system       triclinic
_cell_length_a                    19.161169
_cell_length_b                    11.043805
_cell_length_c                    18.691006
_cell_angle_alpha                 90.022827
_cell_angle_beta                  90.466448
_cell_angle_gamma                 90.007727
_cell_volume                      3955.11374041

loop_
_atom_site_label
_atom_site_type_symbol
_atom_site_description
_atom_site_fract_x
_atom_site_fract_y
_atom_site_fract_z
_atom_type_partial_charge
O1    O     O_R   0.214300 0.709080 0.827500 -0.528255
O2    O     O_R   0.785700 0.709080 0.172500 -0.520219
O3    O     O_R   0.714300 0.209080 0.827500 -0.517894
O4    O     O_R   0.285700 0.209080 0.172500 -0.534810
O5    O     O_R   0.236190 0.958390 0.823150 -0.504499
O6    O     O_R   0.763810 0.958390 0.176850 -0.503070
O7    O     O_R   0.736190 0.458390 0.823150 -0.501470
O8    O     O_R   0.263810 0.458390 0.176850 -0.512357
C1    C     C_R   0.273451 0.040215 0.853961 0.532023
C2    C     C_R   0.709368 0.995289 0.139686 0.519589
C3    C     C_R   0.790651 0.495264 0.860298 0.519977
C4    C     C_R   0.226543 0.540170 0.146027 0.525559
O9    O     O_R   0.332090 0.075280 0.831290 -0.535706
O10   O     O_R   0.667910 0.075280 0.168710 -0.545212
O11   O     O_R   0.832090 0.575280 0.831290 -0.544888
O12   O     O_R   0.167910 0.575280 0.168710 -0.537841
O13   O     O_R   0.446280 0.918040 0.826620 -0.497039
O14   O     O_R   0.553720 0.918040 0.173380 -0.518957
O15   O     O_R   0.946280 0.418040 0.826620 -0.511278
O16   O     O_R   0.053720 0.418040 0.173380 -0.499082
C5    C     C_R   0.440857 0.817901 0.863286 0.543770
C6    C     C_R   0.560645 0.817560 0.136869 0.534078
C7    C     C_R   0.939373 0.317590 0.863135 0.535874
C8    C     C_R   0.059167 0.317868 0.136718 0.543429
O17   O     O_R   0.457080 0.716270 0.831760 -0.524451
O18   O     O_R   0.542920 0.716270 0.168240 -0.526535
O19   O     O_R   0.957080 0.216270 0.831760 -0.514859
O20   O     O_R   0.042920 0.216270 0.168240 -0.526592
O21   O     O_R   0.320980 0.624440 0.823040 -0.520731
O22   O     O_R   0.679020 0.624440 0.176960 -0.515201
O23   O     O_R   0.820980 0.124440 0.823040 -0.514382
O24   O     O_R   0.179020 0.124440 0.176960 -0.522979
C9    C     C_R   0.272406 0.679865 0.858936 0.531285
C10   C     C_R   0.739681 0.636528 0.148188 0.532476
C11   C     C_R   0.760318 0.136556 0.851810 0.537387
C12   C     C_R   0.227584 0.179872 0.141070 0.531268
O25   O     O_R   0.213880 0.710510 0.665560 -0.493581
O26   O     O_R   0.786120 0.710510 0.334440 -0.475270
O27   O     O_R   0.713880 0.210510 0.665560 -0.459449
O28   O     O_R   0.286120 0.210510 0.334440 -0.467651
O29   O     O_R   0.235800 0.959720 0.673040 -0.447817
O30   O     O_R   0.764200 0.959720 0.326960 -0.468059
O31   O     O_R   0.735800 0.459720 0.673040 -0.479161
O32   O     O_R   0.264200 0.459720 0.326960 -0.437549
C13   C     C_R   0.271906 0.045808 0.646451 0.565138
C14   C     C_R   0.730236 0.051187 0.350587 0.564571
C15   C     C_R   0.769342 0.551527 0.649623 0.558778
C16   C     C_R   0.227945 0.540250 0.355764 0.550909
O33   O     O_R   0.331670 0.076720 0.669350 -0.521329
O34   O     O_R   0.668330 0.076720 0.330650 -0.479913
O35   O     O_R   0.831670 0.576720 0.669350 -0.487243
O36   O     O_R   0.168330 0.576720 0.330650 -0.512149
O37   O     O_R   0.445900 0.919370 0.676500 -0.471232
O38   O     O_R   0.554100 0.919370 0.323500 -0.432460
O39   O     O_R   0.945900 0.419370 0.676500 -0.415845
O40   O     O_R   0.054100 0.419370 0.323500 -0.448149
C17   C     C_R   0.472102 0.823331 0.649091 0.588971
C18   C     C_R   0.534194 0.825730 0.355395 0.567590
C19   C     C_R   0.938254 0.320926 0.639623 0.570794
C20   C     C_R   0.026648 0.324860 0.350529 0.583185
O41   O     O_R   0.456660 0.717710 0.669820 -0.482432
O42   O     O_R   0.543340 0.717710 0.330180 -0.512424
O43   O     O_R   0.956660 0.217710 0.669820 -0.499171
O44   O     O_R   0.043340 0.217710 0.330180 -0.498647
O45   O     O_R   0.320590 0.625770 0.672930 -0.518402
O46   O     O_R   0.679410 0.625770 0.327070 -0.515269
O47   O     O_R   0.820590 0.125770 0.672930 -0.532628
O48   O     O_R   0.179410 0.125770 0.327070 -0.516037
C21   C     C_R   0.258860 0.633339 0.645692 0.541673
C22   C     C_R   0.737399 0.643519 0.359282 0.556437
C23   C     C_R   0.762532 0.144427 0.640454 0.575540
C24   C     C_R   0.239620 0.135608 0.355787 0.549112
Cr1   Cr    Cr6+3 0.229640 0.835880 0.747370 1.076747
Cr2   Cr    Cr6+3 0.770360 0.835880 0.252630 1.083869
Cr3   Cr    Cr6+3 0.729640 0.335880 0.747370 1.078426
Cr4   Cr    Cr6+3 0.270360 0.335880 0.252630 1.077565
Cr5   Cr    Cr6+3 0.387390 0.989720 0.750850 1.064568
Cr6   Cr    Cr6+3 0.612610 0.989720 0.249150 1.068298
Cr7   Cr    Cr6+3 0.887390 0.489720 0.750850 1.072185
Cr8   Cr    Cr6+3 0.112610 0.489720 0.249150 1.072338
Cr9   Cr    Cr6+3 0.385770 0.677220 0.749340 1.038116
Cr10  Cr    Cr6+3 0.614230 0.677220 0.250660 1.019791
Cr11  Cr    Cr6+3 0.885770 0.177220 0.749340 1.027260
Cr12  Cr    Cr6+3 0.114230 0.177220 0.250660 1.031576
O49   O     O_3   0.334270 0.834280 0.749190 -0.313465
O50   O     O_3   0.665730 0.834280 0.250810 -0.314888
O51   O     O_3   0.834270 0.334280 0.749190 -0.339540
O52   O     O_3   0.165730 0.334280 0.250810 -0.308994
C25   C     C_3   0.490222 0.933667 0.033619 -0.147498
C26   C     C_3   0.525029 0.920783 0.959296 -0.136633
C27   C     C_3   0.975042 0.420772 0.040757 -0.136576
C28   C     C_3   0.009849 0.433672 0.966440 -0.147455
C29   C     C_3   0.434321 0.841385 0.010238 0.256157
C30   C     C_3   0.569556 0.815171 0.988486 0.242296
C31   C     C_3   0.930482 0.315190 0.011508 0.242211
C32   C     C_3   0.065724 0.341357 0.989764 0.255532
H1    H     H_    0.481481 0.021626 0.060886 0.107490
H2    H     H_    0.541880 0.998779 0.926351 0.116207
H3    H     H_    0.958204 0.498767 0.073740 0.115852
H4    H     H_    0.018609 0.521638 0.939224 0.108553
C33   C     C_3   0.468864 0.827636 0.936887 0.028811
C34   C     C_3   0.534808 0.826973 0.062176 0.012869
C35   C     C_3   0.965228 0.327018 0.937826 0.010311
C36   C     C_3   0.031181 0.327585 0.063112 0.029736
C37   C     C_3   0.513995 0.722706 0.965903 -0.154789
C38   C     C_3   0.478079 0.735666 0.038888 -0.140163
C39   C     C_3   0.021930 0.235667 0.961060 -0.140125
C40   C     C_3   0.986016 0.222693 0.034040 -0.154926
H5    H     H_    0.525465 0.635504 0.939151 0.118569
H6    H     H_    0.457803 0.659942 0.071331 0.137922
H7    H     H_    0.042189 0.159939 0.928582 0.140102
H8    H     H_    0.974533 0.135491 0.060749 0.118436
C41   C     C_R   0.244202 0.586012 0.076298 0.032075
C42   C     C_R   0.781795 0.508353 0.937698 0.037946
C43   C     C_R   0.718229 0.008402 0.062285 0.038759
C44   C     C_R   0.255786 0.086099 0.923682 0.030185
C45   C     C_R   0.310556 0.577098 0.046521 0.037042
C46   C     C_R   0.723611 0.464204 0.974419 0.063601
C47   C     C_R   0.776387 0.964236 0.025520 0.063896
C48   C     C_R   0.189429 0.077137 0.953447 0.038680
C49   C     C_R   0.320963 0.607871 0.975391 0.069828
C50   C     C_R   0.711492 0.497139 0.044695 0.022294
C51   C     C_R   0.788495 0.997182 0.955257 0.021447
C52   C     C_R   0.179018 0.107871 0.024592 0.069646
C53   C     C_R   0.199040 0.660764 0.964394 -0.161525
C54   C     C_R   0.822191 0.598496 0.049180 -0.146139
C55   C     C_R   0.677837 0.098605 0.950851 -0.146617
C56   C     C_R   0.300953 0.160774 0.035623 -0.160894
C57   C     C_R   0.189378 0.634225 0.034994 -0.138562
C58   C     C_R   0.834131 0.566382 0.978158 -0.132974
C59   C     C_R   0.665904 0.066471 0.021861 -0.133163
C60   C     C_R   0.310612 0.134307 0.965009 -0.139762
C61   C     C_3   0.357276 0.470077 0.042094 -0.284503
C62   C     C_3   0.647478 0.463874 0.956899 -0.263163
C63   C     C_3   0.852524 0.963814 0.043013 -0.263173
C64   C     C_3   0.142705 0.970095 0.957795 -0.283238
C65   C     C_3   0.370517 0.504846 0.964965 -0.275191
C66   C     C_3   0.634471 0.498391 0.034666 -0.276164
C67   C     C_3   0.865521 0.998345 0.965258 -0.276109
C68   C     C_3   0.129463 0.004815 0.034946 -0.276232
C69   C     C_R   0.264338 0.644546 0.932743 0.033273
C70   C     C_R   0.757576 0.573344 0.081715 0.027000
C71   C     C_R   0.742429 0.073417 0.918280 0.026611
C72   C     C_R   0.235649 0.144530 0.067259 0.034996
H9    H     H_    0.153472 0.689323 0.934212 0.128799
H10   H     H_    0.861992 0.650927 0.076496 0.126324
H11   H     H_    0.638047 0.151059 0.923572 0.126573
H12   H     H_    0.346523 0.189345 0.065819 0.128033
H13   H     H_    0.136864 0.644218 0.055261 0.147045
H14   H     H_    0.882499 0.594802 0.953742 0.126629
H15   H     H_    0.617549 0.094908 0.046298 0.126799
H16   H     H_    0.363126 0.144335 0.944748 0.147193
H17   H     H_    0.871878 0.871851 0.056662 0.135379
H18   H     H_    0.173012 0.886176 0.952197 0.155599
H19   H     H_    0.326964 0.386149 0.047632 0.156451
H20   H     H_    0.628077 0.371942 0.943187 0.135418
H21   H     H_    0.403855 0.476867 0.077519 0.131924
H22   H     H_    0.633082 0.535663 0.918022 0.157149
H23   H     H_    0.866970 0.035572 0.081931 0.156913
H24   H     H_    0.096129 0.976893 0.922372 0.135250
H25   H     H_    0.424531 0.535289 0.955987 0.139570
H26   H     H_    0.612154 0.589877 0.041990 0.182413
H27   H     H_    0.887881 0.089809 0.957976 0.181839
H28   H     H_    0.075449 0.035232 0.043943 0.139506
H29   H     H_    0.352967 0.436958 0.925258 0.134838
H30   H     H_    0.608608 0.425432 0.065659 0.130848
H31   H     H_    0.891334 0.925366 0.934212 0.131703
H32   H     H_    0.147012 0.936908 0.074606 0.134406
C73   C     C_R   0.517908 0.841744 0.430998 -0.058716
C74   C     C_R   0.504961 0.828525 0.579967 -0.007832
C75   C     C_R   0.983899 0.336546 0.415163 -0.018820
C76   C     C_R   0.948673 0.334416 0.561848 -0.066983
C77   C     C_R   0.507124 0.733447 0.465335 -0.048979
C78   C     C_R   0.496623 0.728453 0.536631 0.047287
C79   C     C_R   0.973931 0.230570 0.452643 0.046585
C80   C     C_R   0.951321 0.229168 0.522567 -0.083720
C81   C     C_R   0.531663 0.935195 0.550366 0.158220
C82   C     C_R   0.531756 0.948935 0.474010 0.138475
C83   C     C_R   0.963399 0.445866 0.526743 0.182027
C84   C     C_R   0.971696 0.447677 0.450945 0.158137
C85   C     C_3   0.451759 0.643927 0.449711 -0.201986
C86   C     C_3   0.436454 0.643916 0.528615 -0.200229
C87   C     C_3   0.030358 0.142070 0.467666 -0.175743
C88   C     C_3   0.001998 0.133772 0.541245 -0.156304
H33   H     H_    0.082029 0.187812 0.466962 0.116674
H34   H     H_    0.976152 0.047114 0.554768 0.225631
H35   H     H_    0.476326 0.558804 0.430795 0.244341
H36   H     H_    0.386087 0.688766 0.541342 0.105014
H37   H     H_    0.408677 0.681287 0.416076 0.143148
H38   H     H_    0.445356 0.555497 0.555123 0.240663
H39   H     H_    0.028165 0.058380 0.435421 0.240496
H40   H     H_    0.040204 0.168247 0.580775 0.225862
C89   C     C_R   0.242913 0.555836 0.430945 -0.018397
C90   C     C_R   0.745699 0.609341 0.584373 0.003286
C91   C     C_R   0.754105 0.110305 0.415167 -0.009666
C92   C     C_R   0.253820 0.089328 0.576471 0.006335
C93   C     C_R   0.187568 0.605288 0.466903 -0.011095
C94   C     C_R   0.799911 0.656742 0.545595 0.034069
C95   C     C_R   0.701818 0.166682 0.452975 0.047793
C96   C     C_R   0.308234 0.136339 0.535922 -0.003536
C97   C     C_R   0.186100 0.610585 0.539407 0.053085
C98   C     C_R   0.799099 0.653324 0.472298 0.022584
C99   C     C_R   0.703394 0.168156 0.526394 0.091557
C100  C     C_R   0.304623 0.135417 0.463347 0.043731
C101  C     C_R   0.292492 0.497828 0.546857 -0.157931
C102  C     C_R   0.680960 0.580560 0.473685 -0.171976
C103  C     C_R   0.814871 0.069497 0.526523 -0.191212
C104  C     C_R   0.190913 0.046271 0.466597 -0.184930
C105  C     C_R   0.295628 0.491649 0.471492 0.168939
C106  C     C_R   0.682473 0.580146 0.549250 0.158328
C107  C     C_R   0.814728 0.071868 0.451036 0.153532
C108  C     C_R   0.191938 0.051353 0.541918 0.151610
C109  C     C_3   0.156864 0.726747 0.455477 -0.251445
C110  C     C_3   0.821932 0.785271 0.548832 -0.252212
C111  C     C_3   0.684355 0.297360 0.447632 -0.260239
C112  C     C_3   0.383418 0.098364 0.533455 -0.194466
C113  C     C_3   0.153782 0.733046 0.535352 -0.158027
C114  C     C_3   0.825218 0.779294 0.469160 -0.176376
C115  C     C_3   0.685295 0.298845 0.527892 -0.194892
C116  C     C_3   0.377545 0.097687 0.453281 -0.206876
C117  C     C_R   0.242721 0.570713 0.579766 -0.024310
C118  C     C_R   0.741336 0.611693 0.434689 -0.049370
C119  C     C_R   0.757517 0.114721 0.564786 -0.023591
C120  C     C_R   0.247810 0.090080 0.427357 -0.046053
H41   H     H_    0.333973 0.459608 0.579358 0.174829
H42   H     H_    0.632584 0.560499 0.445777 0.180711
H43   H     H_    0.859957 0.036576 0.555316 0.158619
H44   H     H_    0.145643 0.011831 0.438533 0.160119
H45   H     H_    0.105443 0.724109 0.428535 0.238043
H46   H     H_    0.873178 0.801709 0.574745 0.218233
H47   H     H_    0.631916 0.313781 0.423822 0.215962
H48   H     H_    0.392256 0.006293 0.555514 0.130221
H49   H     H_    0.194705 0.791363 0.431715 0.113008
H50   H     H_    0.779314 0.844276 0.568912 0.136540
H51   H     H_    0.727187 0.350986 0.423301 0.122748
H52   H     H_    0.418363 0.170327 0.554343 0.255522
H53   H     H_    0.188942 0.804943 0.555909 0.178886
H54   H     H_    0.787482 0.841331 0.443028 0.158165
H55   H     H_    0.728706 0.353953 0.550172 0.120732
H56   H     H_    0.406906 0.170501 0.426474 0.274086
H57   H     H_    0.099949 0.730324 0.556691 0.270222
H58   H     H_    0.878140 0.775650 0.446879 0.277983
H59   H     H_    0.633683 0.311196 0.552777 0.264415
H60   H     H_    0.382208 0.005959 0.429104 0.116022
O53   O     O_3   0.362914 0.854250 0.026389 -0.570996
C121  C     C_3   0.356905 0.884523 0.100043 0.000947
H61   H     H_    0.368198 0.982183 0.107696 0.148603
H62   H     H_    0.393593 0.832606 0.135058 0.147570
C122  C     C_3   0.283729 0.859091 0.126474 -0.364146
H63   H     H_    0.283172 0.774460 0.158270 0.125021
H64   H     H_    0.265816 0.933012 0.161983 0.141043
H65   H     H_    0.247779 0.849926 0.080377 0.181003
O54   O     O_3   0.640819 0.799737 0.971414 -0.577103
C123  C     C_3   0.647238 0.803787 0.895624 -0.002732
H66   H     H_    0.633816 0.895026 0.874677 0.152854
H67   H     H_    0.611908 0.737351 0.868952 0.151737
C124  C     C_3   0.721263 0.775308 0.872291 -0.342914
H68   H     H_    0.719914 0.699818 0.833369 0.166235
H69   H     H_    0.744525 0.853605 0.843982 0.126786
H70   H     H_    0.754836 0.751748 0.918741 0.189708
O55   O     O_3   0.859212 0.299789 0.028563 -0.575985
C125  C     C_3   0.852788 0.303818 0.104354 -0.004406
H71   H     H_    0.866246 0.395040 0.125357 0.149657
H72   H     H_    0.888086 0.237340 0.130988 0.149560
C126  C     C_3   0.778746 0.275395 0.127658 -0.346750
H73   H     H_    0.780058 0.199918 0.166551 0.163365
H74   H     H_    0.755504 0.353715 0.155987 0.122122
H75   H     H_    0.745177 0.251842 0.081190 0.191571
O56   O     O_3   0.137129 0.354185 0.973586 -0.572986
C127  C     C_3   0.143116 0.384418 0.899936 0.003825
H76   H     H_    0.131829 0.482070 0.892312 0.150540
H77   H     H_    0.106408 0.332476 0.864922 0.157840
C128  C     C_3   0.216276 0.358982 0.873460 -0.357514
H78   H     H_    0.216804 0.274361 0.841612 0.134404
H79   H     H_    0.234193 0.432915 0.837989 0.146390
H80   H     H_    0.252240 0.349796 0.919537 0.177441
N1    N     N_R   0.561895 0.023150 0.597878 0.113412
O57   O     O_R   0.618435 0.994026 0.632740 -0.345435
O58   O     O_R   0.524534 0.112691 0.621509 -0.300407
N2    N     N_R   0.538554 0.069834 0.443702 0.076422
O59   O     O_R   0.551200 0.161322 0.485359 -0.317102
O60   O     O_R   0.513297 0.096205 0.380931 -0.339793
N3    N     N_R   0.990755 0.544306 0.567996 0.118184
O61   O     O_R   0.049938 0.530378 0.601579 -0.345294
O62   O     O_R   0.951707 0.636090 0.583785 -0.312945
N4    N     N_R   0.970890 0.559703 0.411592 0.081836
O63   O     O_R   0.987443 0.661332 0.442253 -0.328353
O64   O     O_R   0.942693 0.563020 0.348033 -0.328958
N5    N     N_R   0.354847 0.429073 0.440628 0.073031
O65   O     O_R   0.396217 0.367797 0.482523 -0.385746
O66   O     O_R   0.378301 0.455300 0.377427 -0.342977
N6    N     N_R   0.620891 0.551216 0.589205 0.077444
O67   O     O_R   0.569139 0.494623 0.558734 -0.370709
O68   O     O_R   0.613371 0.591446 0.654150 -0.316277
N7    N     N_R   0.874648 0.034501 0.410979 0.076267
O69   O     O_R   0.921641 0.965524 0.440003 -0.398386
O70   O     O_R   0.886051 0.078848 0.347593 -0.328316
N8    N     N_R   0.132620 0.011965 0.582595 0.048684
O71   O     O_R   0.085994 0.941821 0.553679 -0.409064
O72   O     O_R   0.120699 0.055980 0.646057 -0.337222

loop_
_geom_bond_atom_site_label_1
_geom_bond_atom_site_label_2
_geom_bond_distance
_ccdc_geom_bond_type
O4    C12   1.295490 A    
C61   C65   1.515388 S    
O39   C19   1.294706 A    
C59   H15   1.082875 S    
C64   C68   1.515387 S    
C45   C61   1.485461 S    
Cr7   O51   1.995701 S    
C85   H35   1.110361 S    
C63   C67   1.525082 S    
O25   C21   1.269735 A    
C24   C120  1.436684 S    
O21   C9    1.304263 A    
C128  H80   1.103326 S    
C115  H55   1.108932 S    
C1    O9    1.264811 A    
O44   Cr12  2.070424 S    
C123  H67   1.113187 S    
C3    O11   1.308639 A    
C7    C35   1.481163 S    
C4    O12   1.264928 A    
C102  H42   1.082770 S    
O2    C10   1.272402 A    
O53   C121  1.422134 S    
O17   Cr9   2.095519 S    
C42   C58   1.405469 A    
C106  N6    1.437547 S    
C109  H49   1.112465 S    
O9    Cr5   2.073943 S    
O31   Cr3   1.954162 S    
C63   H23   1.109036 S    
O16   Cr8   1.969384 S    
C29   C33   1.534737 S    
O13   C5    1.305851 A    
O28   Cr4   2.083426 S    
O12   Cr8   2.074359 S    
O22   Cr10  1.950882 S    
O15   C7    1.309965 A    
C87   C88   1.485708 S    
O46   Cr10  1.973362 S    
C79   C80   1.380318 A    
O14   Cr6   1.969384 S    
C66   H26   1.106063 S    
C55   C71   1.411388 A    
C67   H31   1.111466 S    
C56   C72   1.399869 A    
C29   O53   1.410718 S    
C94   C98   1.370448 A    
C76   C83   1.424314 A    
C32   C36   1.534796 S    
C2    O10   1.308659 A    
C60   H16   1.083684 S    
C127  H77   1.115421 S    
N8    O71   1.296917 A    
C114  H54   1.106998 S    
C94   C110  1.481860 S    
C109  H45   1.103249 S    
C79   C87   1.482789 S    
C74   C78   1.378462 A    
C80   C88   1.473007 S    
C1    C44   1.440928 S    
Cr12  O52   1.995468 S    
C125  H72   1.113204 S    
C17   O41   1.265079 A    
C47   C51   1.384287 A    
C19   O43   1.318971 A    
C20   O44   1.284129 A    
N6    O68   1.301588 A    
C12   C72   1.443105 S    
Cr8   O52   1.995959 S    
C65   H25   1.102342 S    
O46   C22   1.274557 A    
C21   C117  1.444084 S    
C55   C59   1.394655 A    
C31   C40   1.531827 S    
C92   C108  1.409307 A    
C53   C57   1.365927 A    
C16   O36   1.295741 A    
C30   C34   1.540180 S    
O27   C23   1.276290 A    
C116  H56   1.104079 S    
C35   C39   1.542658 S    
C86   H38   1.107762 S    
C8    C36   1.476473 S    
C107  N7    1.436306 S    
O32   C16   1.252709 A    
N4    O64   1.301592 A    
C103  C119  1.407592 A    
C26   C30   1.542470 S    
C16   C89   1.442111 S    
C97   C117  1.388211 A    
C78   C86   1.489982 S    
O29   Cr1   1.954162 S    
N7    O70   1.302265 A    
C57   H13   1.083678 S    
C122  H63   1.107886 S    
C95   C111  1.484732 S    
O24   C12   1.304235 A    
O55   C125  1.423627 S    
C51   C67   1.486235 S    
O8    Cr4   1.962441 S    
C124  H68   1.106413 S    
C46   C50   1.384248 A    
C49   C65   1.495737 S    
O32   Cr4   1.953409 S    
O11   Cr7   2.073943 S    
C53   C69   1.399845 A    
C58   H14   1.082877 S    
C39   C40   1.539538 S    
O27   Cr3   2.082562 S    
O3    Cr3   2.073463 S    
C46   C62   1.492493 S    
O8    C4    1.285075 A    
C13   C92   1.433567 S    
Cr5   O49   1.995701 S    
N1    O57   1.300191 A    
C103  C107  1.411160 A    
C104  C108  1.408902 A    
C31   C35   1.540153 S    
C91   C95   1.379170 A    
O22   C10   1.291613 A    
C18   C73   1.460302 S    
N2    O59   1.296939 A    
C110  C114  1.492425 S    
C27   C28   1.552358 S    
C123  C124  1.520219 S    
C9    C69   1.443265 S    
C32   O56   1.410748 S    
C44   C48   1.395514 A    
O5    C1    1.284802 A    
C29   C38   1.531786 S    
C90   C106  1.410461 A    
C102  C106  1.412466 A    
C44   C60   1.403578 A    
O3    C11   1.272559 A    
C96   C100  1.357736 A    
N5    O65   1.299976 A    
C86   H36   1.112253 S    
C126  H74   1.109246 S    
Cr1   O49   2.004927 S    
C41   C45   1.395518 A    
Cr3   O51   2.004927 S    
C62   H22   1.109027 S    
C43   C47   1.401531 A    
C113  H53   1.107872 S    
C17   C74   1.442982 S    
O26   Cr2   2.083426 S    
C5    O17   1.306196 A    
C121  H61   1.108982 S    
C122  H65   1.103340 S    
O29   C13   1.278792 A    
O28   C24   1.281871 A    
O14   C6    1.309811 A    
C20   C75   1.470740 S    
C39   H7    1.105519 S    
C8    O20   1.306301 A    
C125  H71   1.110644 S    
C104  C120  1.404899 A    
O40   Cr8   1.953899 S    
C66   H30   1.111451 S    
C124  H70   1.107455 S    
C98   C114  1.479761 S    
C67   H27   1.106066 S    
O41   Cr9   2.070599 S    
C104  H44   1.079162 S    
C90   C94   1.375069 A    
O31   C15   1.279605 A    
C102  C118  1.414785 A    
C128  H79   1.108215 S    
O33   Cr5   2.087706 S    
C61   H21   1.109462 S    
C114  H58   1.100102 S    
O5    Cr1   1.961639 S    
O35   Cr7   2.087706 S    
C27   C31   1.542439 S    
C64   H24   1.109460 S    
N3    O61   1.300837 A    
C73   C77   1.373952 A    
C27   H3    1.108593 S    
Cr9   O49   1.995701 S    
C76   C80   1.375731 A    
C121  C122  1.516645 S    
C18   O42   1.294959 A    
Cr11  O51   1.995701 S    
O26   C22   1.281260 A    
C30   C37   1.531800 S    
O20   Cr12  2.095848 S    
C125  C126  1.520218 S    
C65   H29   1.105186 S    
C85   C86   1.506018 S    
O47   Cr11  1.972937 S    
C83   N3    1.429612 S    
C100  C116  1.471649 S    
C108  N8    1.439899 S    
C38   H6    1.105513 S    
C54   C58   1.394593 A    
O30   C14   1.281962 A    
C37   H5    1.107806 S    
C85   H37   1.112993 S    
C62   H20   1.110326 S    
C88   H40   1.103489 S    
C101  H41   1.082307 S    
O42   Cr10  2.070424 S    
C77   C85   1.477354 S    
O18   Cr10  2.095848 S    
O56   C127  1.422176 S    
C95   C99   1.372450 A    
C127  C128  1.516653 S    
C110  H50   1.112329 S    
N8    O72   1.303619 A    
O34   Cr6   2.087015 S    
O6    Cr2   1.962441 S    
C31   O55   1.415097 S    
O24   Cr12  1.950882 S    
O30   Cr2   1.953409 S    
C74   C81   1.400229 A    
O1    C9    1.295591 A    
O48   Cr12  1.973362 S    
C49   C69   1.401074 A    
C50   C66   1.486223 S    
C30   O54   1.415113 S    
N7    O69   1.295359 A    
O37   C17   1.281948 A    
C56   H12   1.082726 S    
C15   O35   1.277617 A    
Cr10  O50   1.995468 S    
C54   C70   1.411433 A    
C47   C63   1.492472 S    
C40   H8    1.107794 S    
O43   Cr11  2.070599 S    
O48   C24   1.273088 A    
C48   C64   1.485466 S    
O37   Cr5   1.953579 S    
O21   Cr9   1.951110 S    
C123  H66   1.110623 S    
C111  C115  1.500200 S    
O39   Cr7   1.953579 S    
O45   Cr9   1.972937 S    
C13   O33   1.266054 A    
O13   Cr5   1.969960 S    
C99   C119  1.388185 A    
O15   Cr7   1.969960 S    
C103  H43   1.077407 S    
C32   C39   1.531766 S    
C112  H52   1.108039 S    
O23   C11   1.291630 A    
C68   H28   1.102360 S    
C19   C76   1.476531 S    
C110  H46   1.106286 S    
C36   C40   1.541972 S    
C93   C109  1.479652 S    
C10   C70   1.467812 S    
C105  N5    1.452061 S    
C52   C68   1.495763 S    
C6    C34   1.481168 S    
O6    C2    1.313510 A    
C37   C38   1.539545 S    
O1    Cr1   2.073463 S    
O19   Cr11  2.095519 S    
O54   C123  1.423646 S    
O45   C21   1.286663 A    
C22   C118  1.454091 S    
C88   H34   1.107776 S    
O47   C23   1.279708 A    
C84   N4    1.439601 S    
C113  H57   1.109366 S    
C83   C84   1.427079 A    
O40   C20   1.275115 A    
C81   C82   1.435298 A    
C6    O18   1.309261 A    
C127  H76   1.108975 S    
N5    O66   1.300077 A    
C53   H9    1.082716 S    
C25   C26   1.552360 S    
O36   Cr8   2.087015 S    
C11   C71   1.467931 S    
O38   Cr6   1.953899 S    
C68   H32   1.105192 S    
C25   C34   1.548060 S    
N3    O62   1.295354 A    
C98   C118  1.384743 A    
C15   C90   1.446372 S    
C28   C32   1.539089 S    
C27   C36   1.544083 S    
C92   C96   1.394295 A    
C54   H10   1.082078 S    
O23   Cr11  1.951110 S    
C14   C91   1.443166 S    
C43   C59   1.405565 A    
C77   C78   1.350471 A    
O7    C3    1.313300 A    
C116  H60   1.112984 S    
C41   C57   1.403676 A    
C111  H47   1.110573 S    
N6    O67   1.299495 A    
N2    O60   1.298696 A    
C87   H33   1.111631 S    
N4    O63   1.298149 A    
C64   H18   1.099174 S    
C3    C42   1.465056 S    
C45   C49   1.388334 A    
C28   C35   1.547956 S    
C96   C112  1.501536 S    
O16   C8    1.305712 A    
C93   C97   1.356926 A    
C7    O19   1.309160 A    
C126  H73   1.106398 S    
Cr4   O52   2.004922 S    
O2    Cr2   2.072710 S    
C81   N1    1.434752 S    
C5    C33   1.476444 S    
Cr6   O50   1.995959 S    
C100  C120  1.369648 A    
C25   C29   1.539056 S    
C56   C60   1.365792 A    
C33   C37   1.542070 S    
C121  H62   1.115435 S    
C122  H64   1.108202 S    
C23   C119  1.454145 S    
C111  H51   1.112327 S    
C109  C113  1.496183 S    
O7    Cr3   1.961639 S    
C75   C79   1.378332 A    
C25   H1    1.110161 S    
C124  H69   1.109254 S    
C26   C33   1.543974 S    
C91   C107  1.402381 A    
C89   C105  1.444059 A    
C101  C105  1.412043 A    
C128  H78   1.107912 S    
Cr2   O50   2.004922 S    
C42   C46   1.401558 A    
N1    O58   1.300164 A    
C75   C84   1.417820 A    
C50   C70   1.398640 A    
C73   C82   1.453885 A    
C28   H4    1.110159 S    
C4    C41   1.441195 S    
O38   C18   1.254757 A    
O25   Cr1   2.082562 S    
C61   H19   1.099133 S    
C87   H39   1.103793 S    
C62   C66   1.525022 S    
C14   O34   1.272173 A    
C63   H17   1.110346 S    
C99   C115  1.484731 S    
C97   C113  1.489230 S    
C89   C93   1.373340 A    
C101  C117  1.394667 A    
C112  H48   1.109877 S    
C115  H59   1.104734 S    
C34   C38   1.542561 S    
O10   Cr6   2.074359 S    
C126  H75   1.107431 S    
O4    Cr4   2.072710 S    
C82   N2    1.456828 S    
C51   C71   1.398706 A    
C52   C72   1.401034 A    
C112  C116  1.501871 S    
C26   H2    1.108583 S    
C2    C43   1.465222 S    
C48   C52   1.388272 A    
C55   H11   1.082072 S    
