data_mof_unit_32071.cif
_audit_creation_date              2012-12-10T20:49:44-0500
_audit_creation_method            fapswitch 2.2
_symmetry_space_group_name_H-M    P1
_symmetry_Int_Tables_number       1
_space_group_crystal_system       triclinic
_cell_length_a                    8.103091
_cell_length_b                    8.927312
_cell_length_c                    16.791047
_cell_angle_alpha                 90.038864
_cell_angle_beta                  84.477223
_cell_angle_gamma                 89.95657
_cell_volume                      1209.00550202

loop_
_atom_site_label
_atom_site_type_symbol
_atom_type_description
_atom_site_fract_x
_atom_site_fract_y
_atom_site_fract_z
_atom_type_partial_charge
C1    C     C_R   0.499961 0.782033 0.499965 0.931486
C2    C     C_R   0.499965 0.217984 0.500334 0.929260
C3    C     C_1   0.499886 0.934820 0.500098 -0.194261
C4    C     C_1   0.499969 0.065212 0.500241 -0.204839
C5    C     C_R   0.476186 0.505064 0.653534 0.872768
C6    C     C_R   0.523906 0.496359 0.346517 0.874479
C7    C     C_R   0.459723 0.542141 0.738133 -0.063757
C8    C     C_R   0.542899 0.486990 0.259995 -0.063573
C9    C     C_R   0.580719 0.635527 0.766266 -0.256353
C10   C     C_R   0.674043 0.564944 0.218107 -0.254760
C11   C     C_R   0.570358 0.676349 0.845979 -0.186280
C12   C     C_R   0.687866 0.568284 0.135265 -0.210180
C13   C     C_R   0.440213 0.622251 0.898352 0.144318
C14   C     C_R   0.571826 0.492028 0.094395 0.142477
C15   C     C_R   0.312416 0.538038 0.870296 -0.277210
C16   C     C_R   0.445770 0.407738 0.135300 -0.228622
C17   C     C_R   0.321193 0.496555 0.789826 0.203947
C18   C     C_R   0.430626 0.403461 0.218527 0.201311
C19   C     C_2   0.461516 0.618359 0.983457 0.104706
C20   C     C_2   0.567864 0.514612 0.009154 0.107144
H1    H     H_    0.213796 0.494451 0.912066 0.148533
H2    H     H_    0.357019 0.348780 0.102411 0.134325
H3    H     H_    0.784203 0.634935 0.103175 0.153620
H4    H     H_    0.670119 0.740133 0.868133 0.144781
H5    H     H_    0.685054 0.675296 0.726729 0.172857
H6    H     H_    0.761453 0.628410 0.249578 0.168783
N1    N     N_1   0.926360 0.500000 0.499990 -0.032038
N2    N     N_1   0.073640 0.500000 0.500010 -0.027056
O1    O     O_R   0.363150 0.714660 0.500000 -0.618148
O2    O     O_R   0.636850 0.285340 0.500000 -0.613112
O3    O     O_R   0.636850 0.714660 0.500000 -0.618356
O4    O     O_R   0.363150 0.285340 0.500000 -0.605992
O5    O     O_R   0.346950 0.500000 0.615800 -0.589133
O6    O     O_R   0.653050 0.500000 0.384200 -0.626238
O7    O     O_R   0.620700 0.500000 0.615800 -0.627140
O8    O     O_R   0.379300 0.500000 0.384200 -0.590234
Zn1   Zn    Zn3+2 0.317220 0.500000 0.500010 1.003434
Zn2   Zn    Zn3+2 0.682780 0.500000 0.499990 0.981056
N3    N     N_2   0.302310 0.316656 0.259935 -0.291643
H7    H     H_    0.197156 0.307511 0.230156 0.222800
C21   C     C_3   0.356684 0.172829 0.287306 -0.750965
H8    H     H_    0.397228 0.100063 0.235314 0.227071
H9    H     H_    0.252632 0.117310 0.323747 0.243324
H10   H     H_    0.460786 0.186599 0.325113 0.230314
N4    N     N_2   0.195349 0.403944 0.762429 -0.289713
H11   H     H_    0.079613 0.421697 0.792207 0.224124
C22   C     C_3   0.237596 0.246522 0.757390 -0.775294
H12   H     H_    0.253870 0.201657 0.817891 0.228090
H13   H     H_    0.353428 0.228830 0.717466 0.235672
H14   H     H_    0.136293 0.183744 0.732269 0.243995
N5    N     N_2   0.657542 0.409973 0.956519 -0.298076
H15   H     H_    0.614998 0.390435 0.901602 0.243207
C23   C     C_3   0.836164 0.419499 0.953587 -0.810798
H16   H     H_    0.879132 0.530866 0.930482 0.230683
H17   H     H_    0.893163 0.331270 0.913153 0.235989
H18   H     H_    0.877974 0.401030 0.013858 0.255892
N6    N     N_2   0.363219 0.713904 0.038404 -0.308842
H19   H     H_    0.411695 0.737574 0.091540 0.235846
C24   C     C_3   0.280097 0.840497 0.005965 -0.788617
H20   H     H_    0.191367 0.801827 0.963882 0.249461
H21   H     H_    0.372551 0.917661 0.974835 0.242057
H22   H     H_    0.208702 0.902478 0.055294 0.233423

loop_
_geom_bond_atom_site_label_1
_geom_bond_atom_site_label_2
_ccdc_geom_bond_type
C8    C18   A    
N4    H11   S    
C2    C4    S    
C18   N3    S    
C15   C17   A    
C20   N5    S    
N3    C21   S    
C9    C11   A    
C21   H8    S    
C21   H9    S    
C17   N4    S    
C22   H12   S    
O3    Zn2   S    
C15   H1    S    
C2    O2    A    
C16   H2    S    
C10   H6    S    
C19   C20   D    
C13   C15   A    
C9    H5    S    
C24   H20   S    
C22   H13   S    
C16   C18   A    
C23   H16   S    
C19   N6    S    
C23   H18   S    
C11   C13   A    
C12   H3    S    
N6    H19   S    
C10   C12   A    
N2    Zn1   S    
C5    O7    A    
C8    C10   A    
O8    Zn1   S    
C6    O8    A    
C22   H14   S    
C5    C7    S    
C23   H17   S    
C21   H10   S    
C14   C16   A    
C24   H21   S    
N6    C24   S    
C13   C19   S    
N1    Zn2   S    
N5    H15   S    
N3    H7    S    
C14   C20   S    
C11   H4    S    
C1    O3    A    
O7    Zn2   S    
N5    C23   S    
O2    Zn2   S    
C2    O4    A    
N4    C22   S    
O1    Zn1   S    
N1    N2    T    
C7    C9    A    
C24   H22   S    
C6    C8    S    
O4    Zn1   S    
C1    O1    A    
C7    C17   A    
O6    Zn2   S    
O5    Zn1   S    
C3    C4    T    
C6    O6    A    
C12   C14   A    
C1    C3    S    
C5    O5    A    
