data_mof_unit_51970.cif
_audit_creation_date              2012-12-10T17:22:41-0500
_audit_creation_method            fapswitch 2.2
_symmetry_space_group_name_H-M    P1
_symmetry_Int_Tables_number       1
_space_group_crystal_system       triclinic
_cell_length_a                    10.631077
_cell_length_b                    10.847439
_cell_length_c                    9.639581
_cell_angle_alpha                 90.716758
_cell_angle_beta                  89.680707
_cell_angle_gamma                 93.837325
_cell_volume                      1109.04461244

loop_
_atom_site_label
_atom_site_type_symbol
_atom_type_description
_atom_site_fract_x
_atom_site_fract_y
_atom_site_fract_z
_atom_type_partial_charge
C1    C     C_R   0.507660 0.263686 0.498973 0.777069
C2    C     C_3   0.960318 0.486460 0.369422 -0.127407
C3    C     C_3   0.034788 0.389939 0.444654 -0.175606
C4    C     C_3   0.122384 0.495616 0.502984 0.010141
C5    C     C_R   0.654998 0.140517 0.705979 -0.159726
C6    C     C_R   0.691530 0.086244 0.827912 -0.129448
C7    C     C_R   0.648127 0.965894 0.856649 -0.146751
C8    C     C_R   0.577487 0.896518 0.758253 -0.194454
C9    C     C_R   0.551566 0.945008 0.626034 0.114207
C10   C     C_R   0.576629 0.073303 0.609125 0.102625
C11   C     C_R   0.520771 0.131241 0.497103 -0.108907
C12   C     C_R   0.259485 0.497562 0.500672 0.783871
C13   C     C_R   0.464632 0.060927 0.388991 -0.201182
C14   C     C_R   0.458837 0.933555 0.393557 -0.215292
C15   C     C_R   0.500833 0.873493 0.510518 -0.088912
C16   C     C_R   0.705303 0.633378 0.136257 -0.039452
C17   C     C_R   0.817877 0.654973 0.057951 -0.040594
C18   C     C_R   0.807387 0.661580 0.915156 -0.220708
C19   C     C_R   0.692898 0.631804 0.853359 -0.216256
C20   C     C_R   0.596019 0.564711 0.924383 0.190620
C21   C     C_R   0.598784 0.564779 0.073238 0.100417
C22   C     C_R   0.408140 0.437785 0.073528 -0.040558
C23   C     C_R   0.499193 0.738059 0.502642 0.834761
C24   C     C_R   0.408406 0.437555 0.925986 -0.039471
C25   C     C_R   0.740530 0.499231 0.499688 0.805563
C26   C     C_3   0.040109 0.506139 0.633360 -0.133262
C27   C     C_3   0.950009 0.400525 0.574697 -0.175663
C28   C     C_3   0.877700 0.497237 0.499432 0.021029
C29   C     C_3   0.965613 0.602726 0.558146 -0.146428
C30   C     C_3   0.050312 0.592068 0.428351 -0.152804
Cu1   Cu    Cu3+1 0.499990 0.499990 0.640660 0.935791
Cu2   Cu    Cu3+1 0.500010 0.500010 0.359340 0.959800
H1    H     H_    0.906647 0.321964 0.634781 0.129844
H2    H     H_    0.668882 0.925988 0.955677 0.133143
H3    H     H_    0.537779 0.809325 0.793919 0.171665
H4    H     H_    0.417139 0.881681 0.306629 0.156969
H5    H     H_    0.332849 0.386355 0.127941 0.132185
H6    H     H_    0.884446 0.701091 0.852558 0.193926
H7    H     H_    0.683325 0.664433 0.750353 0.211167
H8    H     H_    0.333281 0.385886 0.871033 0.134411
H9    H     H_    0.075183 0.514163 0.741594 0.161201
H10   H     H_    0.934280 0.690364 0.602903 0.139825
H11   H     H_    0.099044 0.670063 0.371849 0.141745
H12   H     H_    0.924949 0.476181 0.261591 0.144249
H13   H     H_    0.066304 0.302891 0.398447 0.132672
H14   H     H_    0.423100 0.104567 0.301382 0.162364
H15   H     H_    0.689313 0.235054 0.688075 0.146207
H16   H     H_    0.749359 0.139206 0.902477 0.137986
N1    N     N_R   0.501210 0.501210 0.147910 -0.192761
N2    N     N_R   0.501250 0.501290 0.852040 -0.192924
O1    O     O_R   0.499990 0.319640 0.618810 -0.580955
O2    O     O_R   0.500000 0.319660 0.381240 -0.583852
O3    O     O_R   0.316850 0.499960 0.618770 -0.584483
O4    O     O_R   0.316860 0.499980 0.381190 -0.583148
O5    O     O_R   0.500000 0.680340 0.618760 -0.619054
O6    O     O_R   0.500010 0.680360 0.381190 -0.576142
O7    O     O_R   0.683140 0.500020 0.618810 -0.607865
O8    O     O_R   0.683150 0.500040 0.381230 -0.564939
C31   C     C_2   0.682757 0.741246 0.224172 0.401663
H17   H     H_    0.609657 0.800960 0.194870 0.061746
O9    O     O_2   0.745457 0.766270 0.327789 -0.597634
C32   C     C_2   0.939055 0.701843 0.121556 0.345328
H18   H     H_    0.944036 0.725875 0.230181 0.127763
O10   O     O_2   0.035835 0.713373 0.052655 -0.565318

loop_
_geom_bond_atom_site_label_1
_geom_bond_atom_site_label_2
_ccdc_geom_bond_type
C4    C26   S    
C23   O5    A    
C16   C21   A    
Cu1   O1    S    
C17   C32   S    
C4    C12   S    
C11   C13   A    
C9    C10   A    
C32   O10   D    
C19   C20   A    
C1    C11   S    
Cu2   O8    S    
C2    C30   S    
Cu1   O7    S    
C32   H18   S    
C15   C23   S    
C17   C18   A    
C18   H6    S    
C4    C30   S    
C31   H17   S    
C12   O4    A    
C13   C14   A    
Cu1   O3    S    
C25   C28   S    
C14   H4    S    
C1    O1    A    
C26   C27   S    
C29   C30   S    
C12   O3    A    
C6    H16   S    
C22   N1    A    
C5    C6    A    
C19   H7    S    
C21   N1    A    
C28   C29   S    
C24   H8    S    
C3    H13   S    
C2    C3    S    
C6    C7    A    
C3    C27   S    
C16   C31   S    
C24   N2    A    
C13   H14   S    
C29   H10   S    
C1    O2    A    
C22   C24   A    
C30   H11   S    
C31   O9    D    
Cu2   N1    S    
C10   C11   A    
Cu1   N2    S    
C5    C10   A    
C3    C4    S    
C5    H15   S    
C16   C17   A    
C25   O7    A    
C23   O6    A    
C7    H2    S    
C26   H9    S    
C26   C29   S    
C18   C19   A    
C25   O8    A    
Cu2   O4    S    
C27   C28   S    
C7    C8    A    
C2    C28   S    
Cu2   O2    S    
C20   N2    A    
Cu1   O5    S    
C20   C21   A    
C14   C15   A    
C22   H5    S    
Cu2   O6    S    
C27   H1    S    
Cu1   Cu2   S    
C9    C15   A    
C2    H12   S    
C8    C9    A    
C8    H3    S    
