data_mof_unit_22351.cif
_audit_creation_date              2012-12-11T21:20:24-0500
_audit_creation_method            fapswitch 2.2
_symmetry_space_group_name_H-M    P1
_symmetry_Int_Tables_number       1
_space_group_crystal_system       triclinic
_cell_length_a                    8.242365
_cell_length_b                    18.728436
_cell_length_c                    19.034028
_cell_angle_alpha                 103.396272
_cell_angle_beta                  92.38513
_cell_angle_gamma                 91.401978
_cell_volume                      2854.03693026

loop_
_atom_site_label
_atom_site_type_symbol
_atom_type_description
_atom_site_fract_x
_atom_site_fract_y
_atom_site_fract_z
_atom_type_partial_charge
Ba1   Ba    Ba6+2 0.155460 0.532000 0.467920 1.639436
Ba2   Ba    Ba6+2 0.654730 0.467990 0.532020 1.653302
C1    C     C_3   0.354811 0.706845 0.213221 -0.371335
C2    C     C_R   0.087377 0.908043 0.567491 -0.091970
C3    C     C_R   0.233668 0.044020 0.542025 -0.099005
C4    C     C_3   0.915367 0.727825 0.327027 0.369522
C5    C     C_R   0.070682 0.021055 0.520938 0.002479
C6    C     C_R   0.290645 0.114856 0.542660 -0.049455
C7    C     C_R   0.186496 0.166282 0.524145 -0.042393
C8    C     C_R   0.030330 0.141448 0.492650 0.003880
C9    C     C_R   0.972393 0.068388 0.490536 0.023778
C10   C     C_R   0.233376 0.241513 0.535357 -0.033664
C11   C     C_R   0.128174 0.289482 0.511474 -0.283645
C12   C     C_3   0.386419 0.684930 0.284602 0.365865
C13   C     C_R   0.983608 0.264025 0.471579 0.048378
C14   C     C_R   0.933271 0.189203 0.462189 -0.029640
C15   C     C_R   0.848932 0.926847 0.495601 0.024345
C16   C     C_3   0.943383 0.801232 0.307368 -0.364007
C17   C     C_R   0.787832 0.855208 0.497608 -0.002065
C18   C     C_R   0.880869 0.809563 0.532754 -0.042631
C19   C     C_R   0.024870 0.839379 0.571340 -0.022534
C20   C     C_R   0.789734 0.160221 0.422780 -0.032866
C21   C     C_R   0.731529 0.089672 0.421666 -0.098024
C22   C     C_R   0.816612 0.043486 0.458350 0.015442
C23   C     C_3   0.497529 0.698334 0.649610 0.313995
C24   C     C_R   0.753570 0.972764 0.461727 0.020055
C25   C     C_R   0.595339 0.947165 0.434555 -0.107152
C26   C     C_R   0.633053 0.829525 0.464984 -0.032911
C27   C     C_R   0.537204 0.877296 0.435904 -0.097259
C28   C     C_3   0.810683 0.368051 0.310017 0.317866
C29   C     C_R   0.578591 0.756839 0.462640 -0.008691
C30   C     C_R   0.678085 0.710649 0.491902 -0.300243
C31   C     C_R   0.826295 0.735870 0.528329 0.032226
C32   C     C_R   0.354226 0.532687 0.810603 -0.149003
C33   C     C_R   0.318757 0.524934 0.736311 0.030153
C34   C     C_3   0.501643 0.781806 0.671070 -0.389703
C35   C     C_R   0.173341 0.428519 0.807030 -0.156562
C36   C     C_R   0.105974 0.436891 0.740963 -0.004113
C37   C     C_R   0.634476 0.562003 0.192554 -0.158477
C38   C     C_R   0.700582 0.559400 0.260554 0.003501
C39   C     C_R   0.459637 0.458049 0.196653 -0.160903
C40   C     C_3   0.794527 0.346621 0.227915 -0.398776
C41   C     C_R   0.488158 0.473715 0.272251 0.056545
C42   C     C_R   0.291393 0.480078 0.846917 0.011354
C43   C     C_R   0.190562 0.478715 0.702748 -0.200711
C44   C     C_R   0.521244 0.506699 0.155417 0.000997
C45   C     C_3   0.870061 0.290625 0.743570 0.319069
C46   C     C_R   0.615902 0.521998 0.303126 -0.245308
C47   C     C_R   0.082007 0.438284 0.960732 -0.079394
C48   C     C_R   0.987424 0.416170 0.011133 -0.080714
C49   C     C_R   0.035600 0.437161 0.083273 -0.064574
C50   C     C_R   0.183026 0.474954 0.103128 -0.080874
C51   C     C_R   0.299960 0.479052 0.052258 0.013204
C52   C     C_3   0.997773 0.632564 0.690363 0.317520
C53   C     C_R   0.245148 0.465051 0.977768 0.039865
C54   C     C_R   0.464477 0.500303 0.075884 -0.016057
C55   C     C_R   0.571873 0.512421 0.022205 0.036771
C56   C     C_3   0.871903 0.281535 0.821407 -0.423036
C57   C     C_R   0.517144 0.498983 0.947596 0.013359
C58   C     C_R   0.351268 0.479586 0.924508 -0.017934
C59   C     C_R   0.735836 0.537144 0.039633 -0.078695
C60   C     C_R   0.832124 0.558802 0.989685 -0.081521
C61   C     C_R   0.783951 0.539308 0.917438 -0.072936
C62   C     C_R   0.634688 0.502966 0.896478 -0.080626
C63   C     C_3   0.015690 0.654614 0.772478 -0.387501
C64   C     C_3   0.306933 0.304440 0.363844 0.321008
C65   C     C_3   0.303356 0.220967 0.340825 -0.394758
C66   C     C_3   0.184029 0.159830 0.709283 0.106918
C67   C     C_3   0.368573 0.254549 0.702899 0.880069
C68   C     C_3   0.418702 0.289974 0.781722 -0.235430
C69   C     C_R   0.005190 0.951771 0.527186 0.009934
H1    H     H_    0.328938 0.629625 0.280301 0.075286
H2    H     H_    0.182393 0.322838 0.375287 0.003521
H3    H     H_    0.387827 0.322091 0.413311 0.064034
H4    H     H_    0.222528 0.711334 0.202570 0.155150
H5    H     H_    0.220720 0.201762 0.292128 0.123790
H6    H     H_    0.259546 0.196730 0.384654 0.056003
H7    H     H_    0.427449 0.201593 0.328203 0.118951
H8    H     H_    0.519590 0.683302 0.294266 -0.063310
H9    H     H_    0.401526 0.664966 0.168132 0.069511
H10   H     H_    0.623049 0.680025 0.638994 0.013941
H11   H     H_    0.418817 0.680498 0.599431 0.062651
H12   H     H_    0.694233 0.304848 0.209913 0.123873
H13   H     H_    0.581842 0.801781 0.720445 0.124979
H14   H     H_    0.549104 0.804444 0.626676 0.058468
H15   H     H_    0.377135 0.801643 0.681832 0.119899
H16   H     H_    0.416825 0.760631 0.215141 0.106899
H17   H     H_    0.888512 0.845505 0.347515 0.074092
H18   H     H_    0.816570 0.239683 0.707112 0.075778
H19   H     H_    0.996195 0.295542 0.726783 -0.062510
H20   H     H_    0.788362 0.235490 0.825553 0.101875
H21   H     H_    0.995612 0.269222 0.839474 0.080742
H22   H     H_    0.833728 0.332462 0.858749 0.130962
H23   H     H_    0.767954 0.395565 0.206620 0.062398
H24   H     H_    0.257465 0.281906 0.688335 -0.254885
H25   H     H_    0.520148 0.260161 0.800276 0.102460
H26   H     H_    0.316422 0.288140 0.817299 0.020905
H27   H     H_    0.975165 0.730428 0.381003 0.079794
H28   H     H_    0.459189 0.348024 0.787228 0.086768
H29   H     H_    0.164718 0.346815 0.519721 0.067039
H30   H     H_    0.415940 0.129443 0.560320 0.121434
H31   H     H_    0.092935 0.809881 0.604483 0.097235
H32   H     H_    0.718299 0.191674 0.392822 0.098254
H33   H     H_    0.415177 0.861707 0.413963 0.112075
H34   H     H_    0.909883 0.323814 0.205777 0.124437
H35   H     H_    0.636186 0.654779 0.488936 0.074848
H36   H     H_    0.320713 0.007911 0.557926 0.079925
H37   H     H_    0.199113 0.926614 0.598633 0.060985
H38   H     H_    0.619406 0.072784 0.390494 0.058688
H39   H     H_    0.782303 0.718997 0.329773 -0.082773
H40   H     H_    0.511105 0.980243 0.412513 0.069946
H41   H     H_    0.437912 0.576634 0.838060 0.069920
H42   H     H_    0.132738 0.381781 0.825992 0.054647
H43   H     H_    0.676499 0.606020 0.169184 0.066469
H44   H     H_    0.380851 0.411249 0.171641 0.071279
H45   H     H_    0.113525 0.611654 0.668469 -0.003419
H46   H     H_    0.148148 0.479716 0.648417 0.050223
H47   H     H_    0.656731 0.526468 0.358787 0.067806
H48   H     H_    0.016184 0.438712 0.911606 0.068075
H49   H     H_    0.866650 0.392178 0.995469 0.072988
H50   H     H_    0.953475 0.429212 0.123807 0.091563
H51   H     H_    0.075392 0.814051 0.306822 0.148923
H52   H     H_    0.206268 0.500888 0.158765 0.130881
H53   H     H_    0.798950 0.536637 0.089644 0.079801
H54   H     H_    0.953345 0.582026 0.005860 0.079021
H55   H     H_    0.867774 0.548160 0.877940 0.101537
H56   H     H_    0.901936 0.588628 0.674663 0.097996
H57   H     H_    0.610698 0.479065 0.839827 0.128629
H58   H     H_    0.886066 0.799396 0.253103 0.107439
H59   H     H_    0.693492 0.387665 0.331462 0.003431
H60   H     H_    0.904806 0.412827 0.326203 0.085942
H61   H     H_    0.171144 0.099331 0.701062 0.082976
H62   H     H_    0.094889 0.176198 0.671014 0.026256
H63   H     H_    0.156271 0.184131 0.766111 0.025853
H64   H     H_    0.116669 0.696165 0.789744 0.125537
H65   H     H_    0.042129 0.605975 0.794364 0.065040
H66   H     H_    0.901079 0.678015 0.794902 0.125629
O1    O     O_2   0.114280 0.679350 0.549180 -0.461554
O2    O     O_2   0.803198 0.490703 0.750099 -0.506495
O3    O     O_3   0.771912 0.349452 0.736825 -0.559562
O4    O     O_3   0.866400 0.589600 0.543550 -0.496395
O5    O     O_3   0.444420 0.455520 0.411210 -0.489474
O6    O     O_2   0.612810 0.550740 0.677950 -0.452146
O7    O     O_3   0.436138 0.670614 0.706115 -0.641140
O8    O     O_2   0.567970 0.247876 0.527414 -0.483646
O9    O     O_3   0.499585 0.265949 0.661050 -0.576158
O10   O     O_3   0.362150 0.623490 0.415650 -0.481480
O11   O     O_2   0.244463 0.753151 0.473221 -0.486352
O12   O     O_3   0.364336 0.332383 0.307132 -0.632989
O13   O     O_3   0.957073 0.694143 0.664481 -0.642564
O14   O     O_3   0.319460 0.736822 0.340086 -0.603075
O15   O     O_2   0.197490 0.449210 0.322030 -0.471277
O16   O     O_3   0.950520 0.583920 0.376610 -0.473652
O17   O     O_2   0.024257 0.529684 0.246202 -0.508591
O18   O     O_3   0.344833 0.177893 0.695347 -0.664248
O19   O     O_3   0.981863 0.672021 0.274660 -0.593414
O20   O     O_2   0.696020 0.320600 0.450800 -0.462100
O21   O     O_3   0.943900 0.410390 0.456390 -0.499246
O22   O     O_3   0.448150 0.376500 0.584290 -0.458570
O23   O     O_3   0.853495 0.306424 0.335452 -0.642122
O24   O     O_3   0.365880 0.544470 0.588730 -0.480351
O25   O     O_3   0.859790 0.416060 0.623340 -0.451255
P1    P     P_3+3 0.941030 0.670050 0.569830 0.966555
P2    P     P_3+3 0.370400 0.428500 0.331430 0.977134
P3    P     P_3+3 0.912294 0.587484 0.287864 0.931488
P4    P     P_3+3 0.869270 0.329940 0.430110 0.970780
P5    P     P_3+3 0.888463 0.419964 0.714881 0.958309
P6    P     P_3+3 0.377582 0.718044 0.423245 0.939589
P7    P     P_3+3 0.431390 0.574563 0.680193 0.945587
P8    P     P_3+3 0.433044 0.281493 0.577214 0.986115

loop_
_geom_bond_atom_site_label_1
_geom_bond_atom_site_label_2
_ccdc_geom_bond_type
Ba2   O6    S    
O22   P8    S    
C25   C27   A    
C32   H41   S    
C68   H25   S    
C17   C18   A    
C65   H6    S    
C66   O18   S    
Ba2   O25   S    
C52   O13   S    
C52   C63   S    
C68   H28   S    
C5    C9    A    
O13   P1    S    
C2    H37   S    
C57   C62   A    
C67   O18   S    
C59   H53   S    
C48   H49   S    
C15   C24   A    
C4    H27   S    
C66   H62   S    
C31   P1    S    
C56   H22   S    
C22   C24   A    
C32   C33   A    
C5    C69   A    
C50   H52   S    
C55   C57   A    
C35   H42   S    
C13   C14   A    
C64   H3    S    
C9    C22   A    
C54   C55   A    
Ba1   O15   S    
Ba1   Ba2   S    
C55   C59   A    
C66   H61   S    
C36   C43   A    
Ba1   O5    S    
C45   H18   S    
Ba1   P2    S    
Ba2   O22   S    
C62   H57   S    
C52   H45   S    
C45   O3    S    
C39   C44   A    
O17   P3    D    
O1    P1    D    
O23   P4    S    
C1    H4    S    
C56   H20   S    
Ba2   P4    S    
C68   H26   S    
O24   P7    S    
C41   P2    S    
O3    P5    S    
C64   C65   S    
C25   H40   S    
C57   C58   A    
C30   H35   S    
C53   C58   A    
C23   H10   S    
C67   O9    S    
C4    H39   S    
C59   C60   A    
C65   H7    S    
C35   C36   A    
C39   H44   S    
C4    C16   S    
C1    H9    S    
Ba2   O24   S    
C40   H34   S    
C51   C53   A    
C36   P5    S    
C21   H38   S    
C1    H16   S    
C49   C50   A    
C61   H55   S    
C32   C42   A    
O6    P7    D    
C64   O12   S    
C8    C9    A    
C37   C38   A    
C3    C5    A    
C6    C7    A    
C46   H47   S    
C23   C34   S    
C34   H15   S    
C28   H59   S    
C64   H2    S    
O7    P7    S    
C16   H17   S    
C20   H32   S    
O25   P5    S    
C27   H33   S    
O11   P6    D    
C12   O14   S    
C28   O23   S    
C60   C61   A    
C60   H54   S    
C29   C30   A    
Ba2   O21   S    
C37   H43   S    
C48   C49   A    
C24   C25   A    
C13   P4    S    
O12   P2    S    
O15   P2    D    
C12   H8    S    
C29   P6    S    
Ba1   O16   S    
C17   C26   A    
C38   P3    S    
C63   H64   S    
C1    C12   S    
C16   H51   S    
C37   C44   A    
C18   C31   A    
C15   C69   A    
O9    P8    S    
C23   H11   S    
C49   H50   S    
C45   H19   S    
Ba1   O10   S    
C23   O7    S    
C19   H31   S    
C33   C43   A    
C50   C51   A    
O21   P4    S    
O2    P5    D    
C3    H36   S    
C51   C54   A    
C43   H46   S    
C38   C46   A    
O8    P8    D    
C26   C27   A    
C14   C20   A    
O16   P3    S    
C40   H23   S    
C12   H1    S    
C26   C29   A    
C40   H12   S    
C34   H13   S    
C67   H24   S    
O20   P4    D    
C3    C6    A    
C10   P8    S    
O4    P1    S    
C6    H30   S    
C34   H14   S    
C52   H56   S    
C39   C41   A    
C41   C46   A    
C30   C31   A    
C11   H29   S    
C11   C13   A    
C63   H66   S    
C47   C53   A    
C45   C56   S    
O5    P2    S    
C2    C19   A    
Ba1   O21   S    
C47   H48   S    
O19   P3    S    
C42   C58   S    
Ba2   O20   S    
Ba2   O5    S    
C66   H63   S    
C28   H60   S    
C15   C17   A    
C33   P7    S    
C7    C8    A    
C67   C68   S    
C7    C10   A    
C63   H65   S    
Ba1   O4    S    
O10   P6    S    
C21   C22   A    
Ba1   O24   S    
C61   C62   A    
C35   C42   A    
C18   C19   A    
Ba1   P1    S    
C47   C48   A    
C44   C54   S    
Ba2   O4    S    
C20   C21   A    
C28   C40   S    
C16   H58   S    
C8    C14   A    
C65   H5    S    
C10   C11   A    
C56   H21   S    
C2    C69   A    
C4    O19   S    
Ba1   O1    S    
O14   P6    S    
