data_mof_unit_41392.cif
_audit_creation_date              2012-10-26T18:50:26-0400
_audit_creation_method            fapswitch 2.2
_symmetry_space_group_name_H-M    P1
_symmetry_Int_Tables_number       1
_space_group_crystal_system       triclinic
_cell_length_a                    9.641435
_cell_length_b                    10.866991
_cell_length_c                    15.629859
_cell_angle_alpha                 85.735842
_cell_angle_beta                  72.305487
_cell_angle_gamma                 90.299241
_cell_volume                      1555.13376945

loop_
_atom_site_label
_atom_site_type_symbol
_atom_type_description
_atom_site_fract_x
_atom_site_fract_y
_atom_site_fract_z
_atom_type_partial_charge
C1    C     C_R   0.995760 0.262197 0.507869 0.567060
C2    C     C_R   0.238386 0.335309 0.071812 -0.029406
C3    C     C_R   0.334826 0.393793 0.109245 -0.024795
C4    C     C_R   0.915237 0.498642 0.672721 0.621650
C5    C     C_R   0.090387 0.316660 0.123473 0.288424
C6    C     C_R   0.036250 0.371558 0.205445 0.413697
C7    C     C_R   0.278678 0.445957 0.191616 -0.136852
C8    C     C_R   0.155394 0.122728 0.617057 0.172803
C9    C     C_R   0.275199 0.069120 0.634240 -0.073304
C10   C     C_R   0.297948 0.945271 0.623077 0.423158
C11   C     C_R   0.194274 0.874062 0.600940 0.271385
C12   C     C_R   0.675707 0.432564 0.916650 0.017012
C13   C     C_R   0.089749 0.931732 0.563593 -0.050468
C14   C     C_R   0.078899 0.062221 0.567157 -0.004658
C15   C     C_R   0.985796 0.127238 0.525930 0.039832
C16   C     C_R   0.996271 0.735924 0.510381 0.615886
C17   C     C_R   0.883810 0.062383 0.498777 -0.108586
C18   C     C_R   0.883199 0.935355 0.502578 -0.073881
C19   C     C_R   0.990959 0.868358 0.527315 0.033019
C20   C     C_R   0.717850 0.611773 0.347239 0.251813
C21   C     C_R   0.690385 0.614942 0.264773 0.257167
C22   C     C_R   0.547709 0.623317 0.265284 0.332212
C23   C     C_R   0.780091 0.449283 0.962529 -0.037370
C24   C     C_R   0.436911 0.617051 0.347473 0.216089
C25   C     C_R   0.462039 0.559501 0.426929 0.058904
C26   C     C_R   0.611309 0.558515 0.426862 0.081312
C27   C     C_R   0.539580 0.443741 0.568523 0.060230
C28   C     C_R   0.082954 0.486183 0.329691 0.621477
C29   C     C_R   0.392306 0.444478 0.568759 0.082155
C30   C     C_R   0.865461 0.486216 0.773026 -0.003973
C31   C     C_R   0.130407 0.439726 0.238827 0.005006
C32   C     C_R   0.925616 0.480506 0.913404 0.282153
C33   C     C_R   0.969193 0.487634 0.819916 0.438852
C34   C     C_R   0.531601 0.391174 0.967849 0.087009
C35   C     C_R   0.715881 0.469156 0.823257 0.215627
C36   C     C_R   0.484986 0.403826 0.061486 0.011349
C37   C     C_R   0.590268 0.419477 0.105412 -0.035481
C38   C     C_R   0.736111 0.436393 0.056683 0.013892
C39   C     C_R   0.436165 0.328815 0.931314 0.456054
C40   C     C_R   0.292986 0.297687 0.983909 0.015856
Cl1   Cl    Cl    0.971645 0.221136 0.089307 -0.465264
Cl2   Cl    Cl    0.073328 0.236722 0.688097 -0.555250
Cl3   Cl    Cl    0.172914 0.725750 0.654778 -0.374250
Cl4   Cl    Cl    0.829513 0.739672 0.347579 -0.458367
Cl5   Cl    Cl    0.829351 0.660752 0.163681 -0.345956
Cl6   Cl    Cl    0.319960 0.740186 0.347171 -0.415382
Cl7   Cl    Cl    0.056392 0.520133 0.965434 -0.413871
Cl8   Cl    Cl    0.579716 0.528316 0.777661 -0.397163
Cu1   Cu    Cu3+1 0.140660 0.499990 0.500010 1.123806
Cu2   Cu    Cu3+1 0.859340 0.500010 0.499990 1.125533
F1    F     F_    0.403617 0.890345 0.652064 -0.531157
F2    F     F_    0.520915 0.669063 0.188580 -0.533424
F3    F     F_    0.893673 0.353422 0.253951 -0.608061
F4    F     F_    0.113875 0.501380 0.775714 -0.501128
F5    F     F_    0.484492 0.286467 0.848100 -0.570907
H1    H     H_    0.813520 0.441977 0.093678 0.234724
H2    H     H_    0.806218 0.110159 0.471574 0.171511
H3    H     H_    0.338552 0.118378 0.668064 0.192044
H4    H     H_    0.801010 0.890377 0.480926 0.212213
H5    H     H_    0.566205 0.395787 0.624319 0.185778
H6    H     H_    0.349727 0.495502 0.218783 0.189659
H7    H     H_    0.310355 0.398914 0.625503 0.213237
H8    H     H_    0.223987 0.249011 0.953651 0.222531
H9    H     H_    0.562109 0.411035 0.178037 0.123032
N1    N     N_R   0.648320 0.501210 0.499140 -0.239073
N2    N     N_R   0.352470 0.501290 0.499110 -0.233123
O1    O     O_R   0.118810 0.319640 0.500010 -0.503362
O2    O     O_R   0.881240 0.319660 0.500000 -0.515474
O3    O     O_R   0.055570 0.499980 0.629840 -0.398255
O4    O     O_R   0.818000 0.500010 0.629830 -0.479650
O5    O     O_R   0.118760 0.680340 0.500000 -0.423632
O6    O     O_R   0.881190 0.680360 0.499990 -0.459432
O7    O     O_R   0.182000 0.499990 0.370170 -0.517144
O8    O     O_R   0.944430 0.500020 0.370160 -0.427055

loop_
_geom_bond_atom_site_label_1
_geom_bond_atom_site_label_2
_ccdc_geom_bond_type
C27   C29   A    
C16   O6    A    
Cu1   O7    S    
C28   O8    A    
C4    O4    A    
C12   C23   A    
C40   H8    S    
C30   C35   A    
C36   C37   A    
C8    Cl2   S    
C18   C19   A    
C3    C7    A    
C27   H5    S    
Cu2   O8    S    
C5    C6    A    
C35   Cl8   S    
C1    O2    A    
C9    H3    S    
Cu2   O6    S    
C7    H6    S    
C39   F5    S    
C8    C9    A    
C11   Cl3   S    
C1    C15   S    
C9    C10   A    
C28   O7    A    
C6    C31   A    
Cu1   O3    S    
C21   C22   A    
C16   O5    A    
C10   F1    S    
C4    O3    A    
C20   Cl4   S    
C21   Cl5   S    
C7    C31   A    
Cu1   N2    S    
C13   C19   A    
C34   C39   A    
C24   C25   A    
C39   C40   A    
C25   C26   A    
C37   C38   A    
C27   N1    A    
C17   C18   A    
C12   C35   A    
C32   Cl7   S    
C22   C24   A    
C2    C5    A    
C6    F3    S    
C12   C34   A    
C37   H9    S    
C22   F2    S    
C33   F4    S    
C15   C17   A    
C5    Cl1   S    
C29   H7    S    
C8    C14   A    
Cu1   O1    S    
C30   C33   A    
C26   N1    A    
C28   C31   S    
C25   N2    A    
C23   C38   A    
C24   Cl6   S    
C23   C32   A    
C2    C3    A    
Cu2   O4    S    
C32   C33   A    
C11   C13   A    
C20   C26   A    
C3    C36   A    
C16   C19   S    
C1    O1    A    
C34   C36   A    
Cu2   N1    S    
C10   C11   A    
C29   N2    A    
C2    C40   A    
C18   H4    S    
C38   H1    S    
C20   C21   A    
Cu1   Cu2   S    
Cu1   O5    S    
C14   C15   A    
C13   C14   A    
Cu2   O2    S    
C4    C30   S    
C17   H2    S    
