data_mof_unit_68323.cif
_audit_creation_date              2012-12-11T15:44:56-0500
_audit_creation_method            fapswitch 2.2
_symmetry_space_group_name_H-M    P1
_symmetry_Int_Tables_number       1
_space_group_crystal_system       triclinic
_cell_length_a                    19.19069
_cell_length_b                    10.995466
_cell_length_c                    18.763041
_cell_angle_alpha                 90.242816
_cell_angle_beta                  90.205635
_cell_angle_gamma                 90.035129
_cell_volume                      3959.13831865

loop_
_atom_site_label
_atom_site_type_symbol
_atom_type_description
_atom_site_fract_x
_atom_site_fract_y
_atom_site_fract_z
_atom_type_partial_charge
C1    C     C_R   0.762252 0.528214 0.644473 0.511460
C2    C     C_R   0.180491 0.088401 0.550516 -0.151635
C3    C     C_R   0.540411 0.920496 0.954800 0.028121
C4    C     C_R   0.975058 0.234631 0.966323 -0.090417
C5    C     C_R   0.980469 0.241021 0.040585 -0.188001
C6    C     C_R   0.475057 0.734630 0.966323 -0.090406
C7    C     C_R   0.480469 0.741021 0.040585 -0.187990
C8    C     C_3   0.046137 0.562257 0.027551 -0.195332
C9    C     C_3   0.045653 0.555323 0.946691 -0.231757
C10   C     C_3   0.546139 0.062255 0.027551 -0.195325
C11   C     C_3   0.545655 0.055321 0.946690 -0.231757
C12   C     C_R   0.762480 0.527440 0.854092 0.567626
C13   C     C_R   0.299511 0.670584 0.440404 -0.115067
C14   C     C_R   0.240643 0.534892 0.149025 0.594442
C15   C     C_R   0.262482 0.027436 0.854094 0.567600
C16   C     C_R   0.740643 0.034893 0.149025 0.594439
C17   C     C_R   0.789211 0.169209 0.860401 0.577407
C18   C     C_R   0.227522 0.124483 0.147703 0.593824
C19   C     C_R   0.289211 0.669208 0.860401 0.577418
C20   C     C_R   0.727522 0.624483 0.147703 0.593822
C21   C     C_R   0.969919 0.346010 0.853295 0.561557
C22   C     C_R   0.030616 0.347218 0.146044 0.535829
C23   C     C_R   0.469919 0.846010 0.853295 0.561565
C24   C     C_R   0.680491 0.588403 0.550517 -0.151640
C25   C     C_R   0.530616 0.847218 0.146044 0.535827
C26   C     C_R   0.748467 0.084022 0.424128 0.026309
C27   C     C_R   0.249007 0.084485 0.576798 0.021869
C28   C     C_R   0.248466 0.584024 0.424128 0.026313
C29   C     C_R   0.749007 0.584485 0.576798 0.021894
C30   C     C_R   0.711014 0.031508 0.479295 -0.024786
C31   C     C_R   0.303834 0.117325 0.532242 -0.011210
C32   C     C_R   0.211015 0.531512 0.479297 -0.024778
C33   C     C_R   0.803835 0.617318 0.532242 -0.011229
C34   C     C_R   0.722941 0.063211 0.549531 0.047750
C35   C     C_3   0.706864 0.900214 0.497490 -0.216944
C36   C     C_R   0.291952 0.136789 0.461045 0.047352
C37   C     C_R   0.222949 0.563212 0.549532 0.047737
C38   C     C_R   0.791953 0.636782 0.461044 0.047332
C39   C     C_3   0.750550 0.822649 0.672020 -0.009398
C40   C     C_3   0.733900 0.906886 0.734893 -0.280880
C41   C     C_3   0.698057 0.839077 0.795262 -0.432592
C42   C     C_3   0.363460 0.977112 0.328047 0.006163
C43   C     C_3   0.350371 0.857959 0.287801 -0.263796
C44   C     C_3   0.354224 0.875048 0.207237 -0.435934
C45   C     C_3   0.250591 0.322646 0.672008 -0.009430
C46   C     C_3   0.371267 0.055413 0.517151 -0.190066
C47   C     C_3   0.233994 0.406877 0.734899 -0.280806
C48   C     C_3   0.198030 0.339133 0.795220 -0.432571
C49   C     C_3   0.863453 0.477098 0.328045 0.006168
C50   C     C_3   0.850368 0.357942 0.287801 -0.263797
C51   C     C_3   0.854219 0.375031 0.207237 -0.435943
C52   C     C_3   0.994410 0.906461 0.350199 -0.004434
C53   C     C_3   0.958834 0.823694 0.295307 -0.268587
C54   C     C_3   0.005764 0.799458 0.231247 -0.406309
C55   C     C_3   0.944785 0.873585 0.614016 0.012624
C56   C     C_3   0.990256 0.851259 0.680152 -0.295297
C57   C     C_3   0.206862 0.400218 0.497494 -0.216929
C58   C     C_3   0.948700 0.865154 0.748902 -0.432684
C59   C     C_3   0.494397 0.406476 0.350188 -0.004426
C60   C     C_3   0.458835 0.323677 0.295304 -0.268592
C61   C     C_3   0.505762 0.299474 0.231238 -0.406287
C62   C     C_3   0.444794 0.373602 0.614026 0.012619
C63   C     C_3   0.490307 0.351250 0.680129 -0.295441
C64   C     C_3   0.448846 0.365501 0.748919 -0.432554
C65   C     C_3   0.871264 0.555394 0.517149 -0.190066
C66   C     C_3   0.712438 0.935889 0.575182 0.157650
C67   C     C_3   0.357485 0.075999 0.438027 0.143579
C68   C     C_3   0.212451 0.435891 0.575185 0.157634
C69   C     C_R   0.239219 0.534271 0.353443 0.523097
C70   C     C_3   0.857484 0.575983 0.438026 0.143580
C71   C     C_R   0.776141 0.144227 0.566280 0.049133
C72   C     C_R   0.225029 0.130125 0.433183 0.042238
C73   C     C_R   0.276144 0.644234 0.566280 0.049142
C74   C     C_R   0.725029 0.630123 0.433183 0.042245
C75   C     C_R   0.007991 0.350458 0.430367 0.011472
C76   C     C_R   0.010210 0.332970 0.580035 -0.033192
C77   C     C_R   0.507991 0.850461 0.430367 0.011473
C78   C     C_R   0.510208 0.832970 0.580034 -0.033189
C79   C     C_R   0.970746 0.137041 0.423275 -0.139295
C80   C     C_R   0.262252 0.028213 0.644472 0.511449
C81   C     C_R   0.997613 0.108739 0.567315 -0.146701
C82   C     C_R   0.470739 0.637052 0.423270 -0.139292
C83   C     C_R   0.497606 0.608734 0.567309 -0.146740
C84   C     C_R   0.970377 0.019563 0.451866 0.304775
C85   C     C_R   0.982736 0.005173 0.525047 0.289970
C86   C     C_R   0.470364 0.519573 0.451856 0.304791
C87   C     C_R   0.482722 0.505172 0.525036 0.289989
C88   C     C_R   0.000226 0.226816 0.537676 -0.062160
C89   C     C_R   0.992719 0.238609 0.463460 -0.063745
C90   C     C_R   0.500223 0.726815 0.537673 -0.062149
C91   C     C_R   0.739219 0.034272 0.353442 0.523096
C92   C     C_R   0.492716 0.738613 0.463458 -0.063744
C93   C     C_R   0.030700 0.442648 0.547757 -0.011195
C94   C     C_R   0.022889 0.456436 0.473664 0.016966
C95   C     C_R   0.530697 0.942651 0.547757 -0.011205
C96   C     C_R   0.522888 0.956439 0.473664 0.016970
C97   C     C_R   0.791598 0.171414 0.639347 0.564878
C98   C     C_R   0.211233 0.163491 0.361133 0.547083
C99   C     C_R   0.291600 0.671419 0.639347 0.564853
C100  C     C_R   0.711234 0.663490 0.361133 0.547079
C101  C     C_R   0.056282 0.541532 0.589415 -0.120391
C102  C     C_R   0.813178 0.201002 0.511552 -0.142463
C103  C     C_R   0.030711 0.577247 0.446676 -0.084706
C104  C     C_R   0.556274 0.041539 0.589415 -0.120395
C105  C     C_R   0.530711 0.077249 0.446676 -0.084700
C106  C     C_R   0.071948 0.652651 0.559092 -0.103197
C107  C     C_R   0.057594 0.671290 0.488098 -0.079878
C108  C     C_R   0.571937 0.152660 0.559094 -0.103195
C109  C     C_R   0.557587 0.171296 0.488098 -0.079878
C110  C     C_R   0.759482 0.095945 0.082447 -0.041820
C111  C     C_R   0.257359 0.059957 0.928898 -0.038314
C112  C     C_R   0.259481 0.595943 0.082446 -0.041818
C113  C     C_R   0.168659 0.110394 0.478819 -0.167048
C114  C     C_R   0.757358 0.559960 0.928898 -0.038318
C115  C     C_R   0.815022 0.047478 0.043462 -0.019731
C116  C     C_R   0.196497 0.027173 0.962858 0.114240
C117  C     C_R   0.315020 0.547473 0.043461 -0.019726
C118  C     C_R   0.696498 0.527166 0.962859 0.114241
C119  C     C_R   0.824699 0.074675 0.972858 -0.189734
C120  C     C_R   0.190239 0.035005 0.035218 -0.065891
C121  C     C_R   0.324697 0.574671 0.972857 -0.189735
C122  C     C_R   0.690241 0.534995 0.035219 -0.065896
C123  C     C_R   0.727145 0.211652 0.977081 0.347577
C124  C     C_R   0.313176 0.701017 0.511551 -0.142447
C125  C     C_R   0.310630 0.094154 0.046048 0.430338
C126  C     C_R   0.227145 0.711653 0.977081 0.347576
C127  C     C_R   0.810630 0.594160 0.046047 0.430342
C128  C     C_R   0.720062 0.189090 0.050772 0.326684
C129  C     C_R   0.316514 0.087211 0.971447 0.371284
C130  C     C_R   0.220062 0.689089 0.050772 0.326686
C131  C     C_R   0.816512 0.587221 0.971445 0.371275
C132  C     C_3   0.834672 0.917652 0.030983 0.770276
C133  C     C_3   0.124531 0.070437 0.949256 0.719301
C134  C     C_3   0.334669 0.417647 0.030982 0.770270
C135  C     C_R   0.668659 0.610395 0.478820 -0.167045
C136  C     C_3   0.624529 0.570418 0.949259 0.719303
C137  C     C_3   0.847593 0.948571 0.954046 -0.124444
C138  C     C_3   0.117102 0.081124 0.029097 -0.130699
C139  C     C_3   0.347589 0.448566 0.954044 -0.124450
C140  C     C_3   0.617101 0.581102 0.029100 -0.130686
C141  C     C_R   0.778371 0.149793 0.936766 -0.045214
C142  C     C_R   0.245171 0.077314 0.077701 -0.021193
C143  C     C_R   0.278370 0.649791 0.936766 -0.045221
C144  C     C_R   0.745172 0.577312 0.077701 -0.021204
C145  C     C_R   0.973556 0.344616 0.648755 0.522928
C146  C     C_R   0.799515 0.170574 0.440406 -0.115070
C147  C     C_R   0.031361 0.348636 0.355057 0.519247
C148  C     C_R   0.473556 0.844616 0.648754 0.522945
C149  C     C_R   0.531362 0.848637 0.355057 0.519247
C150  C     C_R   0.011589 0.343170 0.071796 0.020344
C151  C     C_R   0.999203 0.331449 0.923442 0.105714
C152  C     C_R   0.511590 0.843169 0.071796 0.020353
C153  C     C_R   0.499203 0.831448 0.923442 0.105715
C154  C     C_R   0.044523 0.426967 0.027340 0.021855
C155  C     C_R   0.040410 0.420498 0.954800 0.028137
C156  C     C_R   0.544524 0.926965 0.027339 0.021861
Cr1   Cr    Cr6+3 0.885860 0.491680 0.749630 1.010689
Cr2   Cr    Cr6+3 0.112430 0.179310 0.249850 0.992206
Cr3   Cr    Cr6+3 0.387570 0.679310 0.750150 0.969109
Cr4   Cr    Cr6+3 0.612430 0.679310 0.249850 0.992204
Cr5   Cr    Cr6+3 0.114140 0.491680 0.250370 1.014741
Cr6   Cr    Cr6+3 0.385860 0.991680 0.749630 1.010735
Cr7   Cr    Cr6+3 0.614140 0.991680 0.250370 1.014744
Cr8   Cr    Cr6+3 0.730490 0.332970 0.748720 1.052800
Cr9   Cr    Cr6+3 0.269510 0.332970 0.251280 1.060718
Cr10  Cr    Cr6+3 0.230490 0.832970 0.748720 1.052832
Cr11  Cr    Cr6+3 0.769510 0.832970 0.251280 1.060716
Cr12  Cr    Cr6+3 0.887570 0.179310 0.750150 0.969209
F1    F     F_    0.679727 0.283329 0.944314 -0.581382
F2    F     F_    0.082070 0.982351 0.918996 -0.562223
F3    F     F_    0.278673 0.340125 0.039616 -0.625732
F4    F     F_    0.582073 0.482325 0.918999 -0.562252
F5    F     F_    0.894088 0.883336 0.067768 -0.567501
F6    F     F_    0.122995 0.180399 0.913829 -0.667845
F7    F     F_    0.394085 0.383329 0.067766 -0.567503
F8    F     F_    0.622985 0.680380 0.913834 -0.667872
F9    F     F_    0.366484 0.128107 0.085972 -0.586806
F10   F     F_    0.179729 0.783334 0.944315 -0.581383
F11   F     F_    0.866483 0.628119 0.085969 -0.586797
F12   F     F_    0.671749 0.251024 0.089150 -0.624577
F13   F     F_    0.378677 0.112263 0.941237 -0.620599
F14   F     F_    0.171750 0.751024 0.089150 -0.624572
F15   F     F_    0.878673 0.612285 0.941235 -0.620608
F16   F     F_    0.778677 0.840129 0.039617 -0.625726
H1    H     H_    0.854845 0.263123 0.524103 0.119786
H2    H     H_    0.113685 0.176590 0.047873 0.139730
H3    H     H_    0.519090 0.386146 0.204260 0.176255
H4    H     H_    0.478189 0.239533 0.192556 0.214748
H5    H     H_    0.410894 0.292962 0.605885 0.177006
H6    H     H_    0.408938 0.450329 0.623145 0.203328
H7    H     H_    0.511301 0.257389 0.678377 0.159648
H8    H     H_    0.534999 0.415409 0.681285 0.171443
H9    H     H_    0.428555 0.459617 0.753791 0.187733
H10   H     H_    0.483219 0.347090 0.795374 0.193989
H11   H     H_    0.404759 0.300117 0.749868 0.140705
H12   H     H_    0.403512 0.444675 0.938952 0.168108
H13   H     H_    0.613678 0.676566 0.047877 0.139729
H14   H     H_    0.811421 0.901598 0.916497 0.145766
H15   H     H_    0.078457 0.017049 0.052078 0.180679
H16   H     H_    0.311417 0.401595 0.916496 0.145766
H17   H     H_    0.578460 0.517019 0.052081 0.180685
H18   H     H_    0.948352 0.158022 0.942808 0.164914
H19   H     H_    0.960514 0.167690 0.073056 0.142266
H20   H     H_    0.448351 0.658022 0.942808 0.164904
H21   H     H_    0.115955 0.109819 0.458570 0.136546
H22   H     H_    0.460513 0.667690 0.073056 0.142258
H23   H     H_    0.095252 0.596160 0.050268 0.218873
H24   H     H_    0.999737 0.599080 0.922150 0.249973
H25   H     H_    0.595255 0.096156 0.050268 0.218871
H26   H     H_    0.499741 0.099080 0.922149 0.249977
H27   H     H_    0.998102 0.603081 0.050262 0.244140
H28   H     H_    0.096178 0.582315 0.922668 0.177763
H29   H     H_    0.498105 0.103081 0.050261 0.244142
H30   H     H_    0.596181 0.082310 0.922667 0.177755
H31   H     H_    0.831180 0.208718 0.399128 0.135885
H32   H     H_    0.354839 0.763145 0.524099 0.119789
H33   H     H_    0.136784 0.066616 0.584324 0.139769
H34   H     H_    0.331173 0.708732 0.399124 0.135882
H35   H     H_    0.636783 0.566622 0.584325 0.139730
H36   H     H_    0.253864 0.353799 0.477446 0.170702
H37   H     H_    0.871370 0.459127 0.533750 0.151406
H38   H     H_    0.753872 0.853800 0.477452 0.170694
H39   H     H_    0.371378 0.959146 0.533752 0.151403
H40   H     H_    0.656129 0.859340 0.482406 0.098829
H41   H     H_    0.415529 0.109619 0.538188 0.141080
H42   H     H_    0.156123 0.359348 0.482419 0.098832
H43   H     H_    0.615955 0.609822 0.458571 0.136540
H44   H     H_    0.915530 0.609591 0.538186 0.141054
H45   H     H_    0.662579 0.923189 0.603142 0.094463
H46   H     H_    0.394532 0.141253 0.413789 0.110512
H47   H     H_    0.162600 0.423202 0.603164 0.094448
H48   H     H_    0.894533 0.641233 0.413788 0.110493
H49   H     H_    0.953082 0.148818 0.369090 0.119422
H50   H     H_    0.011610 0.095302 0.622453 0.136420
H51   H     H_    0.453075 0.648836 0.369085 0.119416
H52   H     H_    0.511601 0.595289 0.622448 0.136412
H53   H     H_    0.013248 0.605930 0.395025 0.137288
H54   H     H_    0.095072 0.724681 0.590738 0.148614
H55   H     H_    0.068420 0.530976 0.645487 0.121980
H56   H     H_    0.513251 0.105931 0.395024 0.137286
H57   H     H_    0.568413 0.030984 0.645487 0.121970
H58   H     H_    0.794533 0.764007 0.688377 0.161705
H59   H     H_    0.705210 0.762219 0.660903 0.122557
H60   H     H_    0.783589 0.943218 0.755266 0.223140
H61   H     H_    0.699973 0.983338 0.718097 0.185449
H62   H     H_    0.687403 0.903012 0.839907 0.180516
H63   H     H_    0.732262 0.765383 0.815176 0.177360
H64   H     H_    0.647822 0.799804 0.776606 0.182930
H65   H     H_    0.067019 0.759602 0.465315 0.159009
H66   H     H_    0.418922 0.002724 0.322349 0.136978
H67   H     H_    0.332135 0.047574 0.301862 0.186694
H68   H     H_    0.390212 0.790400 0.303719 0.144270
H69   H     H_    0.297727 0.822574 0.300992 0.183947
H70   H     H_    0.307935 0.925871 0.188343 0.171885
H71   H     H_    0.354930 0.784955 0.180241 0.141644
H72   H     H_    0.401846 0.926126 0.192585 0.183826
H73   H     H_    0.294573 0.263979 0.688339 0.161693
H74   H     H_    0.205237 0.262238 0.660909 0.122576
H75   H     H_    0.283717 0.443017 0.755315 0.222956
H76   H     H_    0.595052 0.224695 0.590744 0.148597
H77   H     H_    0.200161 0.483461 0.718104 0.185716
H78   H     H_    0.187477 0.403046 0.839904 0.180505
H79   H     H_    0.232110 0.265219 0.815091 0.177490
H80   H     H_    0.147727 0.300151 0.776529 0.182748
H81   H     H_    0.918914 0.502718 0.322345 0.136974
H82   H     H_    0.832123 0.547555 0.301861 0.186697
H83   H     H_    0.890212 0.290389 0.303719 0.144272
H84   H     H_    0.797726 0.322551 0.300992 0.183946
H85   H     H_    0.807933 0.425862 0.188344 0.171882
H86   H     H_    0.854920 0.284940 0.180241 0.141649
H87   H     H_    0.567010 0.259610 0.465315 0.159002
H88   H     H_    0.901843 0.426103 0.192583 0.183814
H89   H     H_    0.044814 0.865631 0.366491 0.131975
H90   H     H_    0.006310 0.993369 0.322862 0.132492
H91   H     H_    0.945338 0.735626 0.319998 0.135005
H92   H     H_    0.909854 0.867202 0.276635 0.206207
H93   H     H_    0.054446 0.753300 0.248482 0.156286
H94   H     H_    0.019128 0.886124 0.204280 0.176252
H95   H     H_    0.978175 0.739558 0.192554 0.214767
H96   H     H_    0.910907 0.792925 0.605848 0.177006
H97   H     H_    0.908909 0.950292 0.623112 0.203320
H98   H     H_    0.903516 0.944682 0.938954 0.168112
H99   H     H_    0.011383 0.757498 0.678350 0.159700
H100  H     H_    0.034854 0.915601 0.681418 0.171391
H101  H     H_    0.928211 0.959126 0.753798 0.187664
H102  H     H_    0.983061 0.846889 0.795385 0.193929
H103  H     H_    0.904752 0.799495 0.749771 0.140834
H104  H     H_    0.544806 0.365673 0.366488 0.131972
H105  H     H_    0.506283 0.493383 0.322843 0.132490
H106  H     H_    0.445366 0.235601 0.320000 0.134970
H107  H     H_    0.409841 0.367143 0.276638 0.206226
H108  H     H_    0.554463 0.253375 0.248468 0.156287
O1    O     O_R   0.957020 0.451640 0.669920 -0.524614
O2    O     O_R   0.168040 0.093290 0.169870 -0.523875
O3    O     O_R   0.331960 0.593290 0.830130 -0.569423
O4    O     O_R   0.668040 0.593290 0.169870 -0.523878
O5    O     O_R   0.945600 0.250580 0.824860 -0.511075
O6    O     O_R   0.054400 0.250580 0.175140 -0.510337
O7    O     O_R   0.445600 0.750580 0.824860 -0.511139
O8    O     O_R   0.554400 0.750580 0.175140 -0.510340
O9    O     O_3   0.834640 0.334650 0.749500 -0.300352
O10   O     O_3   0.165360 0.334650 0.250500 -0.276018
O11   O     O_3   0.334640 0.834650 0.749500 -0.300351
O12   O     O_R   0.042980 0.451640 0.330080 -0.549594
O13   O     O_3   0.665360 0.834650 0.250500 -0.276015
O14   O     O_R   0.821450 0.543440 0.674610 -0.525765
O15   O     O_R   0.178550 0.543440 0.325390 -0.507494
O16   O     O_R   0.321450 0.043440 0.674610 -0.525766
O17   O     O_R   0.678550 0.043440 0.325390 -0.507488
O18   O     O_R   0.715320 0.458650 0.668100 -0.532250
O19   O     O_R   0.284680 0.458650 0.331900 -0.520156
O20   O     O_R   0.215320 0.958650 0.668100 -0.532214
O21   O     O_R   0.784680 0.958650 0.331900 -0.520171
O22   O     O_R   0.737170 0.209590 0.674530 -0.524796
O23   O     O_R   0.457020 0.951640 0.669920 -0.524620
O24   O     O_R   0.262830 0.209590 0.325470 -0.537067
O25   O     O_R   0.237170 0.709590 0.674530 -0.524840
O26   O     O_R   0.762830 0.709590 0.325470 -0.537066
O27   O     O_R   0.832710 0.092740 0.669580 -0.524390
O28   O     O_R   0.167290 0.092740 0.330420 -0.522891
O29   O     O_R   0.332710 0.592740 0.669580 -0.524362
O30   O     O_R   0.667290 0.592740 0.330420 -0.522890
O31   O     O_R   0.946290 0.250060 0.676040 -0.525662
O32   O     O_R   0.053710 0.250060 0.323960 -0.528961
O33   O     O_R   0.446290 0.750060 0.676040 -0.525704
O34   O     O_R   0.542980 0.951640 0.330080 -0.549597
O35   O     O_R   0.553710 0.750060 0.323960 -0.528960
O36   O     O_R   0.956270 0.452200 0.830470 -0.497231
O37   O     O_R   0.043730 0.452200 0.169530 -0.514997
O38   O     O_R   0.456270 0.952200 0.830470 -0.497209
O39   O     O_R   0.543730 0.952200 0.169530 -0.514999
O40   O     O_R   0.820760 0.543950 0.823440 -0.466812
O41   O     O_R   0.179240 0.543950 0.176560 -0.464514
O42   O     O_R   0.320760 0.043950 0.823440 -0.466786
O43   O     O_R   0.679240 0.043950 0.176560 -0.464514
O44   O     O_R   0.714570 0.459210 0.828640 -0.433775
O45   O     O_R   0.736470 0.210100 0.823360 -0.442887
O46   O     O_R   0.285430 0.459210 0.171360 -0.461526
O47   O     O_R   0.214570 0.959210 0.828640 -0.433769
O48   O     O_R   0.785430 0.959210 0.171360 -0.461522
O49   O     O_3   0.771524 0.887638 0.610413 -0.561762
O50   O     O_3   0.345178 0.965041 0.400829 -0.573307
O51   O     O_3   0.271548 0.387641 0.610398 -0.561749
O52   O     O_3   0.845173 0.465026 0.400828 -0.573303
O53   O     O_3   0.950684 0.919694 0.410730 -0.546036
O54   O     O_3   0.986473 0.888008 0.552445 -0.578428
O55   O     O_3   0.450667 0.419711 0.410716 -0.546012
O56   O     O_R   0.263530 0.210100 0.176640 -0.408095
O57   O     O_3   0.486441 0.387999 0.552426 -0.578404
O58   O     O_R   0.236470 0.710100 0.823360 -0.442888
O59   O     O_R   0.763530 0.710100 0.176640 -0.408091
O60   O     O_R   0.831960 0.093290 0.830130 -0.569445

loop_
_geom_bond_atom_site_label_1
_geom_bond_atom_site_label_2
_ccdc_geom_bond_type
C22   C150  S    
C20   C144  S    
C60   H106  S    
C28   C69   S    
C136  C140  S    
C91   O21   A    
C62   H6    S    
Cr6   O42   S    
C25   C152  S    
Cr8   O44   S    
Cr3   O3    S    
Cr4   O4    S    
C106  C107  A    
C23   O38   A    
C37   C68   S    
C29   C33   A    
C126  C143  A    
C108  C109  A    
C67   O50   S    
C152  C156  A    
C128  F12   S    
C151  C155  A    
C8    H27   S    
C12   C114  S    
C68   H47   S    
C78   C148  S    
C16   O43   A    
C43   H69   S    
C59   C60   S    
C54   H94   S    
C82   H51   S    
C32   C57   S    
C7    H22   S    
C87   O57   S    
C17   O45   A    
C91   O17   A    
C27   C31   A    
C28   C32   A    
C93   C101  A    
C13   C124  A    
C44   H72   S    
C74   C100  S    
C116  C133  S    
C35   C66   S    
C132  C137  S    
C72   C113  A    
C61   H4    S    
C47   H77   S    
C119  C137  S    
Cr7   O13   S    
C43   C44   S    
C90   C92   A    
C70   O52   S    
C123  C141  A    
C1    C29   S    
C154  C155  A    
C40   H60   S    
C71   C102  A    
C42   H67   S    
Cr4   O35   S    
C23   C153  S    
C119  C141  A    
C145  O31   A    
C120  C138  S    
C134  C139  S    
C118  C136  S    
C14   O41   A    
C50   H83   S    
C94   C103  A    
C4    C5    A    
C10   H29   S    
C6    C7    A    
C59   H105  S    
C33   C38   A    
Cr8   O45   S    
C109  H87   S    
C49   O52   S    
C25   O8    A    
Cr5   O37   S    
C3    C156  A    
C126  F10   S    
C127  C131  A    
C6    C153  A    
C3    C11   S    
C11   H30   S    
C7    C152  A    
C125  C129  A    
C60   H107  S    
C88   C89   A    
Cr3   O29   S    
C31   C36   A    
C103  C107  A    
Cr9   O56   S    
Cr2   O10   S    
C110  C128  A    
C1    O18   A    
C136  F8    S    
C41   H62   S    
C61   H3    S    
C34   C66   S    
C40   H61   S    
C45   H74   S    
C49   H82   S    
C14   C112  S    
C71   C97   S    
C135  H43   S    
C56   H99   S    
C21   O5    A    
Cr7   O43   S    
C12   O40   A    
C79   C84   A    
Cr8   O18   S    
C84   O53   S    
C14   O46   A    
C63   H8    S    
Cr9   O19   S    
C64   H11   S    
C97   O27   A    
Cr10  O20   S    
C98   O28   A    
C118  C122  A    
C99   O25   A    
C31   C46   S    
C64   H10   S    
Cr2   O28   S    
C13   H34   S    
C138  H15   S    
Cr1   O40   S    
C51   H88   S    
Cr3   O7    S    
C149  O35   A    
Cr11  O48   S    
C39   H59   S    
C115  C132  S    
C30   C34   A    
C81   C88   A    
C27   C80   S    
C39   C40   S    
C139  H16   S    
C52   H90   S    
C116  C120  A    
Cr12  O31   S    
C113  H21   S    
C8    H23   S    
C114  C118  A    
C32   C37   A    
C137  H14   S    
C104  H57   S    
C2    C27   A    
C45   O51   S    
C26   C30   A    
C115  C119  A    
C41   H64   S    
C97   O22   A    
C57   C68   S    
C16   O48   A    
C52   C53   S    
C55   H97   S    
C38   C74   A    
C101  C106  A    
C105  C109  A    
C5    H19   S    
C15   O47   A    
C42   O50   S    
C57   H36   S    
C48   H79   S    
C86   O55   S    
C127  F11   S    
C39   H58   S    
C122  C140  S    
C35   H40   S    
Cr11  O59   S    
C52   O53   S    
Cr11  O13   S    
C46   H41   S    
C56   C58   S    
C21   C151  S    
Cr9   O46   S    
C79   C89   A    
C10   C11   S    
C75   C89   A    
C63   C64   S    
C55   H96   S    
C9    C155  S    
C49   C50   S    
C51   H86   S    
C112  C130  A    
C81   C85   A    
C36   C72   A    
C83   C87   A    
C96   C105  A    
C38   C70   S    
C54   H95   S    
C100  O30   A    
C101  H55   S    
C114  C131  A    
C65   H37   S    
C16   C110  S    
C17   O60   A    
C59   O55   S    
C78   C90   A    
C66   H45   S    
Cr5   O41   S    
C19   O58   A    
C138  H2    S    
C20   O59   A    
C11   H26   S    
C58   H102  S    
C112  C117  A    
Cr4   O13   S    
C126  C130  A    
C9    H28   S    
C12   O44   A    
Cr3   O33   S    
C82   C92   A    
C17   C141  S    
Cr1   O1    S    
C83   C90   A    
C24   C29   A    
Cr2   O6    S    
C37   C73   A    
Cr9   O10   S    
C131  F15   S    
C111  C129  A    
C53   H92   S    
Cr2   O32   S    
C136  F4    S    
C47   H75   S    
C85   O54   S    
C13   C28   A    
C111  C116  A    
C146  H31   S    
C45   C47   S    
C18   O2    A    
C133  C138  S    
Cr7   O39   S    
C22   O6    A    
Cr12  O27   S    
C69   O19   A    
C117  C134  S    
C80   O16   A    
C62   H5    S    
Cr8   O22   S    
C50   H84   S    
C102  H1    S    
C134  F7    S    
C84   C85   A    
C79   H49   S    
C35   H38   S    
C77   C149  S    
C86   C87   A    
C22   O37   A    
C75   C147  S    
C26   C91   S    
C53   C54   S    
C46   H39   S    
Cr7   O34   S    
C60   C61   S    
C140  H13   S    
C6    H20   S    
C62   C63   S    
C76   C93   A    
C99   O29   A    
C4    H18   S    
C78   C95   A    
Cr1   O36   S    
C74   C135  A    
C66   O49   S    
C50   C51   S    
Cr3   O11   S    
Cr5   O10   S    
C19   O3    A    
Cr12  O60   S    
C76   C145  S    
C54   H93   S    
Cr1   O14   S    
Cr12  O9    S    
C20   O4    A    
C15   O42   A    
C42   C43   S    
C104  C108  A    
C23   O7    A    
C139  H12   S    
C147  O12   A    
C77   C96   A    
C9    H24   S    
C44   H71   S    
C45   H73   S    
C49   H81   S    
C61   H108  S    
C59   H104  S    
C56   H100  S    
Cr10  O58   S    
C80   O20   A    
Cr8   O9    S    
C82   C86   A    
C140  H17   S    
C132  F16   S    
C121  C139  S    
Cr10  O11   S    
Cr6   O38   S    
C63   H7    S    
C48   H78   S    
C127  C144  A    
Cr6   O23   S    
C70   H48   S    
C148  O33   A    
C5    C150  A    
C21   O36   A    
C24   H35   S    
C46   C67   S    
C83   H52   S    
C42   H66   S    
Cr4   O30   S    
C106  H54   S    
Cr11  O26   S    
C81   H50   S    
C110  C115  A    
C100  O26   A    
C65   C70   S    
C75   C94   A    
C77   C92   A    
C93   C94   A    
Cr5   O15   S    
C121  C143  A    
Cr6   O16   S    
C95   C96   A    
C122  C144  A    
C149  O34   A    
C133  F2    S    
C36   C67   S    
C33   C65   S    
C72   C98   S    
C30   C35   S    
C2    C113  A    
Cr9   O24   S    
C39   O49   S    
C3    C153  A    
C26   C146  A    
Cr5   O12   S    
C117  C121  A    
Cr6   O11   S    
C43   H68   S    
C67   H46   S    
C8    C9    S    
C2    H33   S    
Cr10  O47   S    
Cr7   O17   S    
C8    C154  S    
C133  F6    S    
C76   C88   A    
C18   O56   A    
Cr10  O25   S    
C41   H63   S    
C58   H103  S    
C107  H65   S    
Cr11  O21   S    
C15   C111  S    
C18   C142  S    
C120  C142  A    
Cr2   O2    S    
C130  F14   S    
C62   O57   S    
C10   C156  S    
C68   O51   S    
C48   H80   S    
C65   H44   S    
C10   H25   S    
C47   C48   S    
C125  C142  A    
C103  H53   S    
C73   C124  A    
C64   H9    S    
C55   C56   S    
C69   O15   A    
C123  F1    S    
C57   H42   S    
C24   C135  A    
C40   C41   S    
C55   O54   S    
C134  F3    S    
C51   H85   S    
C125  F9    S    
C108  H76   S    
C95   C104  A    
C124  H32   S    
C73   C99   S    
C4    C151  A    
C129  F13   S    
C19   C143  S    
Cr1   O9    S    
C137  H98   S    
C52   H89   S    
C1    O14   A    
Cr4   O8    S    
C147  O32   A    
C145  O1    A    
C102  C146  A    
C148  O23   A    
C44   H70   S    
C123  C128  A    
Cr12  O5    S    
C105  H56   S    
C132  F5    S    
C53   H91   S    
C150  C154  A    
C98   O24   A    
C34   C71   A    
C25   O39   A    
C58   H101  S    
