data_mof_unit_61144.cif
_audit_creation_date              2012-12-10T17:17:17-0500
_audit_creation_method            fapswitch 2.2
_symmetry_space_group_name_H-M    P1
_symmetry_Int_Tables_number       1
_space_group_crystal_system       triclinic
_cell_length_a                    18.757374
_cell_length_b                    18.757256
_cell_length_c                    18.855537
_cell_angle_alpha                 109.610969
_cell_angle_beta                  109.384274
_cell_angle_gamma                 109.33062
_cell_volume                      5112.41206078

loop_
_atom_site_label
_atom_site_type_symbol
_atom_type_description
_atom_site_fract_x
_atom_site_fract_y
_atom_site_fract_z
_atom_type_partial_charge
C1    C     C_R   0.118950 0.119012 0.500049 0.775936
C2    C     C_R   0.263366 0.087126 0.758457 0.099628
C3    C     C_R   0.191648 0.006350 0.686215 -0.098972
C4    C     C_R   0.183555 0.927706 0.680931 -0.199351
C5    C     C_R   0.244729 0.927759 0.746986 -0.200176
C6    C     C_R   0.315022 0.006458 0.819844 -0.097616
C7    C     C_R   0.179336 0.177670 0.421242 -0.173102
C8    C     C_R   0.242650 0.242531 0.421221 -0.178733
C9    C     C_R   0.314093 0.314405 0.500098 -0.010913
C10   C     C_R   0.321286 0.322137 0.578981 -0.173569
C11   C     C_R   0.256413 0.258807 0.578971 -0.177699
C12   C     C_R   0.121188 0.002319 0.618764 0.788388
C13   C     C_R   0.185801 0.186067 0.500104 -0.005349
C14   C     C_R   0.746974 0.924527 0.241369 -0.235119
C15   C     C_R   0.681987 0.924299 0.178663 -0.239991
C16   C     C_R   0.687339 0.003061 0.187150 -0.085139
C17   C     C_R   0.757793 0.083494 0.260002 0.192849
C18   C     C_R   0.818646 0.083203 0.328078 0.196326
C19   C     C_R   0.814923 0.003162 0.316140 -0.090454
C20   C     C_R   0.769362 0.726193 0.432363 -0.183865
C21   C     C_R   0.704612 0.660896 0.430831 0.258647
C22   C     C_R   0.685060 0.683581 0.498344 -0.058632
C23   C     C_R   0.881003 0.880760 0.500060 0.803106
C24   C     C_R   0.730221 0.769720 0.566194 -0.220879
C25   C     C_R   0.794058 0.834355 0.566735 -0.171169
C26   C     C_R   0.813919 0.812977 0.499795 -0.086082
C27   C     C_R   0.499960 0.881105 0.881091 0.778856
C28   C     C_R   0.381229 0.002403 0.883539 0.785703
C29   C     C_R   0.500101 0.118978 0.119001 0.777795
C30   C     C_R   0.619149 0.000642 0.119201 0.834861
C31   C     C_R   0.499897 0.619005 0.618829 0.776786
C32   C     C_R   0.381079 0.381228 0.500098 0.778667
C33   C     C_R   0.500274 0.381296 0.381300 0.775828
C34   C     C_R   0.881346 0.000769 0.381464 0.833788
C35   C     C_R   0.618634 0.618364 0.499749 0.782683
C36   C     C_R   0.578973 0.822364 0.820394 -0.177324
C37   C     C_R   0.578957 0.757606 0.756882 -0.177849
C38   C     C_R   0.499780 0.686052 0.685465 -0.008040
C39   C     C_R   0.420613 0.678629 0.678297 -0.176755
C40   C     C_R   0.420655 0.741919 0.743320 -0.175003
C41   C     C_R   0.499840 0.814171 0.814065 -0.007477
C42   C     C_R   0.496204 0.255739 0.176887 -0.183236
C43   C     C_R   0.494584 0.318977 0.240254 -0.180171
C44   C     C_R   0.500759 0.314514 0.314578 -0.009139
C45   C     C_R   0.277106 0.167778 0.762993 -0.171046
C46   C     C_R   0.506886 0.245694 0.324555 -0.178713
C47   C     C_R   0.505196 0.180665 0.259610 -0.174305
C48   C     C_R   0.500491 0.186028 0.186070 -0.000452
C49   C     C_R   0.345268 0.246504 0.836840 -0.138106
C50   C     C_R   0.400910 0.246612 0.907341 -0.138094
C51   C     C_R   0.390625 0.167983 0.903168 -0.171966
C52   C     C_R   0.323888 0.087204 0.827677 0.100000
Cu1   Cu    Cu3+1 0.999980 0.061790 0.561790 0.947064
Cu2   Cu    Cu3+1 0.000020 0.938210 0.438210 0.946292
Cu3   Cu    Cu3+1 0.438200 0.938230 0.000040 0.949994
Cu4   Cu    Cu3+1 0.561800 0.061850 0.000040 0.947415
Cu5   Cu    Cu3+1 0.438190 0.500100 0.438300 0.948396
Cu6   Cu    Cu3+1 0.561810 0.500080 0.561880 0.948055
H1    H     H_    0.128744 0.865814 0.625877 0.154127
H2    H     H_    0.262005 0.265759 0.640269 0.128052
H3    H     H_    0.743026 0.862948 0.232633 0.163804
H4    H     H_    0.628564 0.862626 0.122125 0.160435
H5    H     H_    0.783820 0.709003 0.380004 0.163926
H6    H     H_    0.715429 0.786909 0.618337 0.136454
H7    H     H_    0.828109 0.900816 0.619691 0.160928
H8    H     H_    0.640485 0.877956 0.875097 0.137694
H9    H     H_    0.236392 0.171086 0.709490 0.139460
H10   H     H_    0.640444 0.763897 0.762637 0.136292
H11   H     H_    0.359126 0.623225 0.623367 0.138632
H12   H     H_    0.359179 0.735390 0.737813 0.136746
H13   H     H_    0.492517 0.260279 0.120140 0.126906
H14   H     H_    0.490025 0.372052 0.232046 0.142495
H15   H     H_    0.511245 0.241490 0.381628 0.142522
H16   H     H_    0.508971 0.127065 0.267245 0.138199
H17   H     H_    0.354519 0.307682 0.839583 0.131739
H18   H     H_    0.452706 0.307878 0.965309 0.133168
H19   H     H_    0.434742 0.171496 0.960036 0.139471
H20   H     H_    0.237823 0.865887 0.740632 0.151705
H21   H     H_    0.124685 0.121803 0.359957 0.140292
H22   H     H_    0.236817 0.235982 0.359944 0.140447
H23   H     H_    0.376191 0.377780 0.640260 0.138273
O1    O     O_R   0.090150 0.142360 0.552170 -0.588044
O2    O     O_R   0.552230 0.962090 0.909900 -0.585560
O3    O     O_R   0.357630 0.947820 0.909860 -0.583314
O4    O     O_R   0.462000 0.052220 0.909860 -0.587237
O5    O     O_R   0.447770 0.037990 0.090190 -0.583991
O6    O     O_R   0.552150 0.142390 0.090190 -0.587349
O7    O     O_R   0.538000 0.947860 0.090220 -0.592773
O8    O     O_R   0.642370 0.052260 0.090230 -0.567786
O9    O     O_R   0.447810 0.590260 0.538090 -0.582059
O10   O     O_R   0.552200 0.590240 0.642450 -0.587202
O11   O     O_R   0.357640 0.409920 0.447920 -0.585470
O12   O     O_R   0.090180 0.037990 0.447810 -0.584718
O13   O     O_R   0.462030 0.409900 0.552280 -0.584619
O14   O     O_R   0.447800 0.409940 0.357730 -0.590434
O15   O     O_R   0.552190 0.409920 0.462090 -0.585346
O16   O     O_R   0.537970 0.590270 0.447900 -0.589218
O17   O     O_R   0.642360 0.590260 0.552260 -0.579824
O18   O     O_R   0.090170 0.052200 0.642360 -0.589510
O19   O     O_R   0.090200 0.947840 0.538010 -0.581305
O20   O     O_R   0.909820 0.962010 0.552190 -0.590183
O21   O     O_R   0.909850 0.857640 0.447830 -0.595228
O22   O     O_R   0.909800 0.052160 0.461990 -0.560327
O23   O     O_R   0.909830 0.947800 0.357640 -0.596137
O24   O     O_R   0.447850 0.857690 0.909890 -0.588842
N1    N     N_2   0.764808 0.163419 0.265261 -0.428786
H24   H     H_    0.776556 0.208357 0.323452 0.250458
C53   C     C_3   0.820432 0.202006 0.235228 -0.646505
H25   H     H_    0.890008 0.229698 0.281906 0.195200
H26   H     H_    0.810914 0.255321 0.228766 0.225486
H27   H     H_    0.804489 0.152939 0.170987 0.245015
N2    N     N_2   0.884720 0.162507 0.407111 -0.423382
H28   H     H_    0.916734 0.213360 0.399593 0.250468
C54   C     C_3   0.858788 0.188691 0.471485 -0.643631
H29   H     H_    0.811781 0.211160 0.451441 0.194632
H30   H     H_    0.917160 0.243129 0.534350 0.223546
H31   H     H_    0.828051 0.133776 0.481299 0.244802
N3    N     N_2   0.659921 0.573494 0.361037 -0.444664
H32   H     H_    0.596921 0.535628 0.345463 0.250098
C55   C     C_3   0.709605 0.528841 0.366335 -0.701730
H33   H     H_    0.672153 0.463604 0.307019 0.233997
H34   H     H_    0.722359 0.520118 0.423919 0.231469
H35   H     H_    0.772427 0.566160 0.370799 0.235663

loop_
_geom_bond_atom_site_label_1
_geom_bond_atom_site_label_2
_ccdc_geom_bond_type
C32   O13   A    
Cu3   Cu4   S    
C43   H14   S    
Cu5   O11   S    
C28   O3    A    
Cu6   O17   S    
N2    C54   S    
C54   H29   S    
Cu5   Cu6   S    
C7    C8    A    
C32   O11   A    
Cu1   Cu2   S    
Cu1   O18   S    
C22   C35   S    
C21   N3    S    
C40   H12   S    
Cu3   O24   S    
Cu2   O23   S    
C36   C37   A    
C18   N2    S    
C5    C6    A    
C36   H8    S    
C23   O21   A    
N1    H24   S    
C27   O24   A    
C16   C30   S    
C15   C16   A    
C37   H10   S    
C53   H25   S    
C18   C19   A    
C23   C26   S    
Cu3   O7    S    
Cu6   O15   S    
N3    H32   S    
C12   O18   A    
C3    C12   S    
C9    C32   S    
C6    C28   S    
C44   C46   A    
C16   C17   A    
Cu2   O12   S    
C45   H9    S    
C49   H17   S    
C35   O17   A    
Cu6   O10   S    
C55   H35   S    
N1    C53   S    
C24   H6    S    
C21   C22   A    
Cu1   O22   S    
Cu2   O19   S    
C36   C41   A    
C30   O8    A    
C33   O14   A    
N2    H28   S    
C55   H34   S    
C50   C51   A    
C2    C45   A    
C38   C39   A    
C29   O6    A    
Cu5   O9    S    
C29   C48   S    
C51   C52   A    
C25   H7    S    
C24   C25   A    
Cu1   O20   S    
C39   C40   A    
C8    C9    A    
Cu4   O6    S    
C1    O1    A    
C14   H3    S    
C34   O23   A    
Cu1   O1    S    
C43   C44   A    
C51   H19   S    
C37   C38   A    
C50   H18   S    
C27   C41   S    
C47   C48   A    
C45   C49   A    
C31   O9    A    
Cu5   O16   S    
C17   C18   A    
C39   H11   S    
C42   C48   A    
C29   O5    A    
C2    C52   A    
Cu4   O8    S    
C31   O10   A    
C22   C24   A    
C1    C13   S    
C42   C43   A    
C30   O7    A    
C3    C4    A    
C33   O15   A    
C55   H33   S    
Cu4   O2    S    
C7    H21   S    
C9    C10   A    
C46   C47   A    
C40   C41   A    
C33   C44   S    
C14   C19   A    
Cu2   O21   S    
C47   H16   S    
C4    C5    A    
C19   C34   S    
C54   H30   S    
C53   H27   S    
C10   H23   S    
C34   O22   A    
Cu3   O3    S    
C31   C38   S    
Cu3   O5    S    
C27   O2    A    
C2    C3    A    
C25   C26   A    
C17   N1    S    
C11   C13   A    
Cu4   O4    S    
C23   O20   A    
C20   C26   A    
C20   H5    S    
C4    H1    S    
C42   H13   S    
C15   H4    S    
C53   H26   S    
Cu6   O13   S    
N3    C55   S    
C12   O19   A    
C54   H31   S    
C10   C11   A    
C7    C13   A    
C20   C21   A    
C1    O12   A    
C49   C50   A    
Cu5   O14   S    
C28   O4    A    
C8    H22   S    
C14   C15   A    
C6    C52   A    
C5    H20   S    
C35   O16   A    
C46   H15   S    
C11   H2    S    
