data_mof_unit_53253.cif
_audit_creation_date              2012-12-10T17:05:16-0500
_audit_creation_method            fapswitch 2.2
_symmetry_space_group_name_H-M    P1
_symmetry_Int_Tables_number       1
_space_group_crystal_system       triclinic
_cell_length_a                    10.096728
_cell_length_b                    10.65351
_cell_length_c                    15.445109
_cell_angle_alpha                 89.95336
_cell_angle_beta                  68.75807
_cell_angle_gamma                 89.147927
_cell_volume                      1548.29766033

loop_
_atom_site_label
_atom_site_type_symbol
_atom_type_description
_atom_site_fract_x
_atom_site_fract_y
_atom_site_fract_z
_atom_type_partial_charge
C1    C     C_R   0.503234 0.737071 0.492290 0.844797
C2    C     C_R   0.739545 0.495564 0.026418 -0.345552
C3    C     C_R   0.600334 0.455686 0.079091 -0.124305
C4    C     C_R   0.411517 0.494272 0.675281 0.925834
C5    C     C_R   0.833419 0.523193 0.072477 0.610964
C6    C     C_R   0.786308 0.519803 0.169192 0.511748
C7    C     C_R   0.547551 0.475239 0.175525 0.520209
C8    C     C_2   0.618493 0.069478 0.440379 0.592219
C9    C     C_2   0.506684 0.130169 0.501222 -0.386587
C10   C     C_2   0.630337 0.933481 0.448308 0.265519
C11   C     C_2   0.510334 0.867539 0.468611 0.273564
C12   C     C_R   0.435548 0.430625 0.903387 -0.085478
C13   C     C_2   0.064156 0.404527 0.521440 0.531739
C14   C     C_2   0.926938 0.400359 0.504691 0.627637
C15   C     C_R   0.501033 0.262742 0.500410 0.998654
C16   C     C_R   0.588550 0.500969 0.323909 0.976077
C17   C     C_R   0.360711 0.457907 0.772809 -0.282301
C18   C     C_R   0.642305 0.498644 0.221680 -0.434618
C19   C     C_R   0.239402 0.309490 0.893860 -0.148632
C20   C     C_R   0.263184 0.359594 0.805456 0.426255
C21   C     C_R   0.437341 0.499411 0.825873 0.623653
C22   C     C_3   0.261974 0.081184 0.047747 -0.213182
C23   C     C_R   0.325240 0.344533 0.943519 -0.178347
C24   C     C_3   0.848770 0.940450 0.466033 -0.061295
C25   C     C_3   0.841751 0.652247 0.599335 -0.146326
C26   C     C_3   0.349302 0.599733 0.215183 -0.178554
C27   C     C_3   0.910524 0.672941 0.853759 -0.190088
C28   C     C_3   0.071200 0.309126 0.768174 -0.095351
C29   C     C_3   0.741908 0.340371 0.763277 -0.307644
C30   C     C_R   0.542859 0.443449 0.940783 -0.164837
C31   C     C_R   0.511890 0.410097 0.033692 -0.162835
C32   C     C_R   0.398946 0.326283 0.075891 0.640387
C33   C     C_R   0.310700 0.288550 0.028827 0.440607
C34   C     C_R   0.684255 0.476823 0.886276 0.518219
C35   C     C_R   0.780305 0.507576 0.929506 0.452985
F1    F     F_    0.971282 0.552101 0.024720 -0.592236
F2    F     F_    0.722434 0.132238 0.373092 -0.605469
F3    F     F_    0.389825 0.920798 0.463029 -0.657318
F4    F     F_    0.102472 0.301883 0.559356 -0.623309
F5    F     F_    0.870670 0.285265 0.505627 -0.640762
F6    F     F_    0.880417 0.544432 0.211108 -0.575435
F7    F     F_    0.519455 0.602851 0.798631 -0.666182
F8    F     F_    0.384366 0.268366 0.157183 -0.590628
H1    H     H_    0.422636 0.082960 0.555949 0.164385
H2    H     H_    0.869239 0.585931 0.645806 0.164832
H3    H     H_    0.725205 0.664703 0.621195 0.242601
H4    H     H_    0.886108 0.744425 0.606801 0.138056
H5    H     H_    0.362244 0.620117 0.141929 0.154618
H6    H     H_    0.401274 0.673426 0.242355 0.141854
H7    H     H_    0.233923 0.603730 0.257174 0.217414
H8    H     H_    0.868915 0.732281 0.917551 0.164601
H9    H     H_    0.845859 0.688507 0.809629 0.162670
H10   H     H_    0.020141 0.703616 0.813431 0.187227
H11   H     H_    0.033982 0.233777 0.733471 0.194049
H12   H     H_    0.134214 0.562647 0.453293 0.188123
H13   H     H_    0.047801 0.400479 0.741748 0.227947
H14   H     H_    0.010092 0.300610 0.844027 0.135260
H15   H     H_    0.639967 0.312153 0.757774 0.180318
H16   H     H_    0.769846 0.274866 0.810597 0.120307
H17   H     H_    0.824975 0.329115 0.693429 0.211136
H18   H     H_    0.164384 0.234179 0.918931 0.188603
H19   H     H_    0.344288 0.061844 0.078427 0.192614
H20   H     H_    0.307023 0.065017 0.971276 0.122383
H21   H     H_    0.175600 0.012878 0.077785 0.214390
H22   H     H_    0.790549 0.971670 0.539002 0.108936
H23   H     H_    0.897238 0.021333 0.420969 0.247269
H24   H     H_    0.937645 0.878113 0.466067 0.198714
N1    N     N_2   0.148330 0.498670 0.499030 -0.241963
N2    N     N_2   0.852680 0.498640 0.499000 0.040100
O1    O     O_R   0.386950 0.680940 0.500010 -0.590435
O2    O     O_3   0.760942 0.872402 0.430207 -0.580701
O3    O     O_3   0.903619 0.612985 0.506086 -0.599354
O4    O     O_3   0.401937 0.478727 0.223833 -0.515614
O5    O     O_3   0.915877 0.545042 0.876025 -0.578634
O6    O     O_3   0.218846 0.293910 0.743862 -0.617201
O7    O     O_3   0.736076 0.467846 0.790279 -0.596386
O8    O     O_R   0.613110 0.680900 0.499990 -0.578635
O9    O     O_R   0.322330 0.500030 0.632270 -0.587252
O10   O     O_R   0.548480 0.499990 0.632240 -0.611857
O11   O     O_R   0.386890 0.319100 0.500010 -0.519776
O12   O     O_R   0.613050 0.319060 0.499990 -0.552472
O13   O     O_R   0.451520 0.500010 0.367760 -0.579352
O14   O     O_R   0.677670 0.499970 0.367730 -0.522547
O15   O     O_3   0.204136 0.203528 0.069700 -0.545059
Zn1   Zn    Zn3+2 0.349000 0.500030 0.500020 1.064776
Zn2   Zn    Zn3+2 0.651000 0.499970 0.499980 1.120262

loop_
_geom_bond_atom_site_label_1
_geom_bond_atom_site_label_2
_ccdc_geom_bond_type
C2    C35   A    
C35   O5    S    
C11   F3    S    
C1    O8    A    
C19   C20   A    
C1    C11   S    
C15   O11   A    
C26   O4    S    
H12   N1    S    
C28   H13   S    
C7    O4    S    
C29   O7    S    
C28   H14   S    
C12   C23   A    
C3    C7    A    
C26   H7    S    
C30   C31   A    
C5    F1    S    
C17   C20   A    
C34   C35   A    
C24   H24   S    
C22   H20   S    
C29   H16   S    
C8    C9    D    
C23   C33   A    
C6    F6    S    
C27   O5    S    
C25   H4    S    
O12   Zn2   S    
C26   H5    S    
C10   O2    S    
C13   C14   S    
N1    Zn1   S    
C27   H8    S    
C6    C18   A    
C30   C34   A    
C4    O10   A    
C15   O12   A    
C26   H6    S    
C28   H11   S    
C22   H21   S    
C12   C21   A    
C16   O14   A    
C17   C21   A    
C20   O6    S    
C22   O15   S    
N2    O3    S    
C19   C23   A    
C4    O9    A    
O11   Zn1   S    
C22   H19   S    
C31   C32   A    
C29   H17   S    
C7    C18   A    
C16   O13   A    
C25   O3    S    
C3    C31   A    
C24   H22   S    
C4    C17   S    
O9    Zn1   S    
C16   C18   S    
O8    Zn2   S    
C14   N2    D    
C2    C5    A    
C8    F2    S    
C25   H2    S    
C27   H9    S    
C9    H1    S    
C12   C30   A    
C27   H10   S    
C24   H23   S    
O13   Zn1   S    
C1    O1    A    
C32   C33   A    
C2    C3    A    
C9    C15   S    
C28   O6    S    
C5    C6    A    
C19   H18   S    
C32   F8    S    
C33   O15   S    
C13   F4    S    
C10   C11   D    
C14   F5    S    
C21   F7    S    
O14   Zn2   S    
C29   H15   S    
C8    C10   S    
O1    Zn1   S    
C25   H3    S    
O10   Zn2   S    
N2    Zn2   S    
C24   O2    S    
C34   O7    S    
C13   N1    D    
