data_mof_unit_34223.cif
_audit_creation_date              2012-10-26T18:33:02-0400
_audit_creation_method            fapswitch 2.2
_symmetry_space_group_name_H-M    P1
_symmetry_Int_Tables_number       1
_space_group_crystal_system       triclinic
_cell_length_a                    13.779018
_cell_length_b                    13.863773
_cell_length_c                    15.064399
_cell_angle_alpha                 89.197547
_cell_angle_beta                  89.533048
_cell_angle_gamma                 85.35648
_cell_volume                      2867.94170019

loop_
_atom_site_label
_atom_site_type_symbol
_atom_type_description
_atom_site_fract_x
_atom_site_fract_y
_atom_site_fract_z
_atom_type_partial_charge
C1    C     C_R   0.500264 0.500397 0.328618 0.531864
C2    C     C_R   0.674711 0.457189 0.952743 -0.135741
C3    C     C_R   0.788735 0.577990 0.464587 0.405060
C4    C     C_R   0.211906 0.422784 0.537133 0.400960
C5    C     C_R   0.799673 0.421470 0.532599 -0.017106
C6    C     C_R   0.200257 0.577983 0.466770 -0.017539
C7    C     C_R   0.902518 0.418774 0.531530 -0.030159
C8    C     C_R   0.097562 0.580635 0.468586 -0.029536
C9    C     C_R   0.948443 0.499875 0.500306 0.015258
C10   C     C_R   0.051775 0.499766 0.500672 0.017181
C11   C     C_R   0.891237 0.581209 0.468742 0.002683
C12   C     C_R   0.499713 0.500583 0.671356 0.534000
C13   C     C_R   0.109123 0.418782 0.532907 -0.008574
C14   C     C_R   0.960434 0.336743 0.560617 -0.155192
C15   C     C_R   0.039707 0.662508 0.439380 -0.160730
C16   C     C_R   0.515443 0.317115 0.500226 0.544998
C17   C     C_R   0.484571 0.682938 0.500351 0.545513
C18   C     C_R   0.062353 0.336164 0.560088 -0.139106
C19   C     C_R   0.937913 0.663615 0.441302 -0.135198
C20   C     C_1   0.475508 0.785840 0.504404 -0.029978
C21   C     C_1   0.524682 0.214183 0.500045 -0.036453
C22   C     C_2   0.460410 0.977081 0.515217 0.288689
C23   C     C_R   0.500378 0.504052 0.953397 0.061717
C24   C     C_2   0.541423 0.022647 0.498721 0.289447
C25   C     C_1   0.533044 0.127429 0.499575 -0.016174
C26   C     C_1   0.467768 0.872461 0.509103 -0.018396
C27   C     C_R   0.586827 0.479206 0.814097 -0.136870
C28   C     C_R   0.413514 0.525552 0.185861 -0.136249
C29   C     C_R   0.499662 0.502131 0.768158 -0.014631
C30   C     C_R   0.500574 0.501857 0.231750 -0.018209
C31   C     C_R   0.413112 0.527285 0.814828 -0.150058
C32   C     C_R   0.587653 0.479512 0.184940 -0.150254
C33   C     C_R   0.412702 0.527770 0.907340 0.007018
C34   C     C_R   0.500551 0.503934 0.046442 0.061966
C35   C     C_R   0.588274 0.480356 0.092463 0.011511
C36   C     C_3   0.712555 0.015132 0.492721 0.009914
C37   C     C_3   0.747282 0.068127 0.409809 -0.262587
C38   C     C_3   0.836465 0.122434 0.429744 -0.482274
C39   C     C_3   0.293534 0.978670 0.555741 0.007204
C40   C     C_3   0.240790 0.958649 0.469532 -0.260801
C41   C     C_3   0.148594 0.907677 0.488199 -0.490982
C42   C     C_3   0.720127 0.639877 0.334723 0.041374
C43   C     C_3   0.772820 0.711116 0.276901 -0.303096
C44   C     C_3   0.739455 0.709261 0.180535 -0.479326
C45   C     C_R   0.587845 0.480148 0.906501 0.011448
C46   C     C_3   0.262197 0.351801 0.668833 0.014095
C47   C     C_3   0.341648 0.281415 0.709036 -0.240641
C48   C     C_3   0.332019 0.274725 0.809883 -0.491286
C49   C     C_R   0.412906 0.526888 0.093382 0.011229
C50   C     C_R   0.326103 0.551077 0.954538 -0.140658
C51   C     C_R   0.674947 0.457424 0.045276 -0.140016
C52   C     C_R   0.326175 0.550509 0.047106 -0.135266
Cu1   Cu    Cu3+1 0.597420 0.500010 0.499990 0.965830
Cu2   Cu    Cu3+1 0.402580 0.499990 0.500010 0.975442
H1    H     H_    0.653862 0.459878 0.778023 0.125893
H2    H     H_    0.235358 0.638990 0.439590 0.128217
H3    H     H_    0.927012 0.272713 0.583453 0.097279
H4    H     H_    0.073114 0.726004 0.415477 0.100684
H5    H     H_    0.104166 0.270387 0.580835 0.138944
H6    H     H_    0.896089 0.729615 0.421374 0.144348
H7    H     H_    0.770348 0.958110 0.511498 0.156684
H8    H     H_    0.704096 0.064112 0.550858 0.113689
H9    H     H_    0.765974 0.014678 0.356783 0.164929
H10   H     H_    0.688454 0.120665 0.384703 0.169607
H11   H     H_    0.818220 0.178286 0.480695 0.144520
H12   H     H_    0.346237 0.543419 0.222040 0.126328
H13   H     H_    0.860728 0.158930 0.368335 0.151969
H14   H     H_    0.897113 0.071427 0.454036 0.141087
H15   H     H_    0.242372 0.023865 0.598389 0.151413
H16   H     H_    0.312539 0.911238 0.594962 0.121747
H17   H     H_    0.220807 0.028314 0.434266 0.180685
H18   H     H_    0.289458 0.912681 0.425403 0.157556
H19   H     H_    0.167184 0.836234 0.520755 0.149935
H20   H     H_    0.111082 0.896333 0.424706 0.138192
H21   H     H_    0.098144 0.952495 0.531768 0.143126
H22   H     H_    0.641046 0.654248 0.321844 0.179458
H23   H     H_    0.346107 0.546579 0.779300 0.112719
H24   H     H_    0.742641 0.564629 0.312898 0.115550
H25   H     H_    0.758116 0.785644 0.302735 0.185711
H26   H     H_    0.852403 0.691143 0.278172 0.147590
H27   H     H_    0.754178 0.635469 0.153171 0.151035
H28   H     H_    0.779715 0.760521 0.139949 0.149476
H29   H     H_    0.660288 0.731205 0.175891 0.156353
H30   H     H_    0.190410 0.330959 0.693075 0.104675
H31   H     H_    0.271704 0.426011 0.692694 0.137583
H32   H     H_    0.336539 0.208239 0.680996 0.191569
H33   H     H_    0.414341 0.305676 0.691439 0.174464
H34   H     H_    0.654702 0.460092 0.220336 0.113132
H35   H     H_    0.334856 0.347076 0.839773 0.161018
H36   H     H_    0.392766 0.225798 0.836935 0.152320
H37   H     H_    0.262054 0.245173 0.828685 0.143236
H38   H     H_    0.258338 0.569270 0.919870 0.104041
H39   H     H_    0.742748 0.439382 0.079936 0.103056
H40   H     H_    0.258458 0.568348 0.082502 0.106712
H41   H     H_    0.742340 0.438896 0.917351 0.106200
H42   H     H_    0.764471 0.360165 0.558981 0.126061
N1    N     N_R   0.743820 0.499960 0.499930 -0.235991
N2    N     N_R   0.256180 0.500040 0.500070 -0.231252
O1    O     O_R   0.582280 0.500030 0.370250 -0.522938
O2    O     O_3   0.374508 0.032762 0.538105 -0.595101
O3    O     O_3   0.734413 0.655913 0.426383 -0.543593
O4    O     O_3   0.268413 0.346494 0.575182 -0.532465
O5    O     O_R   0.417720 0.499970 0.629750 -0.506850
O6    O     O_R   0.417740 0.500020 0.370270 -0.501307
O7    O     O_R   0.582260 0.499980 0.629730 -0.504227
O8    O     O_R   0.593900 0.362160 0.500010 -0.525103
O9    O     O_R   0.406100 0.637840 0.499990 -0.526678
O10   O     O_R   0.429360 0.362150 0.500030 -0.419793
O11   O     O_R   0.570640 0.637850 0.499970 -0.428993
O12   O     O_3   0.627388 0.968429 0.474184 -0.585814

loop_
_geom_bond_atom_site_label_1
_geom_bond_atom_site_label_2
_ccdc_geom_bond_type
C30   C32   A    
C16   C21   S    
C23   C45   A    
C40   H17   S    
C4    N2    A    
C12   C29   S    
C27   C29   A    
C14   C18   A    
C44   H29   S    
C1    O1    A    
Cu1   Cu2   S    
Cu1   O1    S    
C15   C19   A    
C46   O4    S    
C11   C19   A    
Cu2   O9    S    
C6    N2    A    
Cu2   O6    S    
C36   C37   S    
C44   H28   S    
C17   O9    A    
C12   O7    A    
C27   H1    S    
C43   H25   S    
C32   H34   S    
C17   C20   S    
C34   C35   A    
C4    C13   A    
C41   H20   S    
Cu1   O8    S    
C7    C14   A    
C23   C33   A    
C48   H37   S    
C4    O4    S    
C50   C52   A    
C31   C33   A    
C52   H40   S    
C9    C10   A    
C16   O8    A    
C46   H31   S    
C27   C45   A    
C48   H36   S    
C36   H8    S    
C37   H9    S    
C31   H23   S    
C2    C45   A    
C22   O2    S    
C47   H32   S    
Cu2   O5    S    
C24   O12   S    
C24   C25   S    
C12   O5    A    
C44   H27   S    
C39   C40   S    
C5    C7    A    
C6    C8    A    
Cu1   N1    S    
C43   H26   S    
C47   H33   S    
C28   H12   S    
C43   C44   S    
C32   C35   A    
C37   C38   S    
C41   H21   S    
C28   C49   A    
C3    N1    A    
C47   C48   S    
C38   H11   S    
C23   C34   A    
C39   H15   S    
C9    C11   A    
C1    O6    A    
C51   H39   S    
C46   H30   S    
C13   C18   A    
C5    H42   S    
C50   H38   S    
C40   C41   S    
C38   H14   S    
C42   H24   S    
C8    C15   A    
C48   H35   S    
C36   O12   S    
C15   H4    S    
C22   C24   D    
C42   C43   S    
C36   H7    S    
C42   O3    S    
C37   H10   S    
Cu1   O11   S    
C7    C9    A    
C14   H3    S    
C21   C25   T    
C46   C47   S    
C2    H41   S    
C34   C49   A    
C40   H18   S    
C49   C52   A    
C6    H2    S    
C10   C13   A    
C17   O11   A    
C19   H6    S    
C42   H22   S    
Cu2   O10   S    
C28   C30   A    
C33   C50   A    
C29   C31   A    
C35   C51   A    
C3    O3    S    
C39   O2    S    
C20   C26   T    
C1    C30   S    
C39   H16   S    
C5    N1    A    
C3    C11   A    
C2    C51   A    
C16   O10   A    
C41   H19   S    
Cu1   O7    S    
C18   H5    S    
C38   H13   S    
C8    C10   A    
C22   C26   S    
Cu2   N2    S    
