data_mof_unit_54752.cif
_audit_creation_date              2012-12-11T15:37:24-0500
_audit_creation_method            fapswitch 2.2
_symmetry_space_group_name_H-M    P1
_symmetry_Int_Tables_number       1
_space_group_crystal_system       triclinic
_cell_length_a                    17.633906
_cell_length_b                    24.305483
_cell_length_c                    14.923131
_cell_angle_alpha                 90.412341
_cell_angle_beta                  125.768243
_cell_angle_gamma                 89.968829
_cell_volume                      5189.50091085

loop_
_atom_site_label
_atom_site_type_symbol
_atom_type_description
_atom_site_fract_x
_atom_site_fract_y
_atom_site_fract_z
_atom_type_partial_charge
C1    C     C_R   0.848861 0.651854 0.909675 -0.133451
C2    C     C_3   0.586642 0.499194 0.579414 -0.024247
C3    C     C_3   0.031259 0.008596 0.461481 -0.231979
C4    C     C_3   0.725397 0.399340 0.639709 -0.401954
C5    C     C_3   0.800774 0.383246 0.626790 -0.925472
C6    C     C_3   0.236623 0.599138 0.350067 -0.353852
C7    C     C_3   0.255728 0.590736 0.462949 -0.921787
C8    C     C_3   0.265517 0.403157 0.364083 -0.380290
C9    C     C_3   0.176072 0.374874 0.332048 -0.910069
C10   C     C_3   0.744314 0.597527 0.645481 -0.358517
C11   C     C_3   0.734730 0.586859 0.538009 -0.910081
C12   C     C_3   0.219002 0.900993 0.636708 -0.395887
C13   C     C_3   0.899801 0.004827 0.442563 0.005498
C14   C     C_3   0.294873 0.884330 0.624796 -0.916737
C15   C     C_3   0.731427 0.098387 0.350571 -0.349900
C16   C     C_3   0.746708 0.090133 0.461486 -0.926079
C17   C     C_3   0.738799 0.904826 0.356069 -0.358219
C18   C     C_3   0.726366 0.917490 0.447371 -0.917117
C19   C     C_3   0.240870 0.097345 0.645528 -0.357230
C20   C     C_3   0.230250 0.085045 0.537933 -0.910809
C21   C     C_3   0.541498 0.396584 0.616364 -0.392993
C22   C     C_3   0.464643 0.370025 0.619394 -0.936885
C23   C     C_3   0.463845 0.610783 0.420350 -0.390592
C24   C     C_3   0.082947 0.000626 0.585309 -0.019632
C25   C     C_3   0.420620 0.612341 0.296973 -0.886064
C26   C     C_3   0.441184 0.419794 0.341080 -0.403006
C27   C     C_3   0.505739 0.419728 0.303916 -0.909388
C28   C     C_3   0.552751 0.583326 0.677958 -0.397085
C29   C     C_3   0.598330 0.556429 0.790542 -0.849960
C30   C     C_3   0.039849 0.899585 0.629147 -0.400163
C31   C     C_3   0.966943 0.878522 0.644792 -0.908630
C32   C     C_3   0.958429 0.108615 0.414688 -0.387262
C33   C     C_3   0.916196 0.106517 0.291555 -0.881790
C34   C     C_3   0.943357 0.918492 0.353693 -0.398776
C35   C     C_R   0.671049 0.305424 0.900337 -0.172763
C36   C     C_3   0.905279 0.944498 0.241662 -0.870560
C37   C     C_3   0.046424 0.088395 0.674691 -0.397571
C38   C     C_3   0.094675 0.064855 0.790485 -0.850175
C39   C     C_R   0.212609 0.766150 0.099220 -0.169933
C40   C     C_R   0.333616 0.309281 0.101485 -0.179776
C41   C     C_R   0.792311 0.767436 0.905426 -0.169525
C42   C     C_R   0.170688 0.805177 0.900230 -0.171925
C43   C     C_R   0.712958 0.266161 0.099227 -0.169612
C44   C     C_R   0.831028 0.806356 0.103983 -0.187467
C45   C     C_R   0.188003 0.373468 0.091938 -0.135771
C46   C     C_R   0.289100 0.266476 0.902725 -0.169470
C47   C     C_R   0.118509 0.762847 0.899222 -0.175770
C48   C     C_R   0.764272 0.309499 0.100244 -0.171061
C49   C     C_R   0.881153 0.762754 0.104697 -0.164699
C50   C     C_R   0.239217 0.310746 0.901689 -0.170727
C51   C     C_R   0.619614 0.262582 0.899241 -0.173762
C52   C     C_R   0.264660 0.808982 0.100168 -0.171509
C53   C     C_R   0.382876 0.264864 0.102547 -0.175493
C54   C     C_R   0.741987 0.811415 0.904715 -0.168576
C55   C     C_R   0.145918 0.739329 0.998984 0.144596
C56   C     C_R   0.150858 0.652034 0.091534 -0.147441
C57   C     C_R   0.749078 0.325532 0.001238 0.150514
C58   C     C_R   0.855584 0.739675 0.004670 0.141305
C59   C     C_R   0.255181 0.328612 0.000654 0.152696
C60   C     C_R   0.646895 0.239097 0.999020 0.144010
C61   C     C_R   0.249519 0.824766 0.001062 0.152016
C62   C     C_R   0.354507 0.239902 0.002800 0.142934
C63   C     C_R   0.755316 0.827574 0.003154 0.141152
C64   C     C_R   0.904775 0.454219 0.469872 -0.185717
C65   C     C_R   0.911255 0.554090 0.383770 -0.166354
C66   C     C_R   0.896599 0.454817 0.372083 -0.163608
C67   C     C_R   0.811090 0.375476 0.910559 -0.117792
C68   C     C_R   0.919894 0.553623 0.481504 -0.171225
C69   C     C_R   0.403825 0.953151 0.469457 -0.184406
C70   C     C_R   0.409459 0.053022 0.382692 -0.167157
C71   C     C_R   0.398349 0.953577 0.373381 -0.163857
C72   C     C_R   0.415160 0.052723 0.478618 -0.170690
C73   C     C_R   0.912525 0.504140 0.337595 0.143934
C74   C     C_R   0.926257 0.503221 0.530536 0.138428
C75   C     C_R   0.413826 0.003057 0.338912 0.146241
C76   C     C_R   0.422503 0.002429 0.528484 0.137355
C77   C     C_R   0.911500 0.366598 0.092712 -0.139372
C78   C     C_R   0.348516 0.151695 0.909458 -0.134182
C79   C     C_R   0.056593 0.650587 0.906972 -0.125589
C80   C     C_R   0.094174 0.373185 0.906662 -0.125852
C81   C     C_R   0.945127 0.651348 0.093639 -0.148664
C82   C     C_R   0.411478 0.866667 0.092782 -0.129679
C83   C     C_R   0.557011 0.150484 0.907030 -0.124910
C84   C     C_R   0.594619 0.872986 0.907372 -0.124087
C85   C     C_R   0.444474 0.151386 0.093396 -0.147881
C86   C     C_R   0.982388 0.547728 0.248746 -0.124322
C87   C     C_R   0.970665 0.455320 0.705060 -0.142581
C88   C     C_R   0.965004 0.547461 0.704690 -0.113739
C89   C     C_R   0.688179 0.873581 0.093175 -0.156321
C90   C     C_R   0.986511 0.455769 0.256509 -0.128376
C91   C     C_R   0.482978 0.047402 0.249718 -0.124459
C92   C     C_R   0.468270 0.954974 0.703842 -0.144742
C93   C     C_R   0.462904 0.047177 0.703243 -0.114759
C94   C     C_R   0.489006 0.955289 0.258807 -0.137496
C95   C     C_R   0.740530 0.454403 0.698182 0.169259
C96   C     C_R   0.251397 0.547874 0.303793 0.185075
C97   C     C_R   0.254531 0.456975 0.307264 0.155424
C98   C     C_R   0.741965 0.545704 0.699568 0.192342
C99   C     C_R   0.237562 0.954842 0.700343 0.168449
C100  C     C_R   0.651479 0.151844 0.091710 -0.145402
C101  C     C_R   0.748627 0.047103 0.306498 0.151029
C102  C     C_R   0.749968 0.956192 0.308465 0.158131
C103  C     C_R   0.240154 0.046245 0.702441 0.192659
C104  C     C_R   0.881514 0.683037 0.002944 0.057131
C105  C     C_R   0.183290 0.359378 0.999039 0.042033
C106  C     C_R   0.119373 0.682752 0.998856 0.057561
C107  C     C_R   0.820397 0.356243 0.002750 0.037762
C108  C     C_R   0.380646 0.183009 0.002408 0.057835
C109  C     C_R   0.683545 0.858950 0.000511 0.056827
C110  C     C_R   0.620230 0.182534 0.998982 0.055424
C111  C     C_R   0.312123 0.873784 0.910046 -0.120699
C112  C     C_R   0.320949 0.855256 0.002385 0.034523
C113  C     C_R   0.953728 0.502528 0.277290 0.041941
C114  C     C_R   0.959204 0.502044 0.645255 0.041940
C115  C     C_R   0.455737 0.001868 0.279482 0.039071
C116  C     C_R   0.455719 0.001561 0.643270 0.042547
C117  C     C_R   0.687965 0.499863 0.644595 -0.003141
C118  C     C_R   0.302798 0.503784 0.365282 0.000133
C119  C     C_R   0.184478 0.000758 0.650098 -0.004497
C120  C     C_R   0.797956 0.002719 0.369928 0.084002
C121  C     C_3   0.517740 0.452027 0.555397 0.194083
C122  C     C_3   0.404228 0.505210 0.437830 -0.022547
C123  C     C_3   0.472942 0.552267 0.463039 0.197181
C124  C     C_3   0.466914 0.463097 0.431289 0.193719
C125  C     C_3   0.525128 0.540829 0.586891 0.172910
C126  C     C_3   0.015029 0.953948 0.565509 0.180077
C127  C     C_3   0.967956 0.051600 0.463437 0.192572
C128  C     C_3   0.963290 0.961896 0.440443 0.188650
C129  C     C_3   0.020501 0.043385 0.588434 0.168587
C130  C     C_3   0.455388 0.494329 0.561600 -0.233130
C131  C     C_3   0.535213 0.510419 0.456373 -0.212334
C132  C     C_3   0.951611 0.997166 0.567623 -0.218965
H1    H     H_    0.806353 0.665677 0.825565 0.078297
H2    H     H_    0.010187 0.663863 0.822348 0.079171
H3    H     H_    0.548350 0.528076 0.789237 0.253048
H4    H     H_    0.661397 0.533025 0.814018 0.254321
H5    H     H_    0.619535 0.588730 0.854188 0.250191
H6    H     H_    0.600787 0.614444 0.683380 0.180553
H7    H     H_    0.489226 0.605440 0.656647 0.187782
H8    H     H_    0.953339 0.909095 0.689285 0.261599
H9    H     H_    0.901988 0.867429 0.564680 0.269943
H10   H     H_    0.992755 0.840506 0.694688 0.248112
H11   H     H_    0.050147 0.867056 0.584852 0.178811
H12   H     H_    0.104671 0.906379 0.712813 0.196946
H13   H     H_    0.065808 0.364693 0.821723 0.088861
H14   H     H_    0.963106 0.083798 0.277572 0.254151
H15   H     H_    0.846893 0.086231 0.243373 0.261438
H16   H     H_    0.907817 0.149052 0.260442 0.249408
H17   H     H_    0.919007 0.136311 0.432158 0.178835
H18   H     H_    0.029075 0.127235 0.458206 0.190949
H19   H     H_    0.840783 0.968158 0.210705 0.259810
H20   H     H_    0.957758 0.972378 0.247489 0.252715
H21   H     H_    0.889237 0.912126 0.180383 0.252513
H22   H     H_    0.009372 0.897054 0.382389 0.184610
H23   H     H_    0.894696 0.886783 0.344429 0.173772
H24   H     H_    0.993498 0.665678 0.177747 0.081571
H25   H     H_    0.047259 0.036027 0.793207 0.252133
H26   H     H_    0.159430 0.042765 0.816185 0.255223
H27   H     H_    0.113635 0.098897 0.850239 0.250037
H28   H     H_    0.091998 0.119724 0.675477 0.180017
H29   H     H_    0.981715 0.109678 0.651654 0.188345
H30   H     H_    0.655000 0.317841 0.821834 0.111859
H31   H     H_    0.231379 0.751320 0.177780 0.106556
H32   H     H_    0.352152 0.324095 0.180217 0.113874
H33   H     H_    0.775214 0.752786 0.827077 0.105292
H34   H     H_    0.154121 0.817655 0.821543 0.112534
H35   H     H_    0.445490 0.850516 0.174679 0.086833
H36   H     H_    0.731691 0.251252 0.177727 0.106479
H37   H     H_    0.846897 0.819006 0.182662 0.114318
H38   H     H_    0.269744 0.250691 0.824110 0.105354
H39   H     H_    0.510680 0.163799 0.822420 0.079885
H40   H     H_    0.566775 0.864614 0.822464 0.088129
H41   H     H_    0.492264 0.165813 0.177538 0.081879
H42   H     H_    0.972314 0.590574 0.257542 0.095720
H43   H     H_    0.965567 0.413477 0.678197 0.094190
H44   H     H_    0.948924 0.589717 0.678502 0.091860
H45   H     H_    0.244433 0.367384 0.176588 0.102043
H46   H     H_    0.986166 0.415040 0.283243 0.085227
H47   H     H_    0.472305 0.090181 0.258293 0.097062
H48   H     H_    0.462017 0.912943 0.677217 0.094169
H49   H     H_    0.446469 0.089389 0.676796 0.091885
H50   H     H_    0.492083 0.914563 0.287981 0.094718
H51   H     H_    0.064176 0.745105 0.820175 0.105348
H52   H     H_    0.820630 0.326837 0.178838 0.103441
H53   H     H_    0.932502 0.744015 0.183244 0.105350
H54   H     H_    0.183160 0.327251 0.822845 0.108188
H55   H     H_    0.565976 0.244533 0.820195 0.106242
H56   H     H_    0.191120 0.666298 0.175801 0.086160
H57   H     H_    0.321389 0.826082 0.178778 0.103272
H58   H     H_    0.436392 0.247294 0.181501 0.108608
H59   H     H_    0.687753 0.829188 0.826273 0.108487
H60   H     H_    0.901251 0.414931 0.500620 0.110911
H61   H     H_    0.915702 0.593381 0.353724 0.106496
H62   H     H_    0.888474 0.416001 0.331362 0.104790
H63   H     H_    0.929960 0.592716 0.521926 0.106662
H64   H     H_    0.401007 0.913843 0.500693 0.110655
H65   H     H_    0.413400 0.092322 0.352264 0.107617
H66   H     H_    0.392603 0.914647 0.334213 0.104276
H67   H     H_    0.748190 0.377644 0.830534 0.080944
H68   H     H_    0.422656 0.091941 0.517477 0.107430
H69   H     H_    0.805475 0.415026 0.577362 0.265394
H70   H     H_    0.866766 0.376632 0.709516 0.269637
H71   H     H_    0.781630 0.343747 0.580275 0.244828
H72   H     H_    0.715514 0.364169 0.677750 0.183608
H73   H     H_    0.661255 0.402171 0.554677 0.201880
H74   H     H_    0.212566 0.556219 0.459067 0.268886
H75   H     H_    0.330562 0.581879 0.526009 0.257075
H76   H     H_    0.237590 0.628747 0.488159 0.247434
H77   H     H_    0.278578 0.633735 0.353686 0.178464
H78   H     H_    0.306402 0.165415 0.825357 0.078922
H79   H     H_    0.162665 0.612255 0.293126 0.186382
H80   H     H_    0.142182 0.400007 0.361103 0.260400
H81   H     H_    0.128764 0.366329 0.242466 0.270080
H82   H     H_    0.193865 0.334763 0.375003 0.241974
H83   H     H_    0.306944 0.373662 0.352981 0.174288
H84   H     H_    0.304306 0.412460 0.453222 0.214244
H85   H     H_    0.763260 0.546079 0.538207 0.269097
H86   H     H_    0.660759 0.589594 0.466175 0.253817
H87   H     H_    0.773406 0.619031 0.527186 0.241023
H88   H     H_    0.690759 0.627276 0.630481 0.162013
H89   H     H_    0.744707 0.868707 0.178912 0.104960
H90   H     H_    0.813458 0.617545 0.702942 0.181701
H91   H     H_    0.301271 0.916273 0.576954 0.264674
H92   H     H_    0.360476 0.877189 0.707676 0.267470
H93   H     H_    0.275078 0.845135 0.577240 0.242445
H94   H     H_    0.205118 0.865361 0.669947 0.177961
H95   H     H_    0.155279 0.905916 0.551374 0.190976
H96   H     H_    0.702945 0.055497 0.455780 0.269452
H97   H     H_    0.821198 0.081631 0.527039 0.255785
H98   H     H_    0.726663 0.128099 0.484578 0.248696
H99   H     H_    0.774313 0.133034 0.356555 0.176165
H100  H     H_    0.692308 0.165891 0.176224 0.087673
H101  H     H_    0.657888 0.111617 0.291124 0.188928
H102  H     H_    0.790922 0.935330 0.520840 0.262001
H103  H     H_    0.669603 0.947507 0.419149 0.267874
H104  H     H_    0.709333 0.879044 0.471980 0.248064
H105  H     H_    0.675802 0.881869 0.289555 0.190590
H106  H     H_    0.798388 0.876979 0.387279 0.168129
H107  H     H_    0.261733 0.044850 0.541247 0.268851
H108  H     H_    0.155781 0.085258 0.466964 0.255449
H109  H     H_    0.265571 0.117718 0.522987 0.241689
H110  H     H_    0.187102 0.127088 0.629751 0.164113
H111  H     H_    0.250854 0.873157 0.828835 0.084868
H112  H     H_    0.309890 0.117788 0.701096 0.181043
H113  H     H_    0.419661 0.490291 0.602544 0.139536
H114  H     H_    0.569146 0.516630 0.414023 0.154277
H115  H     H_    0.917682 0.995105 0.610854 0.136539
H116  H     H_    0.065499 0.011448 0.418751 0.148810
H117  H     H_    0.430484 0.399800 0.641577 0.263095
H118  H     H_    0.413370 0.348967 0.539996 0.253988
H119  H     H_    0.495494 0.337467 0.682951 0.253178
H120  H     H_    0.559583 0.365808 0.576892 0.186129
H121  H     H_    0.601249 0.404109 0.703129 0.196076
H122  H     H_    0.945896 0.349737 0.174182 0.094207
H123  H     H_    0.466346 0.590747 0.279703 0.254429
H124  H     H_    0.350715 0.592813 0.247275 0.261439
H125  H     H_    0.413270 0.655779 0.270576 0.248800
H126  H     H_    0.425344 0.636943 0.441661 0.182409
H127  H     H_    0.534695 0.629195 0.464988 0.189965
H128  H     H_    0.496085 0.457994 0.258157 0.261541
H129  H     H_    0.579954 0.416069 0.374821 0.258066
H130  H     H_    0.488187 0.384374 0.247413 0.258868
H131  H     H_    0.442602 0.378209 0.372065 0.184870
H132  H     H_    0.370393 0.428151 0.266269 0.199041
N1    N     N_R   0.892620 0.603790 0.941800 -0.042063
N2    N     N_R   0.047790 0.602400 0.942090 -0.037922
N3    N     N_R   0.047790 0.397600 0.942090 -0.041497
N4    N     N_R   0.952210 0.602400 0.057910 -0.038006
N5    N     N_R   0.452210 0.897600 0.057910 -0.039145
N6    N     N_R   0.547790 0.102400 0.942090 -0.037638
N7    N     N_R   0.547790 0.897600 0.942090 -0.040162
N8    N     N_R   0.452210 0.102400 0.057910 -0.037797
N9    N     N_R   0.026300 0.529110 0.206760 -0.040194
N10   N     N_R   0.973700 0.470890 0.793240 -0.030771
N11   N     N_R   0.973700 0.529110 0.793240 -0.036318
N12   N     N_R   0.107380 0.396210 0.058200 -0.040314
N13   N     N_R   0.026300 0.470890 0.206760 -0.029357
N14   N     N_R   0.526300 0.029110 0.206760 -0.039332
N15   N     N_R   0.473700 0.970890 0.793240 -0.031242
N16   N     N_R   0.473700 0.029110 0.793240 -0.036081
N17   N     N_R   0.526300 0.970890 0.206760 -0.032913
N18   N     N_R   0.818530 0.472270 0.792960 -0.066154
N19   N     N_R   0.181470 0.527730 0.207040 -0.088936
N20   N     N_R   0.181470 0.472270 0.207040 -0.060742
N21   N     N_R   0.818530 0.527730 0.792960 -0.086599
N22   N     N_R   0.318530 0.972270 0.792960 -0.064493
N23   N     N_R   0.107380 0.603790 0.058200 -0.043524
N24   N     N_R   0.681470 0.027730 0.207040 -0.089443
N25   N     N_R   0.681470 0.972270 0.207040 -0.084027
N26   N     N_R   0.318530 0.027730 0.792960 -0.085918
N27   N     N_R   0.892620 0.396210 0.941800 -0.037464
N28   N     N_R   0.392620 0.103790 0.941800 -0.042605
N29   N     N_R   0.607380 0.896210 0.058200 -0.043722
N30   N     N_R   0.607380 0.103790 0.058200 -0.042333
N31   N     N_R   0.392620 0.896210 0.941800 -0.038159
N32   N     N_R   0.952210 0.397600 0.057910 -0.039799
Ni1   Ni    Ni4+2 0.934150 0.565840 0.869060 0.197897
Ni2   Ni    Ni4+2 0.065850 0.434160 0.130940 0.211808
Ni3   Ni    Ni4+2 0.065850 0.565840 0.130940 0.196005
Ni4   Ni    Ni4+2 0.934150 0.434160 0.869060 0.214877
Ni5   Ni    Ni4+2 0.434150 0.065840 0.869060 0.198441
Ni6   Ni    Ni4+2 0.565850 0.934160 0.130940 0.202776
Ni7   Ni    Ni4+2 0.565850 0.065840 0.130940 0.194821
Ni8   Ni    Ni4+2 0.434150 0.934160 0.869060 0.214327

loop_
_geom_bond_atom_site_label_1
_geom_bond_atom_site_label_2
_ccdc_geom_bond_type
C80   N3    A    
C19   C20   S    
C34   H23   S    
C81   H24   S    
C46   C62   A    
C50   C59   A    
C37   H28   S    
C38   H27   S    
N4    Ni3   S    
C52   C61   A    
N5    Ni6   S    
C18   H104  S    
C62   C108  S    
C54   C63   A    
C74   C114  S    
C67   N27   A    
C78   C108  A    
N10   N11   A    
C33   H15   S    
C93   H49   S    
N2    N23   A    
C83   H39   S    
C81   N4    A    
C87   N10   A    
C53   H58   S    
N21   Ni1   S    
C21   C22   S    
N25   Ni6   S    
C7    H74   S    
C64   H60   S    
C2    C117  S    
C36   H21   S    
C82   H35   S    
C20   H109  S    
C14   H93   S    
C47   H51   S    
C97   N20   A    
C48   H52   S    
C12   H95   S    
C9    H81   S    
C43   H36   S    
C30   H11   S    
C86   H42   S    
C64   C66   A    
C91   N14   A    
C37   C38   S    
C100  H100  S    
C65   C68   A    
C2    C131  S    
C92   C116  A    
C11   H86   S    
C56   C106  A    
N30   Ni7   S    
C100  N30   A    
C29   H3    S    
C82   N5    A    
C35   C51   A    
C75   C115  S    
C3    H116  S    
C28   C125  S    
C32   C127  S    
C2    C121  S    
C16   H96   S    
C111  H111  S    
N15   Ni8   S    
C38   H25   S    
C4    C5    S    
C8    H84   S    
C94   C115  A    
C18   H102  S    
C132  H115  S    
C6    C7    S    
C26   H131  S    
C45   N12   A    
C77   N32   A    
C13   C132  S    
C37   C129  S    
C68   H63   S    
C52   H57   S    
N5    N31   A    
C10   H90   S    
C99   C119  A    
C13   C127  S    
N19   Ni3   S    
C32   H18   S    
C124  C131  S    
N11   Ni1   S    
C31   H9    S    
C111  C112  A    
C121  C130  S    
C30   H12   S    
C48   C57   A    
C95   C117  A    
C90   N13   A    
N16   Ni5   S    
C85   N8    A    
C41   C58   A    
C22   H118  S    
C5    H69   S    
C68   C74   A    
C16   H97   S    
C69   C76   A    
C118  C122  S    
C12   C99   S    
C92   H48   S    
C78   H78   S    
C25   H125  S    
N14   Ni7   S    
C24   C126  S    
C3    C24   S    
C28   H7    S    
C1    H1    S    
C24   C129  S    
C130  H113  S    
C45   C105  A    
N6    Ni5   S    
C111  N31   A    
C86   N9    A    
C14   H91   S    
C51   H55   S    
C7    H75   S    
C3    C128  S    
C36   H20   S    
C23   C123  S    
C6    H79   S    
C20   H108  S    
C27   H130  S    
C46   H38   S    
C79   C106  A    
C93   C116  A    
C63   C109  S    
C83   N6    A    
C17   C102  S    
C127  C129  S    
C131  H114  S    
N6    N30   A    
C12   H94   S    
C42   C61   A    
C126  C132  S    
C17   C18   S    
C83   C110  A    
N28   Ni5   S    
N26   Ni5   S    
C15   C101  S    
N27   Ni4   S    
C102  N25   A    
N24   Ni7   S    
C58   C104  S    
C122  C124  S    
C50   H54   S    
C11   H87   S    
C13   C120  S    
C71   H66   S    
C99   N22   A    
C79   H2    S    
C126  C128  S    
C84   N7    A    
C15   H99   S    
C101  C120  A    
C84   H40   S    
C5    H71   S    
N12   Ni2   S    
C87   H43   S    
C84   C109  A    
C88   H44   S    
N20   Ni2   S    
C34   C36   S    
C10   C11   S    
C21   H121  S    
N13   Ni2   S    
C2    C125  S    
C49   H53   S    
N18   N21   A    
C34   C128  S    
C70   C75   A    
C51   C60   A    
C31   H8    S    
C61   C112  S    
N17   Ni6   S    
C90   H46   S    
C100  C110  A    
C21   H120  S    
C25   H123  S    
C4    H73   S    
C6    H77   S    
C27   H128  S    
C26   C27   S    
C59   C105  S    
N23   Ni3   S    
C86   C113  A    
N22   Ni8   S    
C28   C29   S    
C88   N11   A    
C67   H67   S    
C30   C31   S    
C123  C125  S    
C9    H80   S    
C79   N2    A    
C73   C113  S    
C44   H37   S    
N7    N29   A    
C66   H62   S    
C25   H124  S    
C39   C55   A    
C23   H126  S    
N14   N17   A    
N15   N16   A    
C85   C108  A    
C11   H85   S    
C98   N21   A    
C129  C132  S    
C17   H106  S    
N32   Ni2   S    
N2    Ni1   S    
C26   C124  S    
N7    Ni8   S    
C65   H61   S    
C34   H22   S    
C44   C63   A    
N3    N12   A    
C96   N19   A    
N22   N26   A    
C55   C106  S    
C10   H88   S    
C28   H6    S    
C38   H26   S    
C18   H103  S    
N9    N13   A    
C82   C112  A    
N9    Ni3   S    
C33   H16   S    
N10   Ni4   S    
C4    C95   S    
C19   H112  S    
C94   N17   A    
C80   H13   S    
C39   H31   S    
C102  C120  A    
C37   H29   S    
C96   C118  A    
C24   C119  S    
C123  C131  S    
C40   H32   S    
C9    H82   S    
C29   H5    S    
N1    Ni1   S    
C35   C57   A    
C32   C33   S    
N27   N32   A    
C22   H119  S    
C89   H89   S    
C89   N29   A    
C92   N15   A    
C16   H98   S    
C91   C115  A    
C88   C114  A    
C60   C110  S    
C29   H4    S    
C64   C74   A    
C94   H50   S    
C42   H34   S    
C44   C49   A    
C30   C126  S    
C72   C76   A    
C8    H83   S    
N18   Ni4   S    
C14   H92   S    
C3    C127  S    
C4    H72   S    
C26   H132  S    
C15   C16   S    
C27   H129  S    
C89   C109  A    
C65   C73   A    
C69   C71   A    
C90   C113  A    
C97   C118  A    
C10   C98   S    
C87   C114  A    
C19   H110  S    
C13   C128  S    
C19   C103  S    
C125  C130  S    
C32   H17   S    
C56   H56   S    
C8    C9    S    
C93   N16   A    
C41   H33   S    
C85   H41   S    
C43   C48   A    
C45   H45   S    
C39   C52   A    
C23   H127  S    
C40   C59   A    
N8    Ni7   S    
C35   H30   S    
C54   H59   S    
C77   C107  A    
C22   H117  S    
C33   H14   S    
C5    H70   S    
C103  N26   A    
C66   C73   A    
C80   C105  A    
C69   H64   S    
C49   C58   A    
C101  N24   A    
C91   H47   S    
C8    C97   S    
C72   H68   S    
C53   C62   A    
C95   N18   A    
C15   H101  S    
N3    Ni4   S    
C1    C104  A    
C43   C60   A    
C57   C107  S    
C12   C14   S    
C70   H65   S    
C6    C96   S    
N19   N20   A    
C98   C117  A    
C47   C55   A    
C103  C119  A    
C77   H122  S    
C7    H76   S    
C36   H19   S    
C78   N28   A    
C20   H107  S    
C46   C50   A    
N24   N25   A    
C31   H10   S    
N29   Ni6   S    
N8    N28   A    
C71   C75   A    
C67   C107  A    
C76   C116  S    
C56   N23   A    
C42   C47   A    
C23   C25   S    
C21   C121  S    
N1    N4    A    
C41   C54   A    
C1    N1    A    
C40   C53   A    
C121  C124  S    
C70   C72   A    
C122  C123  S    
C122  C130  S    
N31   Ni8   S    
C81   C104  A    
C17   H105  S    
