data_mof_unit_13433.cif
_audit_creation_date              2012-12-11T14:08:36-0500
_audit_creation_method            fapswitch 2.2
_symmetry_space_group_name_H-M    P1
_symmetry_Int_Tables_number       1
_space_group_crystal_system       triclinic
_cell_length_a                    28.140032
_cell_length_b                    7.204609
_cell_length_c                    17.21997
_cell_angle_alpha                 90.442683
_cell_angle_beta                  101.358673
_cell_angle_gamma                 90.176479
_cell_volume                      3422.62189389

loop_
_atom_site_label
_atom_site_type_symbol
_atom_type_description
_atom_site_fract_x
_atom_site_fract_y
_atom_site_fract_z
_atom_type_partial_charge
O1    O     O_R   0.000700 0.436510 0.857920 -0.530643
O2    O     O_R   0.999300 0.563490 0.142080 -0.530591
O3    O     O_R   0.999300 0.936510 0.642080 -0.536149
O4    O     O_R   0.000700 0.063490 0.357920 -0.536135
O5    O     O_R   0.930080 0.766380 0.721890 -0.543533
O6    O     O_R   0.069920 0.233620 0.278110 -0.543538
O7    O     O_R   0.069920 0.266380 0.778110 -0.515315
O8    O     O_R   0.930080 0.733620 0.221890 -0.515281
C1    C     C_R   0.910565 0.597225 0.708067 0.724858
C2    C     C_R   0.089417 0.402772 0.292136 0.724952
C3    C     C_R   0.089323 0.098611 0.791664 0.740792
C4    C     C_R   0.910693 0.901350 0.208140 0.740835
O9    O     O_R   0.996180 0.766230 0.862310 -0.545678
O10   O     O_R   0.003820 0.233770 0.137690 -0.545684
O11   O     O_R   0.003820 0.266230 0.637690 -0.546948
O12   O     O_R   0.996180 0.733770 0.362310 -0.546961
O13   O     O_R   0.065870 0.936460 0.783500 -0.546439
O14   O     O_R   0.934130 0.063540 0.216500 -0.546474
O15   O     O_R   0.934130 0.436460 0.716500 -0.514274
O16   O     O_R   0.065870 0.563540 0.283500 -0.514230
C5    C     C_R   0.998488 0.596751 0.894550 0.765471
C6    C     C_R   0.001510 0.403249 0.105450 0.765701
C7    C     C_R   0.001509 0.096130 0.605617 0.758231
C8    C     C_R   0.998493 0.903869 0.394383 0.758373
O17   O     O_3   0.022790 0.603020 0.723980 -0.380509
O18   O     O_3   0.977210 0.396980 0.276020 -0.380517
O19   O     O_3   0.977210 0.103020 0.776020 -0.372491
O20   O     O_3   0.022790 0.896980 0.223980 -0.372485
V1    V     V_3+5 0.995770 0.877900 0.754830 1.441875
V2    V     V_3+5 0.004230 0.122100 0.245170 1.441922
V3    V     V_3+5 0.004230 0.377900 0.745170 1.473550
V4    V     V_3+5 0.995770 0.622100 0.254830 1.473565
C9    C     C_2   0.001697 0.082381 0.519776 -0.330535
C10   C     C_2   0.998308 0.917618 0.480226 -0.330731
C11   C     C_2   0.998314 0.582691 0.980619 -0.320491
C12   C     C_2   0.001680 0.417308 0.019379 -0.320547
H1    H     H_    0.004466 0.211078 0.488484 0.150792
H2    H     H_    0.995540 0.788920 0.511518 0.150822
H3    H     H_    0.995555 0.711325 0.012698 0.152594
H4    H     H_    0.004439 0.288674 0.987300 0.152598
C13   C     C_R   0.683076 0.898437 0.028344 0.641361
C14   C     C_R   0.317180 0.099308 0.969042 0.640984
C15   C     C_R   0.317597 0.372028 0.471195 0.680442
C16   C     C_R   0.682061 0.626953 0.531591 0.679242
O21   O     O_2   0.713306 0.871012 0.977535 -0.480360
O22   O     O_2   0.287023 0.126146 0.020013 -0.481171
O23   O     O_2   0.288523 0.296928 0.516276 -0.469838
O24   O     O_2   0.711054 0.700171 0.485926 -0.470487
N1    N     N_R   0.702392 0.931648 0.106816 -0.547229
N2    N     N_R   0.297766 0.067309 0.890525 -0.547166
N3    N     N_R   0.297467 0.427791 0.396119 -0.555137
N4    N     N_R   0.702314 0.572891 0.606852 -0.554992
C17   C     C_R   0.672799 0.972515 0.158798 0.677916
C18   C     C_R   0.327252 0.026903 0.838315 0.677353
C19   C     C_R   0.325257 0.505060 0.348095 0.670333
C20   C     C_R   0.674590 0.497806 0.655500 0.671517
C21   C     C_R   0.781102 0.079338 0.170997 0.322657
C22   C     C_R   0.218867 0.920345 0.826854 0.322544
C23   C     C_R   0.222444 0.262296 0.331407 0.322024
C24   C     C_R   0.777576 0.737843 0.670833 0.322265
C25   C     C_R   0.831569 0.068683 0.195299 -0.291444
C26   C     C_R   0.168354 0.931122 0.803310 -0.291805
C27   C     C_R   0.171906 0.258823 0.306769 -0.278053
C28   C     C_R   0.828162 0.741249 0.694672 -0.278389
C29   C     C_R   0.830543 0.755285 0.142473 0.175083
C30   C     C_R   0.169719 0.244452 0.856307 0.175304
C31   C     C_R   0.166878 0.571758 0.358804 0.191280
C32   C     C_R   0.832849 0.428337 0.642428 0.191324
C33   C     C_R   0.779886 0.764453 0.120451 -0.128596
C34   C     C_R   0.220408 0.235140 0.877590 -0.128535
C35   C     C_R   0.217648 0.573341 0.383116 -0.141567
C36   C     C_R   0.782026 0.426824 0.618898 -0.141755
C37   C     C_R   0.754544 0.924865 0.134219 0.283982
C38   C     C_R   0.245599 0.074640 0.863406 0.284519
C39   C     C_R   0.245525 0.420287 0.369764 0.283451
C40   C     C_R   0.754295 0.579919 0.632754 0.283766
C41   C     C_R   0.601928 0.959091 0.051672 -0.090993
C42   C     C_R   0.398260 0.039220 0.945213 -0.089920
C43   C     C_R   0.397522 0.467302 0.451176 -0.095000
C44   C     C_R   0.602161 0.534073 0.552627 -0.093896
C45   C     C_R   0.632096 0.900374 0.999915 -0.105892
C46   C     C_R   0.368163 0.096755 0.997322 -0.105208
C47   C     C_R   0.368120 0.395047 0.501483 -0.077868
C48   C     C_R   0.631495 0.604207 0.501725 -0.077892
C49   C     C_R   0.611046 0.857426 0.920338 0.205343
C50   C     C_R   0.389284 0.137465 0.077097 0.204629
C51   C     C_R   0.389185 0.363001 0.581700 0.174440
C52   C     C_R   0.610307 0.634217 0.421389 0.174183
C53   C     C_R   0.622990 0.000561 0.131175 -0.034861
C54   C     C_R   0.377098 0.998824 0.865674 -0.033915
C55   C     C_R   0.375507 0.526433 0.374608 -0.044153
C56   C     C_R   0.624285 0.476796 0.629394 -0.042439
C57   C     C_R   0.856982 0.907554 0.181859 -0.091443
C58   C     C_R   0.143080 0.092238 0.817272 -0.091339
C59   C     C_R   0.143299 0.412468 0.319475 -0.113432
C60   C     C_R   0.856630 0.587609 0.681425 -0.113409
H5    H     H_    0.760117 0.647003 0.090293 0.185289
H6    H     H_    0.240333 0.352462 0.907581 0.184808
H7    H     H_    0.235819 0.693783 0.413528 0.165003
H8    H     H_    0.763701 0.306458 0.588671 0.164704
C61   C     C_R   0.478544 0.954803 0.918906 0.088792
C62   C     C_R   0.521646 0.043577 0.077598 0.087896
C63   C     C_R   0.522101 0.446095 0.579252 0.081715
C64   C     C_R   0.477568 0.556020 0.425138 0.080340
C65   C     C_R   0.470198 0.054936 0.052893 -0.047347
C66   C     C_R   0.530038 0.942272 0.943733 -0.046899
C67   C     C_R   0.529230 0.560327 0.447549 -0.036461
C68   C     C_R   0.470373 0.440233 0.556590 -0.035174
C69   C     C_R   0.449335 0.020145 0.972196 0.039263
C70   C     C_R   0.550875 0.977934 0.024443 0.038607
C71   C     C_R   0.550897 0.516589 0.526635 0.041235
C72   C     C_R   0.448754 0.484818 0.477509 0.040545
C73   C     C_R   0.454389 0.888307 0.844288 -0.068225
C74   C     C_R   0.545653 0.111342 0.152088 -0.070870
C75   C     C_R   0.546653 0.366837 0.650212 -0.072592
C76   C     C_R   0.453186 0.637475 0.354587 -0.074736
C77   C     C_R   0.405436 0.919996 0.816295 -0.097891
C78   C     C_R   0.594591 0.080138 0.180280 -0.096231
C79   C     C_R   0.596241 0.388459 0.676593 -0.091405
C80   C     C_R   0.403606 0.616616 0.328003 -0.088264
O25   O     O_2   0.308403 0.012372 0.760124 -0.482607
O26   O     O_2   0.691503 0.987482 0.237030 -0.482643
O27   O     O_2   0.695737 0.442339 0.728831 -0.479685
O28   O     O_2   0.304227 0.562203 0.274959 -0.479139
C81   C     C_R   0.562080 0.902147 0.890844 0.209561
C82   C     C_R   0.438273 0.092710 0.106111 0.210074
C83   C     C_R   0.438812 0.401649 0.610362 0.196028
C84   C     C_R   0.560607 0.596369 0.393310 0.196798
H9    H     H_    0.148767 0.812182 0.774103 0.171976
H10   H     H_    0.851011 0.187724 0.224684 0.171975
H11   H     H_    0.845130 0.864626 0.724297 0.186727
H12   H     H_    0.155089 0.135415 0.276949 0.186809
H13   H     H_    0.389331 0.872636 0.757041 0.182180
H14   H     H_    0.610614 0.128079 0.239484 0.183266
H15   H     H_    0.612720 0.329805 0.733222 0.201031
H16   H     H_    0.387205 0.676724 0.271638 0.203348
H17   H     H_    0.472274 0.802821 0.807669 0.211697
H18   H     H_    0.527537 0.196758 0.188510 0.210782
H19   H     H_    0.528254 0.278313 0.684367 0.219528
H20   H     H_    0.471858 0.726443 0.320908 0.218939
N5    N     N_3   0.854988 0.593755 0.121570 -0.639264
H21   H     H_    0.845737 0.575443 0.060140 0.240775
H22   H     H_    0.842175 0.478822 0.147907 0.256350
N6    N     N_3   0.145464 0.406049 0.877619 -0.639285
H23   H     H_    0.155058 0.424381 0.939017 0.241006
H24   H     H_    0.158112 0.520936 0.851027 0.256403
N7    N     N_3   0.139446 0.729768 0.375826 -0.622674
H25   H     H_    0.162438 0.840640 0.397601 0.241712
H26   H     H_    0.121601 0.692000 0.421185 0.217419
N8    N     N_3   0.860120 0.270289 0.624955 -0.622823
H27   H     H_    0.837034 0.159486 0.603452 0.241767
H28   H     H_    0.877695 0.308052 0.579270 0.217659
N9    N     N_3   0.639743 0.770708 0.869412 -0.511170
H29   H     H_    0.618376 0.727325 0.815762 0.270543
H30   H     H_    0.652924 0.646397 0.896249 0.251159
N10   N     N_3   0.360652 0.221757 0.128709 -0.512664
H31   H     H_    0.382028 0.262447 0.182764 0.271863
H32   H     H_    0.347607 0.347309 0.102923 0.251560
N11   N     N_3   0.359475 0.301776 0.635582 -0.531900
H33   H     H_    0.375542 0.185589 0.665874 0.271165
H34   H     H_    0.357007 0.407939 0.676281 0.286213
N12   N     N_3   0.639928 0.692341 0.366858 -0.533136
H35   H     H_    0.624014 0.808103 0.336014 0.271832
H36   H     H_    0.642014 0.584669 0.326664 0.285279
Br1   Br    Br    0.249142 0.688222 0.811546 -0.535395
Br2   Br    Br    0.750670 0.311520 0.185644 -0.535857
Br3   Br    Br    0.741057 0.950586 0.691196 -0.455526
Br4   Br    Br    0.259180 0.049688 0.311623 -0.456838
Br5   Br    Br    0.547442 0.969534 0.780038 -0.564185
Br6   Br    Br    0.453306 0.020509 0.216300 -0.560190
Br7   Br    Br    0.456817 0.448128 0.723647 -0.593146
Br8   Br    Br    0.541955 0.546435 0.280349 -0.585907

loop_
_geom_bond_atom_site_label_1
_geom_bond_atom_site_label_2
_ccdc_geom_bond_type
O17   V3    S    
C47   C51   A    
C22   C26   A    
C50   C82   A    
O13   V1    S    
O3    C7    A    
C11   C12   D    
C14   C46   A    
C44   C48   A    
C77   H13   S    
C51   C83   A    
C52   N12   S    
C42   C54   A    
O1    C5    A    
C66   C81   A    
C41   C53   A    
C32   C60   A    
C43   C72   A    
C82   Br6   S    
C63   C71   A    
N10   H31   S    
N7    H26   S    
C56   C79   A    
N3    C39   S    
C67   C84   A    
C18   C54   A    
C17   O26   S    
N5    H22   S    
C66   C70   A    
O4    C8    A    
C29   C33   A    
C31   C35   A    
C30   N6    S    
C83   Br7   S    
C27   C59   A    
C15   C47   A    
O1    V3    S    
C61   C73   A    
O19   V1    S    
C62   C65   A    
O2    V4    S    
C14   O22   S    
C21   C37   A    
O3    V1    S    
C22   Br1   S    
C50   N10   S    
C34   C38   A    
C19   C55   A    
C64   C76   A    
C49   C81   A    
C1    O15   A    
N7    H25   S    
C2    O16   A    
C7    C9    S    
O2    C6    A    
N11   H34   S    
C33   C37   A    
C63   C68   A    
O14   V2    S    
N9    H30   S    
C81   Br5   S    
N12   H36   S    
C78   H14   S    
C36   C40   A    
C30   C58   A    
C68   C72   A    
C16   N4    A    
O11   C7    A    
C61   C69   A    
O15   V3    S    
O12   C8    A    
C31   C59   A    
C26   H9    S    
C67   C71   A    
O10   V2    S    
C13   N1    A    
C45   C49   A    
O7    C3    A    
O5    V1    S    
C24   Br3   S    
O7    V3    S    
O8    V4    S    
C20   O27   S    
C12   H4    S    
C28   C60   A    
N6    H24   S    
C55   C80   A    
C64   C72   A    
O18   V4    S    
C21   Br2   S    
N4    C40   S    
C46   C50   A    
C35   H7    S    
C24   C40   A    
C8    C10   S    
C76   C80   A    
C32   C36   A    
C80   H16   S    
C44   C56   A    
C11   H3    S    
C54   C77   A    
O5    C1    A    
C63   C75   A    
C62   C74   A    
N8    H28   S    
C29   N5    S    
C42   C46   A    
N11   H33   S    
C28   H11   S    
C41   C45   A    
O8    C4    A    
C13   C45   A    
C9    C10   D    
O9    C5    A    
C49   N9    S    
C27   H12   S    
O11   V3    S    
C1    C60   S    
C74   C78   A    
C25   H10   S    
C14   N2    A    
C73   C77   A    
C65   C82   A    
C3    C58   S    
O6    V2    S    
C18   O25   S    
C75   H19   S    
C84   Br8   S    
C75   C79   A    
C26   C58   A    
C17   C53   A    
N1    C37   S    
C4    C57   S    
C62   C70   A    
C23   C39   A    
C22   C38   A    
C9    H1    S    
N12   H35   S    
O16   V4    S    
O9    V1    S    
C61   C66   A    
C65   C69   A    
C19   O28   S    
C3    O13   A    
C10   H2    S    
C43   C55   A    
C48   C52   A    
N6    H23   S    
C16   C48   A    
C36   H8    S    
C21   C25   A    
C5    C11   S    
O12   V4    S    
C6    C12   S    
C23   C27   A    
C24   C28   A    
C73   H17   S    
O10   C6    A    
N2    C38   S    
O20   V2    S    
N2    C18   A    
N5    H21   S    
C35   C39   A    
C15   N3    A    
C30   C34   A    
N4    C20   A    
C2    C59   S    
N1    C17   A    
C44   C71   A    
N10   H32   S    
C29   C57   A    
C51   N11   S    
C42   C69   A    
N3    C19   A    
C74   H18   S    
C68   C83   A    
C41   C70   A    
C79   H15   S    
C32   N8    S    
O6    C2    A    
C43   C47   A    
C16   O24   S    
C20   C56   A    
C53   C78   A    
C52   C84   A    
C31   N7    S    
C4    O14   A    
C13   O21   S    
N8    H27   S    
N9    H29   S    
C25   C57   A    
C15   O23   S    
C64   C67   A    
O4    V2    S    
C23   Br4   S    
C34   H6    S    
C76   H20   S    
C33   H5    S    
