data_mof_unit_39556.cif
_audit_creation_date              2012-12-10T16:52:39-0500
_audit_creation_method            fapswitch 2.2
_symmetry_space_group_name_H-M    P1
_symmetry_Int_Tables_number       1
_space_group_crystal_system       triclinic
_cell_length_a                    7.839832
_cell_length_b                    8.569205
_cell_length_c                    13.794689
_cell_angle_alpha                 93.316141
_cell_angle_beta                  93.176846
_cell_angle_gamma                 94.245961
_cell_volume                      920.991356774

loop_
_atom_site_label
_atom_site_type_symbol
_atom_type_description
_atom_site_fract_x
_atom_site_fract_y
_atom_site_fract_z
_atom_type_partial_charge
C1    C     C_R   0.045183 0.794678 0.497549 0.964571
C2    C     C_R   0.936228 0.486122 0.318113 0.866345
C3    C     C_R   0.092487 0.517951 0.787021 -0.058728
C4    C     C_R   0.899355 0.452624 0.214653 -0.069118
C5    C     C_R   0.033909 0.620711 0.947188 -0.189851
C6    C     C_R   0.920173 0.285244 0.069679 -0.191218
C7    C     C_R   0.985789 0.595536 0.848590 -0.194843
C8    C     C_R   0.986111 0.342155 0.161900 -0.190026
C9    C     C_R   0.237994 0.454517 0.824823 -0.275377
C10   C     C_R   0.752267 0.509411 0.174467 -0.278091
C11   C     C_R   0.288253 0.476574 0.923442 0.087210
C12   C     C_R   0.954798 0.205315 0.502379 0.965851
C13   C     C_R   0.673096 0.440822 0.087918 0.091623
C14   C     C_R   0.187807 0.567174 0.984197 0.179671
C15   C     C_R   0.762498 0.331843 0.032980 0.174182
C16   C     C_R   0.442844 0.421541 0.961061 0.062516
C17   C     C_R   0.507188 0.477162 0.055503 0.062495
C18   C     C_R   0.401645 0.563279 0.115553 -0.236646
C19   C     C_R   0.535013 0.313022 0.907496 -0.230478
C20   C     C_R   0.244055 0.606231 0.080360 -0.222251
C21   C     C_R   0.691639 0.268369 0.943483 -0.225582
C22   C     C_2   0.068621 0.958444 0.496091 -0.387916
C23   C     C_2   0.931335 0.041542 0.503738 -0.385360
C24   C     C_R   0.063109 0.510885 0.682007 0.867835
H1    H     H_    0.167471 0.673135 0.128187 0.149923
H2    H     H_    0.988533 0.200557 0.028870 0.138392
H3    H     H_    0.197906 0.010036 0.488781 0.179178
H4    H     H_    0.802047 0.989952 0.511038 0.179009
H5    H     H_    0.487099 0.374477 0.427629 0.189504
H6    H     H_    0.512896 0.625566 0.572336 0.188737
H7    H     H_    0.757453 0.183691 0.901035 0.146594
H8    H     H_    0.434805 0.595354 0.191323 0.157103
H9    H     H_    0.486083 0.255295 0.839016 0.148094
H10   H     H_    0.698191 0.603321 0.214919 0.149579
H11   H     H_    0.316737 0.397271 0.774325 0.159091
H12   H     H_    0.100725 0.296550 0.193028 0.159621
H13   H     H_    0.870722 0.643416 0.819868 0.157881
H14   H     H_    0.954294 0.686568 0.993730 0.140745
N1    N     N_2   0.440860 0.456490 0.474790 -0.174643
N2    N     N_2   0.559140 0.543510 0.525210 -0.173916
O1    O     O_R   0.891570 0.738930 0.506190 -0.611465
O2    O     O_R   0.108430 0.261070 0.493810 -0.611942
O3    O     O_R   0.174650 0.711050 0.490030 -0.625064
O4    O     O_R   0.825350 0.288950 0.509970 -0.624257
O5    O     O_R   0.909850 0.521900 0.644940 -0.615929
O6    O     O_R   0.090150 0.478100 0.355060 -0.618964
O7    O     O_R   0.192930 0.494020 0.628780 -0.622142
O8    O     O_R   0.807070 0.505980 0.371220 -0.616994
Zn1   Zn    Zn3+2 0.810990 0.518620 0.510790 0.934357
Zn2   Zn    Zn3+2 0.189010 0.481380 0.489210 0.930693

loop_
_geom_bond_atom_site_label_1
_geom_bond_atom_site_label_2
_ccdc_geom_bond_type
O4    Zn1   S    
C2    C4    S    
C5    C7    A    
O3    Zn2   S    
C3    C9    A    
O5    Zn1   S    
C9    C11   A    
C11   C16   A    
O6    Zn2   S    
C18   C20   A    
C13   C17   A    
C4    C8    A    
H5    N1    S    
C17   C18   A    
C7    H13   S    
H6    N2    S    
C1    C22   S    
C12   O4    A    
C5    H14   S    
C2    O6    A    
C21   H7    S    
C12   C23   S    
C5    C14   A    
C6    H2    S    
O2    Zn2   S    
C16   C19   A    
C6    C8    A    
C24   O5    A    
O1    Zn1   S    
O8    Zn1   S    
C19   C21   A    
O7    Zn2   S    
C3    C7    A    
C22   H3    S    
C13   C15   A    
C8    H12   S    
C11   C14   A    
C18   H8    S    
C20   H1    S    
C4    C10   A    
N2    Zn1   S    
C14   C20   A    
C15   C21   A    
N1    Zn2   S    
C10   H10   S    
C19   H9    S    
C1    O1    A    
N1    N2    D    
C9    H11   S    
C22   C23   D    
C12   O2    A    
C2    O8    A    
C6    C15   A    
C23   H4    S    
C24   O7    A    
C1    O3    A    
C3    C24   S    
C16   C17   A    
C10   C13   A    
