data_mof_unit_30219.cif
_audit_creation_date              2012-12-10T20:45:29-0500
_audit_creation_method            fapswitch 2.2
_symmetry_space_group_name_H-M    P1
_symmetry_Int_Tables_number       1
_space_group_crystal_system       triclinic
_cell_length_a                    10.839847
_cell_length_b                    10.655117
_cell_length_c                    9.902516
_cell_angle_alpha                 89.782414
_cell_angle_beta                  91.368496
_cell_angle_gamma                 90.064167
_cell_volume                      1143.40391769

loop_
_atom_site_label
_atom_site_type_symbol
_atom_type_description
_atom_site_fract_x
_atom_site_fract_y
_atom_site_fract_z
_atom_type_partial_charge
C1    C     C_R   0.499602 0.260296 0.500232 0.880038
C2    C     C_R   0.194838 0.520517 0.977147 -0.149830
C3    C     C_R   0.930160 0.524313 0.383132 -0.251140
C4    C     C_R   0.872180 0.503611 0.505450 -0.095641
C5    C     C_R   0.942129 0.481925 0.624987 -0.014287
C6    C     C_R   0.068530 0.478376 0.617422 -0.217674
C7    C     C_R   0.126822 0.498779 0.495251 -0.094821
C8    C     C_R   0.056455 0.519229 0.375847 0.008052
C9    C     C_R   0.883617 0.559519 0.851830 -0.125211
C10   C     C_R   0.846219 0.536717 0.983735 -0.130932
C11   C     C_R   0.816647 0.414746 0.024238 -0.130219
C12   C     C_R   0.259823 0.498965 0.498121 0.872748
C13   C     C_R   0.820432 0.316140 0.931778 -0.115068
C14   C     C_R   0.856649 0.338845 0.799373 -0.065850
C15   C     C_R   0.889765 0.460383 0.759369 0.156430
C16   C     C_R   0.545542 0.063150 0.609839 0.138667
C17   C     C_R   0.491824 0.128293 0.501814 -0.091773
C18   C     C_R   0.424518 0.065351 0.400243 -0.220034
C19   C     C_R   0.423907 0.935503 0.399863 -0.224703
C20   C     C_R   0.489883 0.871322 0.501676 -0.094289
C21   C     C_R   0.543743 0.934982 0.610133 0.135984
C22   C     C_3   0.673522 0.925273 0.663119 -0.481814
C23   C     C_R   0.498238 0.739555 0.499838 0.877408
C24   C     C_3   0.676670 0.067200 0.660594 -0.510176
C25   C     C_R   0.528253 0.394316 0.071965 0.201706
C26   C     C_R   0.486083 0.608694 0.071092 -0.116572
C27   C     C_R   0.485483 0.608664 0.927333 -0.150843
C28   C     C_R   0.530188 0.394741 0.930274 0.229845
C29   C     C_3   0.470652 0.269267 0.922083 -0.471077
C30   C     C_3   0.465696 0.269981 0.075545 -0.491333
C31   C     C_R   0.739842 0.501080 0.501980 0.864149
C32   C     C_R   0.192969 0.632341 0.050574 -0.193559
C33   C     C_R   0.149299 0.632850 0.182044 -0.126873
C34   C     C_R   0.107474 0.520917 0.239841 0.105407
C35   C     C_R   0.106248 0.409844 0.164679 -0.169762
C36   C     C_R   0.148662 0.409632 0.033032 0.292601
H1    H     H_    0.233270 0.520810 0.877867 0.164228
H2    H     H_    0.789761 0.396490 0.126943 0.138906
H3    H     H_    0.796813 0.221955 0.963298 0.130525
H4    H     H_    0.863226 0.261528 0.729422 0.126442
H5    H     H_    0.376247 0.116046 0.320067 0.166388
H6    H     H_    0.375887 0.885786 0.319041 0.156965
H7    H     H_    0.678394 0.885060 0.766887 0.203155
H8    H     H_    0.736676 0.881369 0.590070 0.198902
H9    H     H_    0.686751 0.108352 0.762868 0.193819
H10   H     H_    0.740507 0.106175 0.584727 0.198228
H11   H     H_    0.471509 0.695858 0.123818 0.149138
H12   H     H_    0.226960 0.718251 0.006122 0.145065
H13   H     H_    0.470274 0.695778 0.873251 0.154137
H14   H     H_    0.380308 0.273069 0.868268 0.260814
H15   H     H_    0.533994 0.196797 0.884050 0.191166
H16   H     H_    0.370792 0.275786 0.114821 0.237544
H17   H     H_    0.525130 0.196817 0.123882 0.199328
H18   H     H_    0.148479 0.719559 0.238733 0.125917
H19   H     H_    0.070447 0.324029 0.207899 0.154026
H20   H     H_    0.877084 0.541699 0.290977 0.163147
H21   H     H_    0.121190 0.455867 0.707700 0.191548
H22   H     H_    0.909948 0.653630 0.822386 0.125772
H23   H     H_    0.842222 0.613223 0.055008 0.129856
N1    N     N_R   0.499160 0.499140 0.142800 -0.103820
N2    N     N_R   0.499160 0.499180 0.857150 -0.108633
O1    O     O_R   0.500020 0.316790 0.614690 -0.615944
O2    O     O_R   0.500000 0.316760 0.385350 -0.626215
O3    O     O_R   0.316770 0.500030 0.614670 -0.628141
O4    O     O_R   0.316750 0.499990 0.385330 -0.607031
O5    O     O_R   0.500000 0.683240 0.614650 -0.625592
O6    O     O_R   0.499980 0.683210 0.385310 -0.630795
O7    O     O_R   0.683250 0.500010 0.614670 -0.612875
O8    O     O_R   0.683230 0.499970 0.385330 -0.630350
Zn1   Zn    Zn3+2 0.500010 0.500020 0.653130 0.950191
Zn2   Zn    Zn3+2 0.499990 0.499980 0.346870 0.944894
Br1   Br    Br    0.137833 0.258069 0.930914 -0.640259

loop_
_geom_bond_atom_site_label_1
_geom_bond_atom_site_label_2
_ccdc_geom_bond_type
N2    Zn1   S    
C13   C14   A    
C11   H2    S    
C19   H6    S    
C16   C21   A    
C25   N1    A    
O3    Zn1   S    
C11   C13   A    
C12   O4    A    
O5    Zn1   S    
C1    C17   S    
C19   C20   A    
C2    H1    S    
C20   C23   S    
C33   H18   S    
C24   H10   S    
C28   N2    A    
C33   C34   A    
C9    C15   A    
C7    C8    A    
C16   C24   S    
C10   H23   S    
C8    C34   S    
C21   C22   S    
C32   C33   A    
C25   C28   A    
C32   H12   S    
C6    H21   S    
C26   C27   A    
C29   C30   S    
C26   H11   S    
C24   H9    S    
C1    O2    A    
C23   O5    A    
C2    C32   A    
C28   C29   S    
C29   H15   S    
C9    H22   S    
C6    C7    A    
O6    Zn2   S    
C29   H14   S    
C3    C8    A    
C17   C18   A    
C5    C6    A    
C12   O3    A    
C30   H17   S    
C22   C24   S    
C7    C12   S    
C5    C15   S    
C4    C31   S    
C13   H3    S    
C10   C11   A    
C14   H4    S    
C3    C4    A    
C9    C10   A    
C36   Br1   S    
C31   O8    A    
C2    C36   A    
C20   C21   A    
O1    Zn1   S    
C1    O1    A    
O7    Zn1   S    
C34   C35   A    
C3    H20   S    
C18   H5    S    
C23   O6    A    
C25   C30   S    
O8    Zn2   S    
C30   H16   S    
C14   C15   A    
C18   C19   A    
C35   C36   A    
C27   N2    A    
N1    Zn2   S    
O4    Zn2   S    
C26   N1    A    
C31   O7    A    
C35   H19   S    
C22   H8    S    
C27   H13   S    
C16   C17   A    
O2    Zn2   S    
C4    C5    A    
C22   H7    S    
