data_mof_unit_62185.cif
_audit_creation_date              2012-10-26T18:11:25-0400
_audit_creation_method            fapswitch 2.2
_symmetry_space_group_name_H-M    P1
_symmetry_Int_Tables_number       1
_space_group_crystal_system       triclinic
_cell_length_a                    18.584485
_cell_length_b                    18.674924
_cell_length_c                    18.895027
_cell_angle_alpha                 109.229959
_cell_angle_beta                  109.742448
_cell_angle_gamma                 108.829336
_cell_volume                      5085.70392541

loop_
_atom_site_label
_atom_site_type_symbol
_atom_type_description
_atom_site_fract_x
_atom_site_fract_y
_atom_site_fract_z
_atom_type_partial_charge
C1    C     C_R   0.618900 0.618976 0.499874 0.550258
C2    C     C_R   0.686214 0.686660 0.500586 0.006191
C3    C     C_R   0.710030 0.546532 0.774225 -0.123608
C4    C     C_R   0.381276 0.501058 0.381188 0.547529
C5    C     C_R   0.775137 0.548329 0.840326 -0.019640
C6    C     C_R   0.817036 0.500849 0.818321 0.035735
C7    C     C_R   0.794155 0.453168 0.732204 -0.153832
C8    C     C_R   0.729276 0.451893 0.667044 -0.148609
C9    C     C_R   0.687058 0.498869 0.687668 0.004740
C10   C     C_R   0.240546 0.320952 0.497821 -0.137726
C11   C     C_R   0.175766 0.256045 0.496426 -0.135004
C12   C     C_3   0.215139 0.428353 0.179437 -0.144670
C13   C     C_R   0.186066 0.186169 0.500478 0.027462
C14   C     C_R   0.260581 0.180617 0.504532 -0.136862
C15   C     C_R   0.323917 0.243986 0.502985 -0.134720
C16   C     C_R   0.381048 0.381233 0.500027 0.549901
C17   C     C_R   0.314280 0.314536 0.500348 0.028148
C18   C     C_R   0.003657 0.618500 0.123082 0.541798
C19   C     C_R   0.123606 0.500617 0.123775 0.539008
C20   C     C_R   0.005082 0.381270 0.886380 0.589544
C21   C     C_R   0.884255 0.499606 0.883927 0.566749
C22   C     C_R   0.002201 0.881876 0.382629 0.585330
C23   C     C_3   0.217013 0.433975 0.263656 -0.117490
C24   C     C_R   0.881220 0.882596 0.501221 0.556451
C25   C     C_R   0.997892 0.118691 0.617472 0.542890
C26   C     C_R   0.118997 0.118983 0.500142 0.548081
C27   C     C_R   0.014524 0.761330 0.189663 -0.178074
C28   C     C_R   0.619732 0.499416 0.619779 0.553568
C29   C     C_R   0.011230 0.824513 0.250620 -0.199162
C30   C     C_R   0.004334 0.814749 0.318492 0.015244
C31   C     C_R   0.000138 0.741109 0.325567 0.252033
C32   C     C_R   0.989182 0.670779 0.256797 0.000931
C33   C     C_R   0.002805 0.683992 0.191214 -0.025292
C34   C     C_3   0.314298 0.503141 0.314978 0.026669
C35   C     C_R   0.076810 0.302385 0.833559 -0.069950
C36   C     C_R   0.071378 0.237111 0.765552 -0.153648
C37   C     C_R   0.996576 0.186795 0.683340 -0.040751
C38   C     C_R   0.923786 0.202068 0.667312 -0.014141
C39   C     C_R   0.925507 0.261839 0.737557 0.241106
C40   C     C_3   0.291613 0.577138 0.328248 0.022157
C41   C     C_R   0.002931 0.314085 0.818306 0.024598
C42   C     C_3   0.193734 0.507854 0.276411 0.008984
C43   C     C_3   0.192306 0.502224 0.192736 0.031382
C44   C     C_3   0.290403 0.570554 0.244219 0.007201
C45   C     C_R   0.741758 0.768171 0.575360 -0.122244
C46   C     C_3   0.313758 0.496796 0.231595 -0.130986
C47   C     C_3   0.122805 0.509472 0.299920 -0.254099
C48   C     C_3   0.129337 0.487138 0.372289 -0.299524
C49   C     C_3   0.066331 0.501313 0.402727 -0.463330
C50   C     C_3   0.798788 0.602082 0.932829 -0.253197
C51   C     C_3   0.736008 0.550903 0.955581 -0.295950
C52   C     C_3   0.754015 0.607143 0.045798 -0.456753
C53   C     C_3   0.334874 0.660467 0.414635 -0.233768
C54   C     C_3   0.308726 0.728136 0.404315 -0.304426
C55   C     C_3   0.317467 0.789309 0.487545 -0.464523
C56   C     C_R   0.806690 0.834524 0.577908 -0.018050
C57   C     C_3   0.082298 0.755896 0.455270 -0.004434
C58   C     C_3   0.079634 0.745493 0.530953 -0.369257
C59   C     C_3   0.959091 0.583049 0.253762 -0.219375
C60   C     C_3   0.858995 0.524678 0.198508 -0.279829
C61   C     C_3   0.810622 0.558235 0.240158 -0.418043
C62   C     C_3   0.158610 0.358298 0.923098 -0.244119
C63   C     C_3   0.235307 0.339773 0.933022 -0.309810
C64   C     C_3   0.312182 0.397522 0.025207 -0.457602
C65   C     C_3   0.846426 0.159980 0.576993 -0.217063
C66   C     C_3   0.869651 0.207237 0.528441 -0.269089
C67   C     C_R   0.814541 0.817612 0.502982 0.040307
C68   C     C_3   0.798045 0.158025 0.433964 -0.453221
C69   C     C_3   0.792571 0.215778 0.731260 -0.012437
C70   C     C_3   0.712506 0.228266 0.710449 -0.374179
C71   C     C_3   0.332870 0.644097 0.227828 -0.240054
C72   C     C_3   0.433034 0.693863 0.283982 -0.308712
C73   C     C_3   0.473740 0.767495 0.267601 -0.458243
C74   C     C_3   0.865167 0.921148 0.661107 -0.258364
C75   C     C_3   0.815283 0.970728 0.675814 -0.308142
C76   C     C_3   0.871887 0.053474 0.763640 -0.453953
C77   C     C_R   0.758095 0.736470 0.427984 -0.140466
C78   C     C_R   0.694687 0.670916 0.426968 -0.148460
Cu1   Cu    Cu3+1 0.500500 0.438200 0.438680 0.910045
Cu2   Cu    Cu3+1 0.499500 0.561800 0.561320 0.889600
Cu3   Cu    Cu3+1 0.942090 0.438180 0.003770 0.866800
Cu4   Cu    Cu3+1 0.065710 0.561750 0.003750 0.900239
Cu5   Cu    Cu3+1 0.062280 0.999890 0.562170 0.898655
Cu6   Cu    Cu3+1 0.937720 0.999930 0.437650 0.890407
H1    H     H_    0.651719 0.608406 0.368506 0.124110
H2    H     H_    0.016561 0.882260 0.246288 0.128883
H3    H     H_    0.126395 0.225659 0.775305 0.144872
H4    H     H_    0.365118 0.492562 0.215858 0.107436
H5    H     H_    0.182335 0.367131 0.117713 0.104011
H6    H     H_    0.188982 0.377542 0.272563 0.103806
H7    H     H_    0.735427 0.779922 0.632536 0.126461
H8    H     H_    0.764146 0.723556 0.370566 0.119996
H9    H     H_    0.084327 0.571030 0.431396 0.143696
H10   H     H_    0.997996 0.461737 0.347845 0.147676
H11   H     H_    0.070049 0.481648 0.452720 0.143598
H12   H     H_    0.677473 0.582761 0.790793 0.130763
H13   H     H_    0.112822 0.417923 0.348307 0.154460
H14   H     H_    0.196820 0.527765 0.428272 0.164033
H15   H     H_    0.128492 0.574715 0.319792 0.126828
H16   H     H_    0.057639 0.460805 0.241839 0.157710
H17   H     H_    0.822465 0.632121 0.094731 0.168998
H18   H     H_    0.743100 0.662926 0.048955 0.154463
H19   H     H_    0.709121 0.567799 0.061298 0.136864
H20   H     H_    0.667160 0.527329 0.908110 0.159991
H21   H     H_    0.743707 0.493627 0.952949 0.180172
H22   H     H_    0.867233 0.623000 0.978737 0.152478
H23   H     H_    0.826475 0.416704 0.715508 0.155595
H24   H     H_    0.795723 0.662683 0.941360 0.134130
H25   H     H_    0.272389 0.752290 0.504470 0.142478
H26   H     H_    0.385901 0.823393 0.541369 0.152407
H27   H     H_    0.300081 0.838456 0.478514 0.136648
H28   H     H_    0.352069 0.767633 0.387682 0.154907
H29   H     H_    0.240341 0.696462 0.351493 0.158978
H30   H     H_    0.316401 0.642327 0.458658 0.154931
H31   H     H_    0.407185 0.689798 0.445131 0.143280
H32   H     H_    0.130987 0.824253 0.480500 0.150643
H33   H     H_    0.105695 0.712947 0.425652 0.099108
H34   H     H_    0.712682 0.414720 0.600788 0.134818
H35   H     H_    0.032352 0.677347 0.507698 0.147371
H36   H     H_    0.145621 0.761652 0.578005 0.082417
H37   H     H_    0.059186 0.789730 0.563666 0.176276
H38   H     H_    0.834806 0.566759 0.306335 0.178697
H39   H     H_    0.819504 0.621078 0.243174 0.173165
H40   H     H_    0.739482 0.510661 0.200772 0.117738
H41   H     H_    0.834591 0.518374 0.133301 0.183100
H42   H     H_    0.842630 0.458633 0.190118 0.132652
H43   H     H_    0.991559 0.549280 0.229390 0.133526
H44   H     H_    0.979086 0.589915 0.318901 0.158915
H45   H     H_    0.232518 0.375191 0.495346 0.111582
H46   H     H_    0.368906 0.387885 0.028532 0.141384
H47   H     H_    0.293704 0.379417 0.069253 0.151547
H48   H     H_    0.331988 0.467160 0.046553 0.149930
H49   H     H_    0.213963 0.270940 0.917132 0.160209
H50   H     H_    0.258100 0.352237 0.888776 0.162926
H51   H     H_    0.182886 0.427602 0.939983 0.169033
H52   H     H_    0.139359 0.349282 0.970497 0.137942
H53   H     H_    0.790571 0.092534 0.400847 0.157642
H54   H     H_    0.734661 0.151093 0.429152 0.143171
H55   H     H_    0.815942 0.194356 0.400964 0.135432
H56   H     H_    0.118430 0.260945 0.493579 0.115026
H57   H     H_    0.877458 0.273267 0.559594 0.164664
H58   H     H_    0.932689 0.215526 0.531423 0.184151
H59   H     H_    0.822636 0.089283 0.541013 0.151127
H60   H     H_    0.788496 0.163029 0.578674 0.160102
H61   H     H_    0.818910 0.223977 0.797268 0.159359
H62   H     H_    0.771007 0.147793 0.685163 0.102120
H63   H     H_    0.684322 0.219896 0.644389 0.146582
H64   H     H_    0.662223 0.179576 0.713781 0.086531
H65   H     H_    0.730965 0.294385 0.757634 0.179424
H66   H     H_    0.456933 0.741260 0.198825 0.149921
H67   H     H_    0.268823 0.126566 0.507279 0.115658
H68   H     H_    0.449749 0.814595 0.283788 0.147534
H69   H     H_    0.546134 0.802108 0.308756 0.147930
H70   H     H_    0.452670 0.721909 0.353375 0.161561
H71   H     H_    0.459728 0.648968 0.269219 0.158227
H72   H     H_    0.315501 0.615137 0.158829 0.158165
H73   H     H_    0.305747 0.688944 0.239832 0.150232
H74   H     H_    0.891649 0.037376 0.816215 0.152227
H75   H     H_    0.931511 0.097653 0.767417 0.163043
H76   H     H_    0.834097 0.087512 0.773331 0.126406
H77   H     H_    0.795870 0.988302 0.624246 0.155978
H78   H     H_    0.380983 0.238826 0.505238 0.116864
H79   H     H_    0.754983 0.929409 0.673300 0.161275
H80   H     H_    0.890155 0.908814 0.715770 0.138140
H81   H     H_    0.923494 0.963543 0.662085 0.173953
H82   H     H_    0.022588 0.771304 0.138893 0.136130
O1    O     O_R   0.590610 0.537990 0.448230 -0.511317
O2    O     O_R   0.948100 0.909770 0.357840 -0.514809
O3    O     O_R   0.962410 0.909720 0.552480 -0.511117
O4    O     O_R   0.589770 0.642360 0.551790 -0.519126
O5    O     O_R   0.857220 0.909750 0.447330 -0.515504
O6    O     O_R   0.051900 0.090060 0.641980 -0.523158
O7    O     O_R   0.946710 0.090090 0.536830 -0.519507
O8    O     O_R   0.142780 0.090070 0.552500 -0.515220
O9    O     O_R   0.037590 0.090110 0.447350 -0.513805
O10   O     O_R   0.409550 0.447810 0.357350 -0.509922
O11   O     O_R   0.408710 0.552190 0.460910 -0.528079
O12   O     O_R   0.055400 0.642330 0.093210 -0.511060
O13   O     O_R   0.410230 0.357640 0.448210 -0.509655
O14   O     O_R   0.409390 0.462010 0.551770 -0.510489
O15   O     O_R   0.591290 0.447810 0.539090 -0.512913
O16   O     O_R   0.590450 0.552190 0.642650 -0.516056
O17   O     O_R   0.951000 0.537980 0.093230 -0.528407
O18   O     O_3   0.997623 0.734555 0.395685 -0.557412
O19   O     O_3   0.855361 0.277431 0.725365 -0.573707
O20   O     O_R   0.042570 0.447790 0.094640 -0.523994
O21   O     O_R   0.146970 0.552140 0.094620 -0.527960
O22   O     O_R   0.952400 0.357600 0.914310 -0.511249
O23   O     O_R   0.056800 0.461950 0.914290 -0.514856
O24   O     O_R   0.860830 0.447790 0.912900 -0.515140
O25   O     O_R   0.965230 0.552140 0.912880 -0.503586
O26   O     O_R   0.053290 0.909730 0.462990 -0.493022

loop_
_geom_bond_atom_site_label_1
_geom_bond_atom_site_label_2
_ccdc_geom_bond_type
C66   C68   S    
C76   H75   S    
C13   C26   S    
C69   O19   S    
C31   O18   S    
C27   C29   A    
C69   H61   S    
C15   H78   S    
C68   H54   S    
C35   C36   A    
C67   C77   A    
Cu2   O4    S    
C4    O11   A    
C11   H56   S    
Cu6   O5    S    
C20   C41   S    
C21   O24   A    
C8    H34   S    
C7    C8    A    
C39   C41   A    
C66   H57   S    
C53   C54   S    
C27   C33   A    
C48   H13   S    
C12   C23   S    
C76   H74   S    
C37   C38   A    
C23   C42   S    
C61   H40   S    
C3    C9    A    
C63   H49   S    
C60   H41   S    
C12   C43   S    
C19   O20   A    
C5    C6    A    
C73   H66   S    
C52   H19   S    
C21   O25   A    
C26   O8    A    
C10   C17   A    
C59   H43   S    
Cu4   O23   S    
C54   H29   S    
C1    O4    A    
C47   H15   S    
C44   C71   S    
C75   H79   S    
C1    C2    S    
C62   H52   S    
C24   O5    A    
C28   O16   A    
C75   C76   S    
C24   C67   S    
C25   C37   S    
C64   H48   S    
C45   C56   A    
C44   C46   S    
C8    C9    A    
C14   H67   S    
C64   H47   S    
C3    H12   S    
C34   C46   S    
Cu2   O16   S    
C49   H10   S    
Cu6   O9    S    
Cu3   O22   S    
C16   O13   A    
C22   O2    A    
C40   C42   S    
C59   C60   S    
C2    C45   A    
C72   H71   S    
C13   C14   A    
C55   H25   S    
C50   H24   S    
C69   H62   S    
C68   H53   S    
C70   H65   S    
C45   H7    S    
C19   C43   S    
Cu3   Cu4   S    
C57   H32   S    
C46   H4    S    
C36   H3    S    
C38   C39   A    
C71   H73   S    
C4    C34   S    
C52   H17   S    
C72   H70   S    
C74   C75   S    
C63   C64   S    
C51   C52   S    
C63   H50   S    
Cu5   O26   S    
C56   C74   S    
C12   C46   S    
C20   O23   A    
C65   H60   S    
C16   C17   S    
C51   H20   S    
C77   C78   A    
C6    C21   S    
C47   H16   S    
Cu1   O15   S    
C60   C61   S    
C62   H51   S    
C43   C44   S    
C62   C63   S    
Cu6   O2    S    
C20   O22   A    
C12   H5    S    
C47   C48   S    
C38   C65   S    
C51   H21   S    
C23   C34   S    
C52   H18   S    
Cu5   O6    S    
Cu4   O12   S    
C58   H36   S    
C50   C51   S    
C23   H6    S    
C54   H28   S    
C49   H11   S    
C77   H8    S    
C18   O17   A    
C24   O3    A    
C29   H2    S    
C25   O6    A    
C48   C49   S    
Cu4   O25   S    
C64   H46   S    
C40   C53   S    
C55   H26   S    
C34   C40   S    
C5    C50   S    
Cu5   Cu6   S    
C70   H64   S    
C42   C43   S    
Cu3   O17   S    
C22   O26   A    
Cu6   O7    S    
Cu2   O14   S    
Cu3   O20   S    
C53   H30   S    
C78   H1    S    
C57   H33   S    
C2    C78   A    
C15   C17   A    
C54   C55   S    
C76   H76   S    
C58   H37   S    
C22   C30   S    
C55   H27   S    
Cu1   O10   S    
C31   C32   A    
C72   C73   S    
C3    C5    A    
C53   H31   S    
C6    C7    A    
C66   H58   S    
C56   C67   A    
C48   H14   S    
C61   H39   S    
Cu4   O21   S    
C75   H77   S    
Cu1   O1    S    
C32   C33   A    
C60   H42   S    
C59   H44   S    
C10   H45   S    
C71   C72   S    
C73   H68   S    
Cu2   O11   S    
C74   H80   S    
C11   C13   A    
C57   C58   S    
C30   C31   A    
C26   O9    A    
C28   O15   A    
C65   H59   S    
C71   H72   S    
Cu5   O3    S    
C58   H35   S    
C35   C62   S    
C7    H23   S    
C42   C47   S    
C57   O18   S    
C69   C70   S    
C35   C41   A    
C18   C33   S    
Cu3   O24   S    
C10   C11   A    
C27   H82   S    
C29   C30   A    
Cu1   Cu2   S    
C39   O19   S    
C25   O7    A    
C40   C44   S    
Cu1   O13   S    
C18   O12   A    
C36   C37   A    
C65   C66   S    
C4    O10   A    
Cu5   O8    S    
C73   H69   S    
C50   H22   S    
C1    O1    A    
C14   C15   A    
C61   H38   S    
C68   H55   S    
C19   O21   A    
C70   H63   S    
C32   C59   S    
C49   H9    S    
C74   H81   S    
C16   O14   A    
C9    C28   S    
