data_mof_unit_21386.cif
_audit_creation_date              2012-12-11T16:45:52-0500
_audit_creation_method            fapswitch 2.2
_symmetry_space_group_name_H-M    P1
_symmetry_Int_Tables_number       1
_space_group_crystal_system       triclinic
_cell_length_a                    19.730804
_cell_length_b                    17.150949
_cell_length_c                    15.311658
_cell_angle_alpha                 90.121034
_cell_angle_beta                  53.145725
_cell_angle_gamma                 90.026717
_cell_volume                      4146.03292523

loop_
_atom_site_label
_atom_site_type_symbol
_atom_type_description
_atom_site_fract_x
_atom_site_fract_y
_atom_site_fract_z
_atom_type_partial_charge
C1    C     C_R   0.873610 0.693739 0.993953 -0.165853
C2    C     C_R   0.211658 0.348130 0.976317 0.130478
C3    C     C_R   0.288420 0.848052 0.023550 0.122215
C4    C     C_R   0.711658 0.848130 0.976316 0.130478
C5    C     C_R   0.813198 0.641490 0.324156 0.073330
C6    C     C_R   0.191823 0.637294 0.678415 0.073103
C7    C     C_R   0.313196 0.141486 0.324155 0.073325
C8    C     C_R   0.691823 0.137294 0.678415 0.073104
C9    C     C_R   0.734444 0.652868 0.521349 0.022990
C10   C     C_R   0.291652 0.641834 0.475771 0.035278
C11   C     C_R   0.234466 0.152880 0.521339 0.023000
C12   C     C_R   0.125505 0.693939 0.007455 -0.164265
C13   C     C_R   0.791651 0.141834 0.475771 0.035275
C14   C     C_R   0.741279 0.670439 0.427549 0.036989
C15   C     C_R   0.268099 0.665961 0.577640 0.013855
C16   C     C_R   0.241283 0.170439 0.427548 0.036993
C17   C     C_R   0.768099 0.165961 0.577639 0.013854
C18   C     C_R   0.180275 0.218902 0.436361 -0.231755
C19   C     C_R   0.808330 0.231409 0.581517 -0.200229
C20   C     C_R   0.680281 0.718912 0.436352 -0.231752
C21   C     C_R   0.308329 0.731410 0.581518 -0.200235
C22   C     C_R   0.124175 0.260819 0.533112 0.195228
C23   C     C_R   0.373610 0.193739 0.993953 -0.165856
C24   C     C_R   0.846128 0.285252 0.496537 0.221882
C25   C     C_R   0.624178 0.760828 0.533104 0.195219
C26   C     C_R   0.346127 0.785253 0.496538 0.221884
C27   C     C_R   0.131715 0.254163 0.619200 -0.012049
C28   C     C_R   0.862517 0.263696 0.394895 -0.020184
C29   C     C_R   0.631704 0.754161 0.619203 -0.012049
C30   C     C_R   0.362516 0.763696 0.394896 -0.020185
C31   C     C_R   0.678414 0.691700 0.616747 0.083832
C32   C     C_R   0.344684 0.686325 0.383945 0.092429
C33   C     C_R   0.178440 0.191714 0.616735 0.083818
C34   C     C_R   0.625505 0.193939 0.007455 -0.164259
C35   C     C_R   0.844683 0.186325 0.383945 0.092428
C36   C     C_3   0.736324 0.686704 0.649666 -0.541927
C37   C     C_3   0.306281 0.653534 0.331481 -0.543291
C38   C     C_3   0.236366 0.186743 0.649630 -0.541917
C39   C     C_3   0.806280 0.153535 0.331481 -0.543292
C40   C     C_R   0.897849 0.303457 0.210955 -0.142824
C41   C     C_R   0.096813 0.301614 0.795062 -0.147763
C42   C     C_R   0.397849 0.803457 0.210955 -0.142824
C43   C     C_R   0.596810 0.801614 0.795063 -0.147769
C44   C     C_3   0.799452 0.645882 0.542429 0.118421
C45   C     C_R   0.884306 0.319878 0.309547 0.103284
C46   C     C_3   0.244428 0.609115 0.435336 0.093184
C47   C     C_3   0.299489 0.145918 0.542395 0.118422
C48   C     C_3   0.744427 0.109116 0.435337 0.093188
C49   C     C_2   0.691107 0.238714 0.097407 -0.111495
C50   C     C_2   0.308195 0.238244 0.903720 -0.123684
C51   C     C_2   0.191108 0.738714 0.097406 -0.111509
C52   C     C_2   0.808195 0.738244 0.903720 -0.123681
C53   C     C_2   0.213926 0.808464 0.047828 -0.189938
C54   C     C_2   0.785869 0.808354 0.952583 -0.192552
C55   C     C_2   0.713925 0.308464 0.047828 -0.189932
C56   C     C_R   0.107247 0.314850 0.699378 0.099255
C57   C     C_2   0.285869 0.308354 0.952583 -0.192553
C58   C     C_R   0.829015 0.410974 0.952994 -0.099260
C59   C     C_R   0.170983 0.411125 0.047004 -0.119062
C60   C     C_R   0.329015 0.910974 0.952994 -0.099265
C61   C     C_R   0.670983 0.911125 0.047004 -0.119061
C62   C     C_R   0.861358 0.579763 0.314867 -0.061539
C63   C     C_R   0.142957 0.576375 0.686770 -0.048009
C64   C     C_R   0.361357 0.079761 0.314866 -0.061555
C65   C     C_R   0.642957 0.076375 0.686770 -0.048008
C66   C     C_R   0.840723 0.320530 0.048152 -0.107741
C67   C     C_R   0.384305 0.819878 0.309547 0.103283
C68   C     C_R   0.159415 0.320563 0.951541 -0.114781
C69   C     C_R   0.340723 0.820531 0.048152 -0.107743
C70   C     C_R   0.659415 0.820563 0.951540 -0.114780
C71   C     C_R   0.852381 0.673821 0.221235 -0.103748
C72   C     C_R   0.149018 0.671582 0.781032 -0.107145
C73   C     C_R   0.352379 0.173819 0.221235 -0.103729
C74   C     C_R   0.649019 0.171582 0.781032 -0.107147
C75   C     C_R   0.907604 0.396316 0.303455 -0.112410
C76   C     C_R   0.092982 0.393429 0.696206 -0.108010
C77   C     C_R   0.407604 0.896316 0.303455 -0.112405
C78   C     C_R   0.607243 0.814850 0.699379 0.099259
C79   C     C_R   0.592981 0.893430 0.696206 -0.108011
C80   C     C_R   0.867601 0.604049 0.893524 0.167601
C81   C     C_R   0.131933 0.604274 0.107083 0.169985
C82   C     C_R   0.367602 0.104049 0.893524 0.167601
C83   C     C_R   0.631933 0.104274 0.107083 0.169987
C84   C     C_R   0.847126 0.680559 0.930395 0.087999
C85   C     C_R   0.151977 0.680880 0.070953 0.092759
C86   C     C_R   0.347126 0.180559 0.930395 0.088003
C87   C     C_R   0.651977 0.180880 0.070953 0.092762
C88   C     C_R   0.788420 0.348052 0.023550 0.122211
H1    H     H_    0.879839 0.749125 0.022075 0.108578
H2    H     H_    0.284885 0.217534 0.859361 0.147944
H3    H     H_    0.214383 0.718243 0.141827 0.150571
H4    H     H_    0.784885 0.717534 0.859362 0.147947
H5    H     H_    0.831893 0.271112 0.097455 0.096756
H6    H     H_    0.168390 0.271127 0.901937 0.095643
H7    H     H_    0.331894 0.771111 0.097455 0.096757
H8    H     H_    0.668390 0.771127 0.901935 0.095645
H9    H     H_    0.831942 0.723925 0.200010 0.103169
H10   H     H_    0.167990 0.721218 0.804880 0.105423
H11   H     H_    0.331940 0.223923 0.200011 0.103171
H12   H     H_    0.118474 0.749417 0.980563 0.110163
H13   H     H_    0.667990 0.221218 0.804880 0.105424
H14   H     H_    0.929447 0.423044 0.345612 0.164413
H15   H     H_    0.088706 0.423007 0.637704 0.156616
H16   H     H_    0.429448 0.923043 0.345612 0.164412
H17   H     H_    0.588705 0.923009 0.637705 0.156616
H18   H     H_    0.179703 0.228025 0.366843 0.156624
H19   H     H_    0.795835 0.248887 0.657808 0.161349
H20   H     H_    0.679719 0.728045 0.366827 0.156622
H21   H     H_    0.295834 0.748888 0.657809 0.161346
H22   H     H_    0.710485 0.647991 0.721336 0.190919
H23   H     H_    0.379839 0.249125 0.022075 0.108578
H24   H     H_    0.351218 0.614727 0.261391 0.180046
H25   H     H_    0.210544 0.148038 0.721303 0.190924
H26   H     H_    0.851216 0.114728 0.261392 0.180045
H27   H     H_    0.810798 0.584535 0.553583 0.158030
H28   H     H_    0.251515 0.544880 0.423340 0.115968
H29   H     H_    0.310848 0.084577 0.553549 0.158040
H30   H     H_    0.751513 0.044881 0.423340 0.115968
H31   H     H_    0.188946 0.830389 0.006076 0.135279
H32   H     H_    0.810939 0.830492 0.994219 0.133018
H33   H     H_    0.688946 0.330389 0.006077 0.135279
H34   H     H_    0.618474 0.249417 0.980563 0.110163
H35   H     H_    0.310939 0.330492 0.994219 0.133019
H36   H     H_    0.905295 0.246721 0.175758 0.106129
H37   H     H_    0.090714 0.245475 0.831179 0.109599
H38   H     H_    0.405295 0.746721 0.175758 0.106129
H39   H     H_    0.590706 0.745475 0.831184 0.109600
H40   H     H_    0.805564 0.444552 0.916971 0.139674
H41   H     H_    0.194321 0.444812 0.083208 0.136997
H42   H     H_    0.305564 0.944552 0.916970 0.139676
H43   H     H_    0.694321 0.944812 0.083208 0.136997
H44   H     H_    0.849118 0.541030 0.378278 0.115698
H45   H     H_    0.757967 0.744570 0.656934 0.225431
H46   H     H_    0.158199 0.535326 0.624160 0.101963
H47   H     H_    0.349118 0.041030 0.378278 0.115702
H48   H     H_    0.658199 0.035326 0.624160 0.101963
H49   H     H_    0.275346 0.697926 0.313350 0.224452
H50   H     H_    0.258001 0.244617 0.656883 0.225436
H51   H     H_    0.775345 0.197928 0.313351 0.224453
H52   H     H_    0.714383 0.218243 0.141828 0.150569
I1    I     I_    0.033239 0.330901 0.539374 -0.360850
I2    I     I_    0.116438 0.562826 0.248329 -0.359193
I3    I     I_    0.382285 0.062571 0.752562 -0.345273
I4    I     I_    0.616436 0.062827 0.248331 -0.359198
I5    I     I_    0.839642 0.399216 0.558513 -0.391203
I6    I     I_    0.533255 0.830921 0.539348 -0.360843
I7    I     I_    0.339638 0.899218 0.558514 -0.391199
I8    I     I_    0.911913 0.715426 0.438553 -0.310564
I9    I     I_    0.118558 0.655123 0.510553 -0.276612
I10   I     I_    0.411934 0.215471 0.438487 -0.310619
I11   I     I_    0.618556 0.155125 0.510554 -0.276621
I12   I     I_    0.882285 0.562571 0.752562 -0.345247
N1    N     N_R   0.908660 0.628630 0.995840 -0.059902
N2    N     N_R   0.096530 0.421430 0.063580 -0.042113
N3    N     N_R   0.403470 0.921430 0.936420 -0.039940
N4    N     N_R   0.596530 0.921430 0.063580 -0.042113
N5    N     N_R   0.927500 0.575670 0.211370 -0.039097
N6    N     N_R   0.072500 0.575670 0.788630 -0.039047
N7    N     N_R   0.427500 0.075670 0.211370 -0.039094
N8    N     N_R   0.572500 0.075670 0.788630 -0.039046
N9    N     N_R   0.908660 0.365680 0.995820 -0.050694
N10   N     N_R   0.091340 0.365680 0.004180 -0.050410
N11   N     N_R   0.408660 0.865680 0.995820 -0.050694
N12   N     N_R   0.091340 0.628630 0.004160 -0.059744
N13   N     N_R   0.591340 0.865680 0.004180 -0.050410
N14   N     N_R   0.922310 0.631420 0.151980 -0.044788
N15   N     N_R   0.077690 0.631420 0.848020 -0.046961
N16   N     N_R   0.422310 0.131420 0.151980 -0.044786
N17   N     N_R   0.577690 0.131420 0.848020 -0.046960
N18   N     N_R   0.927500 0.426330 0.211360 -0.050352
N19   N     N_R   0.072500 0.426330 0.788640 -0.050496
N20   N     N_R   0.427500 0.926330 0.211360 -0.050352
N21   N     N_R   0.572500 0.926330 0.788640 -0.050495
N22   N     N_R   0.903470 0.570760 0.936440 -0.069236
N23   N     N_R   0.408660 0.128630 0.995840 -0.059903
N24   N     N_R   0.096530 0.570760 0.063560 -0.068638
N25   N     N_R   0.403470 0.070760 0.936440 -0.069235
N26   N     N_R   0.596530 0.070760 0.063560 -0.068638
N27   N     N_R   0.591340 0.128630 0.004160 -0.059744
N28   N     N_R   0.922310 0.368460 0.151950 -0.046412
N29   N     N_R   0.077690 0.368460 0.848050 -0.047174
N30   N     N_R   0.422310 0.868460 0.151950 -0.046412
N31   N     N_R   0.577690 0.868460 0.848050 -0.047173
N32   N     N_R   0.903470 0.421430 0.936420 -0.039940
Ni1   Ni    Ni4+2 0.000000 0.630300 0.000000 0.217396
Ni2   Ni    Ni4+2 0.500000 0.130300 0.000000 0.217399
Ni3   Ni    Ni4+2 0.000000 0.369700 0.000000 0.207531
Ni4   Ni    Ni4+2 0.500000 0.869700 0.000000 0.207530
Ni5   Ni    Ni4+2 0.988090 0.497570 0.863760 0.269993
Ni6   Ni    Ni4+2 0.011910 0.497570 0.136240 0.258745
Ni7   Ni    Ni4+2 0.488090 0.997570 0.863760 0.269992
Ni8   Ni    Ni4+2 0.511910 0.997570 0.136240 0.258745

loop_
_geom_bond_atom_site_label_1
_geom_bond_atom_site_label_2
_ccdc_geom_bond_type
C83   C87   A    
C21   C26   A    
C55   H33   S    
C58   H40   S    
N25   Ni7   S    
C54   H32   S    
N14   Ni1   S    
C22   I1    S    
C79   N21   A    
C11   C47   S    
C67   C77   A    
C80   C84   A    
C36   H45   S    
C51   C85   S    
C4    C70   A    
N26   N27   A    
N29   Ni3   S    
C2    C57   S    
N23   N25   A    
N27   Ni2   S    
C72   H10   S    
N20   Ni8   S    
C43   C78   A    
C6    C72   A    
C71   H9    S    
N19   Ni5   S    
C12   C85   A    
C56   C76   A    
N4    N13   A    
C3    C69   A    
N17   Ni2   S    
C13   C35   A    
C2    C68   A    
C24   I5    S    
C65   N8    A    
C66   C88   A    
C83   I4    S    
C23   N23   A    
C20   C25   A    
N15   Ni1   S    
C73   H11   S    
N7    N16   A    
C79   H17   S    
C58   N32   A    
C55   C88   S    
C52   C84   S    
C49   C87   S    
N5    Ni6   S    
C74   N17   A    
C51   H3    S    
C6    C15   S    
C40   N28   A    
C50   H2    S    
C29   C78   S    
C28   C35   A    
C37   H24   S    
C23   C86   A    
C82   N25   A    
C10   C46   S    
C75   H14   S    
N8    N17   A    
C25   I6    S    
N9    Ni3   S    
C45   C75   A    
C5    C14   S    
C30   C67   S    
C4    C54   S    
C3    C60   A    
C76   H15   S    
N2    Ni6   S    
C64   H47   S    
C8    C65   A    
C34   H34   S    
C37   H49   S    
C41   N29   A    
C34   N27   A    
C73   N16   A    
C59   N2    A    
C52   C54   D    
N6    N15   A    
C9    C31   A    
C25   C29   A    
C40   C45   A    
C40   H36   S    
C39   H51   S    
C28   C45   S    
N13   Ni4   S    
N16   Ni2   S    
C81   N24   A    
C41   H37   S    
C11   C33   A    
C44   H27   S    
C7    C73   A    
N12   Ni1   S    
C70   N13   A    
C60   H42   S    
C38   H25   S    
C61   H43   S    
C2    C59   A    
C48   H30   S    
N3    N11   A    
C82   C86   A    
N1    N22   A    
C71   N14   A    
C42   N30   A    
C66   N9    A    
C62   H44   S    
N11   Ni4   S    
C1    C84   A    
C6    C63   A    
C49   H52   S    
C76   N19   A    
C70   H8    S    
C9    C14   A    
C63   H46   S    
C41   C56   A    
N28   Ni3   S    
C14   C20   A    
C57   H35   S    
N26   Ni8   S    
C11   C16   A    
N24   Ni6   S    
C47   I10   S    
C15   C21   A    
C39   H26   S    
C49   C55   D    
C75   N18   A    
C8    C74   A    
C38   H50   S    
C62   N5    A    
N30   Ni4   S    
C32   C37   S    
C27   C56   S    
C1    N1    A    
C38   C47   S    
N3    Ni7   S    
C74   H13   S    
N4    Ni8   S    
C16   C18   A    
C7    C16   S    
C26   C30   A    
C22   C27   A    
C66   H5    S    
C36   H22   S    
C42   C67   A    
C72   N15   A    
N6    Ni5   S    
C42   H38   S    
C43   H39   S    
C61   N4    A    
N2    N10   A    
C80   I12   S    
N20   N30   A    
C59   H41   S    
C9    C44   S    
C1    H1    S    
C83   N26   A    
C69   N11   A    
C78   C79   A    
C50   C57   D    
N7    Ni8   S    
N19   N29   A    
C18   H18   S    
C24   C28   A    
N8    Ni7   S    
C82   I3    S    
C69   H7    S    
C58   C88   A    
N5    N14   A    
C13   C48   S    
C21   H21   S    
C53   H31   S    
C68   N10   A    
C23   H23   S    
N18   Ni6   S    
C33   C38   S    
C46   H28   S    
C10   C15   A    
N9    N32   A    
C18   C22   A    
C19   C24   A    
C37   C46   S    
C60   N3    A    
C80   N22   A    
C29   C31   A    
C81   I2    S    
N31   Ni4   S    
C8    C17   S    
C30   C32   A    
C3    C53   S    
N10   Ni3   S    
N1    Ni1   S    
C12   N12   A    
C77   N20   A    
C35   C39   S    
C4    C61   A    
C64   N7    A    
C43   N31   A    
C17   C19   A    
N21   Ni7   S    
C5    C62   A    
N12   N24   A    
C34   C87   A    
C26   I7    S    
C68   H6    S    
C7    C64   A    
C12   H12   S    
C65   H48   S    
C36   C44   S    
C50   C86   S    
N22   Ni5   S    
C13   C17   A    
C10   C32   A    
C47   H29   S    
C46   I9    S    
N21   N31   A    
C5    C71   A    
C48   I11   S    
N18   N28   A    
C27   C33   A    
C31   C36   S    
C77   H16   S    
C63   N6    A    
C51   C53   D    
C44   I8    S    
N32   Ni5   S    
C52   H4    S    
C81   C85   A    
C20   H20   S    
C39   C48   S    
N23   Ni2   S    
C19   H19   S    
