data_mof_unit_15287.cif
_audit_creation_date              2012-12-10T17:32:15-0500
_audit_creation_method            fapswitch 2.2
_symmetry_space_group_name_H-M    P1
_symmetry_Int_Tables_number       1
_space_group_crystal_system       triclinic
_cell_length_a                    12.317254
_cell_length_b                    13.189857
_cell_length_c                    15.054922
_cell_angle_alpha                 77.592014
_cell_angle_beta                  101.261545
_cell_angle_gamma                 116.621918
_cell_volume                      2121.71504359

loop_
_atom_site_label
_atom_site_type_symbol
_atom_type_description
_atom_site_fract_x
_atom_site_fract_y
_atom_site_fract_z
_atom_type_partial_charge
C1    C     C_R   0.854865 0.286586 0.508101 0.777180
C2    C     C_R   0.950876 0.572087 0.070993 -0.012396
C3    C     C_R   0.095956 0.371670 0.088230 -0.172524
C4    C     C_R   0.091583 0.364115 0.996676 0.398630
C5    C     C_R   0.043509 0.429766 0.927691 0.014047
C6    C     C_R   0.993513 0.496400 0.952953 0.042691
C7    C     C_R   0.941484 0.558836 0.885164 0.066304
C8    C     C_R   0.891719 0.623843 0.909719 -0.279156
C9    C     C_R   0.895698 0.631373 0.001188 0.429975
C10   C     C_R   0.047431 0.433968 0.834447 -0.234172
C11   C     C_R   0.995681 0.496401 0.767747 -0.068594
C12   C     C_R   0.998779 0.498850 0.671091 0.804430
C13   C     C_R   0.940711 0.556557 0.793146 -0.206906
C14   C     C_R   0.275986 0.020580 0.375848 -0.174384
C15   C     C_R   0.227980 0.834397 0.466979 -0.051186
C16   C     C_R   0.815175 0.085479 0.569033 -0.185603
C17   C     C_R   0.736267 0.970620 0.587257 -0.133413
C18   C     C_R   0.613022 0.932781 0.554540 -0.175900
C19   C     C_R   0.566525 0.009367 0.499342 0.079791
C20   C     C_R   0.650211 0.123667 0.472019 0.078123
C21   C     C_R   0.439960 0.975971 0.469474 0.073437
C22   C     C_R   0.400625 0.052799 0.406052 0.157576
C23   C     C_R   0.145095 0.713379 0.486338 0.792869
C24   C     C_R   0.486224 0.159802 0.371760 -0.227477
C25   C     C_R   0.609249 0.194186 0.403149 -0.190510
C26   C     C_R   0.350868 0.868612 0.501380 -0.244158
C27   C     C_R   0.189972 0.911380 0.405652 -0.193835
C28   C     C_R   0.773017 0.163587 0.513586 -0.102019
C29   C     C_R   0.346954 0.328758 0.646143 -0.283508
C30   C     C_R   0.759524 0.645571 0.376112 0.107899
C31   C     C_R   0.662934 0.677223 0.349397 -0.220603
C32   C     C_R   0.559462 0.622311 0.395932 -0.199918
C33   C     C_R   0.551381 0.534555 0.470379 -0.006380
C34   C     C_R   0.003111 0.504214 0.328681 0.796062
C35   C     C_R   0.653022 0.505234 0.495388 0.280202
C36   C     C_R   0.447039 0.475179 0.521059 -0.034227
C37   C     C_R   0.446931 0.388288 0.595224 0.168874
C38   C     C_R   0.546674 0.361319 0.618522 -0.270362
C39   C     C_R   0.647319 0.418607 0.570006 -0.178016
C40   C     C_R   0.341973 0.497770 0.501882 0.021964
C41   C     C_R   0.246945 0.355248 0.623853 0.079811
C42   C     C_R   0.963886 0.581654 0.164539 0.408096
C43   C     C_R   0.007850 0.511074 0.231251 -0.185540
C44   C     C_R   0.052257 0.442786 0.205070 -0.262821
C45   C     C_R   0.049446 0.439469 0.113121 0.039454
C46   C     C_R   0.997158 0.502160 0.045768 -0.068752
Cu1   Cu    Cu3+1 0.098270 0.475420 0.521130 0.938758
Cu2   Cu    Cu3+1 0.901730 0.524580 0.478870 0.934303
H1    H     H_    0.458007 0.217382 0.320360 0.157469
H2    H     H_    0.245524 0.078731 0.327192 0.143880
H3    H     H_    0.374440 0.808715 0.552590 0.151584
H4    H     H_    0.909010 0.113629 0.600331 0.153439
H5    H     H_    0.557435 0.842534 0.571982 0.132840
H6    H     H_    0.770104 0.910943 0.629455 0.148399
H7    H     H_    0.671657 0.275624 0.370575 0.183443
H8    H     H_    0.169415 0.309626 0.662834 0.120761
H9    H     H_    0.547269 0.295123 0.675339 0.159344
H10   H     H_    0.346263 0.262201 0.702911 0.146888
H11   H     H_    0.087502 0.390364 0.256733 0.170196
H12   H     H_    0.333985 0.562108 0.446724 0.126086
H13   H     H_    0.839585 0.688983 0.339826 0.152430
H14   H     H_    0.487564 0.650384 0.372357 0.142422
H15   H     H_    0.668347 0.744667 0.292464 0.167678
H16   H     H_    0.718916 0.391924 0.594015 0.208232
H17   H     H_    0.134355 0.322316 0.140456 0.163647
H18   H     H_    0.091134 0.389945 0.812438 0.157097
H19   H     H_    0.900772 0.604849 0.741115 0.155189
H20   H     H_    0.849965 0.670045 0.857171 0.178667
H21   H     H_    0.094924 0.885694 0.378010 0.153805
N1    N     N_R   0.246280 0.438190 0.553160 -0.182950
N2    N     N_R   0.754320 0.561190 0.447410 -0.216693
O1    O     O_R   0.972510 0.318130 0.526570 -0.581674
O2    O     O_R   0.806530 0.359650 0.490890 -0.604240
O3    O     O_R   0.082980 0.479210 0.647590 -0.579568
O4    O     O_R   0.917000 0.520730 0.611900 -0.604301
O5    O     O_R   0.193470 0.640350 0.509110 -0.584852
O6    O     O_R   0.027490 0.681870 0.473430 -0.594578
O7    O     O_R   0.083000 0.479270 0.388100 -0.584562
O8    O     O_R   0.917020 0.520790 0.352410 -0.567980
O9    O     O_3   0.938334 0.662745 0.189484 -0.666785
H22   H     H_    0.997294 0.694036 0.242559 0.309138
O10   O     O_3   0.135180 0.291852 0.978321 -0.718001
H23   H     H_    0.085516 0.257038 0.923575 0.318694
Cl1   Cl    Cl    0.824615 0.713179 0.021544 -0.543261

loop_
_geom_bond_atom_site_label_1
_geom_bond_atom_site_label_2
_ccdc_geom_bond_type
C16   C28   A    
C21   C26   A    
C42   O9    S    
C40   H12   S    
C12   O3    A    
C19   C20   A    
C23   O5    A    
C30   N2    A    
C7    C8    A    
C41   H8    S    
C45   C46   A    
C2    C46   A    
C39   H16   S    
C40   N1    A    
Cu2   O8    S    
C36   C37   A    
C19   C21   A    
Cu1   O5    S    
C5    C6    A    
C16   C17   A    
C20   C25   A    
C44   H11   S    
C33   C36   A    
C18   C19   A    
C18   H5    S    
C31   C32   A    
C8    C9    A    
C1    C28   S    
C14   C27   A    
C27   H21   S    
C15   C23   S    
C35   N2    A    
C21   C22   A    
Cu2   O4    S    
C3    H17   S    
C10   H18   S    
C38   C39   A    
C1    O1    A    
C31   H15   S    
C36   C40   A    
C24   C25   A    
C16   H4    S    
O9    H22   S    
C15   C26   A    
C20   C28   A    
C3    C45   A    
Cu2   O6    S    
C35   C39   A    
C43   C44   A    
Cu1   N1    S    
C37   C38   A    
C34   O8    A    
C38   H9    S    
C15   C27   A    
Cu1   Cu2   S    
C30   C31   A    
C17   C18   A    
C23   O6    A    
C8    H20   S    
C22   C24   A    
C30   H13   S    
C42   C43   A    
Cu2   N2    S    
C3    C4    A    
C44   C45   A    
C13   H19   S    
C24   H1    S    
C6    C46   A    
C29   C41   A    
Cu2   O2    S    
C34   C43   S    
C25   H7    S    
Cu1   O3    S    
C4    C5    A    
C11   C12   S    
C6    C7    A    
C1    O2    A    
C32   C33   A    
C14   C22   A    
C32   H14   S    
C5    C10   A    
C26   H3    S    
C34   O7    A    
C11   C13   A    
C14   H2    S    
C2    C42   A    
C33   C35   A    
Cu1   O1    S    
C10   C11   A    
C9    Cl1   S    
C7    C13   A    
C4    O10   S    
C29   H10   S    
O10   H23   S    
C12   O4    A    
C29   C37   A    
Cu1   O7    S    
C2    C9    A    
C17   H6    S    
C41   N1    A    
