data_mof_unit_53564.cif
_audit_creation_date              2012-12-11T14:21:15-0500
_audit_creation_method            fapswitch 2.2
_symmetry_space_group_name_H-M    P1
_symmetry_Int_Tables_number       1
_space_group_crystal_system       triclinic
_cell_length_a                    21.979741
_cell_length_b                    7.207791
_cell_length_c                    14.92873
_cell_angle_alpha                 89.573438
_cell_angle_beta                  106.670616
_cell_angle_gamma                 89.815184
_cell_volume                      2265.58610744

loop_
_atom_site_label
_atom_site_type_symbol
_atom_type_description
_atom_site_fract_x
_atom_site_fract_y
_atom_site_fract_z
_atom_type_partial_charge
O1    O     O_R   0.584770 0.505770 0.002090 -0.535993
O2    O     O_R   0.415230 0.005770 0.997910 -0.531884
O3    O     O_R   0.467060 0.173340 0.861950 -0.527541
O4    O     O_R   0.532940 0.673340 0.138050 -0.540526
C1    C     C_R   0.455271 0.345175 0.826164 0.765374
C2    C     C_R   0.544733 0.843357 0.173946 0.769087
O5    O     O_R   0.587510 0.175890 0.993210 -0.542980
O6    O     O_R   0.412490 0.675890 0.006790 -0.548922
O7    O     O_R   0.536540 0.008150 0.130100 -0.532631
O8    O     O_R   0.463460 0.508150 0.869900 -0.543609
C3    C     C_R   0.612336 0.345004 0.994487 0.621672
C4    C     C_R   0.387649 0.845345 0.005528 0.621982
O9    O     O_3   0.483140 0.340040 0.044760 -0.382379
O10   O     O_3   0.516860 0.840040 0.955240 -0.380113
V1    V     V_3+5 0.503130 0.064190 0.991700 1.506230
V2    V     V_3+5 0.496870 0.564190 0.008300 1.475385
C5    C     C_2   0.213284 0.730424 0.996045 -0.075545
C6    C     C_2   0.787329 0.231056 0.005731 -0.087682
C7    C     C_2   0.178576 0.887321 0.989412 -0.244371
C8    C     C_2   0.821326 0.388163 0.010392 -0.240075
H1    H     H_    0.191720 0.597666 0.002759 0.149961
H2    H     H_    0.809560 0.098230 0.000863 0.150557
H3    H     H_    0.198145 0.018861 0.975711 0.186352
H4    H     H_    0.801138 0.519896 0.022403 0.189298
C9    C     C_2   0.279325 0.725830 0.987460 -0.139883
C10   C     C_2   0.721271 0.226129 0.014264 -0.133395
C11   C     C_2   0.322773 0.860849 0.017892 0.225448
C12   C     C_2   0.677111 0.360185 0.981838 0.217176
H5    H     H_    0.293013 0.601266 0.957373 0.116006
H6    H     H_    0.708196 0.102165 0.046083 0.129953
C13   C     C_R   0.926480 0.892398 0.724414 -0.121803
C14   C     C_R   0.073647 0.381404 0.275215 -0.115136
C15   C     C_R   0.573505 0.846309 0.275128 -0.120015
C16   C     C_R   0.426399 0.357294 0.725239 -0.114259
C17   C     C_R   0.933591 0.969921 0.570543 -0.151620
C18   C     C_R   0.063632 0.331735 0.429966 -0.150780
C19   C     C_R   0.962693 0.942760 0.665357 -0.279361
C20   C     C_R   0.036084 0.342452 0.333905 -0.278649
C21   C     C_R   0.860998 0.862817 0.688395 0.538045
C22   C     C_R   0.139421 0.402988 0.311844 0.539019
C23   C     C_R   0.830523 0.879951 0.590605 -0.034854
C24   C     C_R   0.169587 0.374372 0.408957 -0.031955
C25   C     C_R   0.867962 0.944238 0.533365 0.077942
C26   C     C_R   0.129577 0.349552 0.467873 0.079797
C27   C     C_R   0.764208 0.845526 0.548000 0.060257
C28   C     C_R   0.237199 0.373230 0.450321 0.063126
C29   C     C_R   0.735733 0.893610 0.451594 0.065113
C30   C     C_R   0.262873 0.366258 0.550105 0.066822
C31   C     C_R   0.774307 0.977805 0.401970 -0.116100
C32   C     C_R   0.219998 0.366341 0.604757 -0.116816
C33   C     C_R   0.839324 0.993629 0.440563 -0.198070
C34   C     C_R   0.155166 0.349334 0.564518 -0.198942
C35   C     C_R   0.725630 0.761379 0.597632 -0.108313
C36   C     C_R   0.280083 0.373321 0.395677 -0.107515
C37   C     C_R   0.660616 0.745480 0.559023 -0.193279
C38   C     C_R   0.344922 0.390185 0.435940 -0.194491
C39   C     C_R   0.631986 0.794749 0.466200 0.073598
C40   C     C_R   0.370509 0.389685 0.532589 0.076350
C41   C     C_R   0.669427 0.859090 0.408973 -0.033290
C42   C     C_R   0.330481 0.364910 0.591478 -0.031284
C43   C     C_R   0.566366 0.768894 0.428992 -0.150240
C44   C     C_R   0.436465 0.407186 0.570529 -0.149021
C45   C     C_R   0.537282 0.795906 0.334162 -0.276673
C46   C     C_R   0.463997 0.396188 0.666592 -0.275657
C47   C     C_R   0.638968 0.876141 0.311175 0.533558
C48   C     C_R   0.360618 0.336051 0.688578 0.533133
H7    H     H_    0.867163 0.053285 0.398304 0.125320
H8    H     H_    0.124454 0.341848 0.609775 0.124999
H9    H     H_    0.486907 0.769490 0.306021 0.135841
H10   H     H_    0.514856 0.413101 0.695082 0.133131
H11   H     H_    0.632776 0.685829 0.601283 0.130565
H12   H     H_    0.375639 0.397736 0.390693 0.128553
H13   H     H_    0.962180 0.016970 0.526571 0.128664
H14   H     H_    0.033303 0.309170 0.474862 0.127001
H15   H     H_    0.013076 0.969063 0.693473 0.132455
H16   H     H_    0.985233 0.325340 0.305451 0.130141
H17   H     H_    0.755766 0.038665 0.333624 0.205607
H18   H     H_    0.234482 0.383949 0.679218 0.205320
H19   H     H_    0.744166 0.700592 0.665994 0.214057
H20   H     H_    0.265607 0.355955 0.321203 0.212183
H21   H     H_    0.537774 0.721815 0.472956 0.129332
H22   H     H_    0.466812 0.429726 0.525659 0.127649
O11   O     O_R   0.036450 0.233070 0.130130 -0.543592
O12   O     O_R   0.963550 0.733070 0.869870 -0.533037
O13   O     O_R   0.912470 0.560570 0.006790 -0.537381
O14   O     O_R   0.087530 0.060570 0.993210 -0.543333
C49   C     C_R   0.887379 0.392099 0.004109 0.710990
C50   C     C_R   0.112607 0.891727 0.995888 0.710967
O15   O     O_R   0.032920 0.562940 0.138050 -0.531047
O16   O     O_R   0.967080 0.062940 0.861950 -0.543341
O17   O     O_R   0.084790 0.730500 0.002090 -0.532861
O18   O     O_R   0.915210 0.230500 0.997910 -0.537132
C51   C     C_R   0.044723 0.393522 0.174296 0.770505
C52   C     C_R   0.955283 0.895368 0.825596 0.774559
O19   O     O_3   0.016820 0.396170 0.955260 -0.385893
O20   O     O_3   0.983180 0.896170 0.044740 -0.383746
V3    V     V_3+5 0.996880 0.672090 0.008300 1.507860
V4    V     V_3+5 0.003120 0.172090 0.991700 1.478120
F1    F     F_    0.827924 0.841213 0.751741 -0.714115
F2    F     F_    0.171233 0.464108 0.251879 -0.716518
O21   O     O_3   0.307300 0.011631 0.064128 -0.638608
H23   H     H_    0.345700 0.087864 0.089681 0.292682
O22   O     O_3   0.691843 0.510239 0.933650 -0.636137
H24   H     H_    0.653028 0.585791 0.907070 0.293864
F3    F     F_    0.672046 0.897973 0.247845 -0.726472
F4    F     F_    0.328759 0.275018 0.748498 -0.722737

loop_
_geom_bond_atom_site_label_1
_geom_bond_atom_site_label_2
_ccdc_geom_bond_type
C40   C44   A    
O21   H23   S    
C6    C10   S    
O2    C4    A    
C16   C48   A    
C2    O7    A    
O19   V4    S    
C15   C47   A    
C29   C31   A    
C20   H16   S    
O5    C3    A    
O12   V3    S    
C17   C19   A    
O14   C50   A    
C39   C41   A    
C40   C42   A    
O11   C51   A    
C8    C49   S    
C24   C28   A    
C27   C29   A    
C43   C45   A    
C44   C46   A    
C45   H9    S    
C38   C40   A    
C31   C33   A    
O11   V4    S    
O1    C3    A    
C32   C34   A    
O16   C52   A    
C46   H10   S    
C17   C25   A    
C34   H8    S    
O6    C4    A    
C26   C34   A    
C30   C32   A    
C14   C51   S    
C19   H15   S    
C42   C48   A    
O6    V2    S    
C49   O18   A    
C1    C16   S    
O15   C51   A    
C23   C25   A    
C24   C26   A    
C48   F4    S    
C32   H18   S    
C47   F3    S    
C30   C42   A    
C36   H20   S    
C35   C37   A    
C9    H5    S    
C36   C38   A    
O13   C49   A    
O18   V4    S    
C8    H4    S    
O4    C2    A    
C7    C50   S    
C33   H7    S    
O5    V1    S    
C4    C11   S    
C38   H12   S    
C11   O21   S    
C5    H1    S    
C13   C19   A    
O15   V3    S    
O4    V2    S    
C7    H3    S    
C21   F1    S    
C50   O17   A    
C15   C45   A    
O20   V3    S    
C28   C36   A    
C16   C46   A    
O1    V2    S    
O12   C52   A    
O17   V3    S    
O2    V1    S    
C18   H14   S    
C10   H6    S    
C14   C20   A    
C37   C39   A    
C18   C26   A    
O3    V1    S    
C17   H13   S    
C35   H19   S    
C6    H2    S    
O3    C1    A    
C22   F2    S    
C39   C43   A    
C9    C11   D    
C13   C52   S    
C10   C12   D    
C2    C15   S    
C5    C9    S    
C18   C20   A    
O7    V1    S    
C1    O8    A    
C43   H21   S    
C41   C47   A    
C12   O22   S    
C25   C33   A    
C3    C12   S    
C27   C35   A    
C22   C24   A    
C5    C7    D    
C31   H17   S    
C6    C8    D    
C14   C22   A    
C44   H22   S    
O14   V4    S    
O13   V3    S    
C29   C41   A    
C28   C30   A    
C21   C23   A    
O9    V2    S    
O22   H24   S    
C13   C21   A    
C23   C27   A    
O10   V1    S    
O8    V2    S    
O16   V4    S    
C37   H11   S    
