data_mof_unit_20416.cif
_audit_creation_date              2012-12-11T16:37:23-0500
_audit_creation_method            fapswitch 2.2
_symmetry_space_group_name_H-M    P1
_symmetry_Int_Tables_number       1
_space_group_crystal_system       triclinic
_cell_length_a                    19.475346
_cell_length_b                    6.956854
_cell_length_c                    17.678979
_cell_angle_alpha                 90.058688
_cell_angle_beta                  108.883341
_cell_angle_gamma                 90.139436
_cell_volume                      2266.34855221

loop_
_atom_site_label
_atom_site_type_symbol
_atom_type_description
_atom_site_fract_x
_atom_site_fract_y
_atom_site_fract_z
_atom_type_partial_charge
O1    O     O_R   0.561710 0.369960 0.440200 -0.536056
O2    O     O_R   0.061710 0.630040 0.940200 -0.542754
O3    O     O_R   0.412630 0.033330 0.406330 -0.542342
O4    O     O_R   0.912630 0.966670 0.906330 -0.547765
O5    O     O_R   0.438290 0.869790 0.559800 -0.542403
O6    O     O_R   0.938290 0.130210 0.059800 -0.540092
C1    C     C_R   0.384992 0.202838 0.383076 0.695515
C2    C     C_R   0.887014 0.795612 0.880572 0.671242
O7    O     O_R   0.559570 0.039810 0.430640 -0.539582
O8    O     O_R   0.059570 0.960190 0.930640 -0.537535
O9    O     O_R   0.586280 0.876320 0.584290 -0.541837
O10   O     O_R   0.086280 0.123680 0.084290 -0.536446
C3    C     C_R   0.581295 0.208903 0.416078 0.711717
C4    C     C_R   0.081221 0.791213 0.915962 0.710226
O11   O     O_R   0.413720 0.363440 0.415710 -0.532930
O12   O     O_R   0.913720 0.636560 0.915710 -0.543843
O13   O     O_3   0.508590 0.205630 0.550380 -0.371905
O14   O     O_3   0.008590 0.794370 0.050380 -0.366578
V1    V     V_3+5 0.498410 0.928130 0.490650 1.424114
V2    V     V_3+5 0.998410 0.071870 0.990650 1.399132
O15   O     O_R   0.587370 0.546990 0.593670 -0.540522
O16   O     O_R   0.087370 0.453010 0.093670 -0.537573
C5    C     C_R   0.615403 0.717084 0.616549 0.698335
C6    C     C_R   0.114996 0.283422 0.117180 0.720358
O17   O     O_R   0.440430 0.540520 0.569360 -0.541542
O18   O     O_R   0.940430 0.459480 0.069360 -0.539690
C7    C     C_R   0.418836 0.709064 0.584450 0.691096
C8    C     C_R   0.919035 0.290752 0.084722 0.695917
V3    V     V_3+5 0.501590 0.428960 0.509350 1.431797
V4    V     V_3+5 0.001590 0.571040 0.009350 1.405359
O19   O     O_3   0.491410 0.701330 0.449620 -0.354671
O20   O     O_3   0.991410 0.298670 0.949620 -0.378845
C9    C     C_R   0.314511 0.904698 0.716142 -0.106043
C10   C     C_R   0.814750 0.094209 0.216588 -0.101746
H1    H     H_    0.308445 0.041094 0.742527 0.179169
H2    H     H_    0.807643 0.957137 0.241850 0.175264
C11   C     C_R   0.359857 0.894449 0.668923 -0.165284
C12   C     C_R   0.859602 0.104488 0.168767 -0.165444
H3    H     H_    0.387479 0.023800 0.660330 0.134438
H4    H     H_    0.885945 0.974551 0.158706 0.133464
C13   C     C_R   0.370127 0.719332 0.634197 -0.056979
C14   C     C_R   0.870872 0.280258 0.135158 -0.057634
C15   C     C_R   0.332575 0.555553 0.646670 -0.153060
C16   C     C_R   0.835012 0.444820 0.149642 -0.153010
H5    H     H_    0.338241 0.419018 0.619834 0.114049
H6    H     H_    0.841475 0.581986 0.123789 0.115474
C17   C     C_R   0.286267 0.566825 0.692971 -0.030620
C18   C     C_R   0.789311 0.433647 0.196649 -0.039298
H7    H     H_    0.256961 0.439487 0.700191 0.131204
H8    H     H_    0.761072 0.561522 0.205083 0.130832
C19   C     C_R   0.278009 0.740629 0.729805 0.127598
C20   C     C_R   0.779841 0.258978 0.232084 0.130345
C21   C     C_R   0.236720 0.627847 0.846016 0.435266
C22   C     C_R   0.739011 0.369159 0.349063 0.461459
C23   C     C_R   0.186436 0.639445 0.887656 -0.245706
C24   C     C_R   0.688120 0.358208 0.389978 -0.239779
H9    H     H_    0.191131 0.541509 0.936696 0.165720
H10   H     H_    0.693163 0.454302 0.439749 0.136770
C25   C     C_R   0.132093 0.780239 0.869228 -0.114828
C26   C     C_R   0.632580 0.219904 0.369890 -0.110341
C27   C     C_R   0.128017 0.910503 0.807509 -0.112890
C28   C     C_R   0.627888 0.091410 0.307312 -0.134993
H11   H     H_    0.086836 0.021298 0.792382 0.124238
H12   H     H_    0.585794 0.982439 0.290989 0.127788
C29   C     C_R   0.175704 0.895332 0.763084 -0.129274
C30   C     C_R   0.676130 0.106192 0.263558 -0.148722
H13   H     H_    0.169783 0.994496 0.714187 0.134137
H14   H     H_    0.669661 0.008727 0.213885 0.132822
C31   C     C_R   0.229992 0.753142 0.780589 -0.042638
C32   C     C_R   0.731595 0.246070 0.282629 -0.042061
C33   C     C_R   0.779902 0.605041 0.797103 0.089706
C34   C     C_R   0.305736 0.374016 0.260517 0.114894
C35   C     C_R   0.820165 0.775845 0.810049 -0.076331
C36   C     C_R   0.318159 0.216400 0.312624 -0.157577
C37   C     C_R   0.793287 0.924468 0.755342 -0.182059
C38   C     C_R   0.264178 0.073043 0.295311 -0.189126
H15   H     H_    0.826313 0.049048 0.757457 0.138612
H16   H     H_    0.271129 0.948039 0.333281 0.126692
C39   C     C_R   0.726370 0.905701 0.693522 -0.160583
C40   C     C_R   0.198284 0.096344 0.232090 -0.159243
H17   H     H_    0.709454 0.020064 0.650156 0.129820
H18   H     H_    0.157053 0.986024 0.222466 0.132449
C41   C     C_R   0.683846 0.736893 0.684782 -0.081949
C42   C     C_R   0.183957 0.264644 0.184712 -0.100942
C43   C     C_R   0.710597 0.589805 0.740390 0.061934
C44   C     C_R   0.240663 0.397554 0.198087 0.066882
C45   C     C_3   0.722163 0.386667 0.722079 -0.468186
C46   C     C_3   0.241003 0.610321 0.208886 -0.468977
C47   C     C_3   0.800864 0.410937 0.774879 0.114418
C48   C     C_3   0.312125 0.585268 0.277471 0.139605
H19   H     H_    0.713383 0.362975 0.657409 0.172056
H20   H     H_    0.246032 0.689103 0.156274 0.187885
H21   H     H_    0.690870 0.287105 0.747804 0.161277
H22   H     H_    0.195521 0.658223 0.229289 0.153000
H23   H     H_    0.818652 0.311059 0.826596 0.112949
H24   H     H_    0.307901 0.621487 0.337077 0.098577
N1    N     N_2   0.848748 0.421950 0.725959 -0.494330
H25   H     H_    0.830915 0.344538 0.673334 0.274536
C49   C     C_3   0.925316 0.391114 0.765732 -0.464293
H26   H     H_    0.954000 0.388194 0.720701 0.190104
H27   H     H_    0.934501 0.251297 0.797505 0.185685
H28   H     H_    0.949022 0.510525 0.807062 0.213886
N2    N     N_2   0.374418 0.677771 0.263769 -0.486907
H29   H     H_    0.371550 0.825672 0.263357 0.266360
C50   C     C_3   0.402944 0.600889 0.203739 -0.464426
H30   H     H_    0.449965 0.689139 0.201889 0.181549
H31   H     H_    0.360896 0.604398 0.143925 0.193659
H32   H     H_    0.422316 0.451398 0.218934 0.197211
S1    S     S_3+6 0.308976 0.462636 0.882339 -0.002085
O21   O     O_2   0.284966 0.270066 0.844566 -0.341438
O22   O     O_2   0.375580 0.526509 0.863814 -0.319955
O23   O     O_3   0.329825 0.439835 0.981887 -0.491693
H33   H     H_    0.348407 0.568004 0.003547 0.328181
S2    S     S_3+6 0.813025 0.529437 0.387496 0.005244
O24   O     O_2   0.879543 0.456939 0.371267 -0.290699
O25   O     O_2   0.793063 0.722668 0.348896 -0.373627
O26   O     O_3   0.832276 0.553039 0.487024 -0.484425
H34   H     H_    0.803030 0.663579 0.494286 0.342097

loop_
_geom_bond_atom_site_label_1
_geom_bond_atom_site_label_2
_ccdc_geom_bond_type
C30   H14   S    
C23   C25   A    
O13   V3    S    
C45   H21   S    
O4    C2    A    
V1    O19   S    
S2    O24   D    
C17   H7    S    
C3    C26   S    
C4    C25   S    
C50   H31   S    
O9    V1    S    
C36   C38   A    
C42   C44   A    
C12   C14   A    
O3    C1    A    
S1    O22   D    
C44   C46   S    
O12   V4    S    
N1    H25   S    
C26   C28   A    
C8    C14   S    
C27   H11   S    
O7    C3    A    
C28   H12   S    
O13   V1    S    
O5    C7    A    
O7    V1    S    
O6    C8    A    
C46   H20   S    
O8    V2    S    
C29   H13   S    
C22   C32   A    
O3    V1    S    
O14   V4    S    
V4    O20   S    
C10   H2    S    
C40   C42   A    
C18   H8    S    
C21   C31   A    
C2    O12   A    
C33   C43   A    
C13   C15   A    
C14   C16   A    
O23   H33   S    
N1    C49   S    
C16   H6    S    
O11   V3    S    
C1    C36   S    
C46   H22   S    
C21   C23   A    
O17   V3    S    
C50   H32   S    
C22   C24   A    
C25   C27   A    
C45   H19   S    
C28   C30   A    
C43   C45   S    
C34   C36   A    
O8    C4    A    
S1    O23   S    
C33   C35   A    
C17   C19   A    
C1    O11   A    
O15   V3    S    
C9    C11   A    
C9    C19   A    
C24   C26   A    
C47   N1    S    
O4    V2    S    
C47   H23   S    
C34   C48   S    
C7    C13   S    
S2    O25   D    
C49   H26   S    
C33   C47   S    
O10   V2    S    
O1    V3    S    
N2    C50   S    
C15   H5    S    
C5    C41   S    
C40   H18   S    
C49   H27   S    
C46   C48   S    
O18   V4    S    
C23   H9    S    
O16   C6    A    
O1    C3    A    
C35   C37   A    
C39   H17   S    
V2    O20   S    
C21   S1    S    
O16   V4    S    
C41   C43   A    
C10   C12   A    
C10   C20   A    
C38   C40   A    
C38   H16   S    
C34   C44   A    
C48   H24   S    
O5    V1    S    
O17   C7    A    
O6    V2    S    
C50   H30   S    
O10   C6    A    
O18   C8    A    
O2    V4    S    
O15   C5    A    
C6    C42   S    
V3    O19   S    
S1    O21   D    
C12   H4    S    
C30   C32   A    
C37   C39   A    
C29   C31   A    
C22   S2    S    
O9    C5    A    
C2    C35   S    
C9    H1    S    
C24   H10   S    
O14   V2    S    
C11   C13   A    
O2    C4    A    
C48   N2    S    
S2    O26   S    
C20   C32   S    
C39   C41   A    
C27   C29   A    
C18   C20   A    
C49   H28   S    
C11   H3    S    
C37   H15   S    
N2    H29   S    
C45   C47   S    
C19   C31   S    
O26   H34   S    
C15   C17   A    
C16   C18   A    
