data_mof_unit_55464.cif
_audit_creation_date              2013-03-05T15:52:12-0500
_audit_creation_method            fapswitch 2.2
_symmetry_space_group_name_H-M    P1
_symmetry_Int_Tables_number       1
_space_group_crystal_system       triclinic
_cell_length_a                    8.245453
_cell_length_b                    17.505885
_cell_length_c                    27.114094
_cell_angle_alpha                 97.253388
_cell_angle_beta                  91.730992
_cell_angle_gamma                 83.373357
_cell_volume                      3856.01225075

loop_
_atom_site_label
_atom_site_type_symbol
_atom_site_description
_atom_site_fract_x
_atom_site_fract_y
_atom_site_fract_z
_atom_type_partial_charge
P1    P     P_3+3 0.078810 0.562990 0.610370 0.501540
O1    O     O_2   0.910880 0.540430 0.617910 -0.348652
O2    O     O_3   0.142880 0.540370 0.557740 -0.388158
O3    O     O_3   0.675650 0.402220 0.588450 -0.405457
O4    O     O_2   0.838325 0.444952 0.670685 -0.383852
O5    O     O_3   0.049068 0.663281 0.628132 -0.574200
O6    O     O_3   0.676903 0.331181 0.678739 -0.471562
H1    H     H_    0.731806 0.270105 0.608543 0.112458
C1    C     C_3   0.691495 0.191515 0.660392 -0.117721
H2    H     H_    0.823480 0.170848 0.655183 0.147687
P2    P     P_3+3 0.645380 0.325580 0.462150 0.560512
P3    P     P_3+3 0.127011 0.263195 0.564926 0.490677
O7    O     O_2   0.823810 0.314230 0.476690 -0.404870
O8    O     O_3   0.086630 0.363340 0.564170 -0.334267
O9    O     O_2   0.004651 0.225714 0.527627 -0.382099
O10   O     O_3   0.649624 0.295272 0.398056 -0.521756
O11   O     O_3   0.067895 0.242553 0.622789 -0.523591
C2    C     C_3   0.178931 0.270987 0.659060 0.316179
H3    H     H_    0.197944 0.332426 0.655897 0.088734
H4    H     H_    0.297430 0.233214 0.655660 0.086912
C3    C     C_3   0.112197 0.268132 0.710495 -0.712760
H5    H     H_    0.003071 0.311641 0.717364 0.272840
H6    H     H_    0.077208 0.209336 0.713432 0.265614
C4    C     C_3   0.103734 0.288586 0.395862 0.631775
H7    H     H_    0.994188 0.313987 0.416034 0.014245
C5    C     C_3   0.061898 0.211623 0.366786 -0.149663
H8    H     H_    0.045824 0.169999 0.393686 0.106386
H9    H     H_    0.943679 0.221763 0.346451 0.103709
Ba1   Ba    Ba6+2 0.856110 0.463800 0.523550 1.609295
C6    C     C_3   0.020868 0.706896 0.588216 0.161005
H10   H     H_    0.887687 0.715018 0.580472 0.112583
H11   H     H_    0.084729 0.680018 0.553860 0.134693
C7    C     C_3   0.082038 0.785448 0.605407 -0.099135
H12   H     H_    0.040825 0.806296 0.644002 0.158832
H13   H     H_    0.217748 0.778352 0.606228 0.145616
C8    C     C_3   0.655975 0.357849 0.370994 0.401003
H14   H     H_    0.779844 0.376817 0.374241 -0.000673
H15   H     H_    0.564882 0.407356 0.383807 0.141067
C9    C     C_3   0.618852 0.330458 0.316555 -0.835351
H16   H     H_    0.714084 0.283637 0.301820 0.250717
H17   H     H_    0.615663 0.378514 0.293543 0.195910
H18   H     H_    0.497886 0.307802 0.313139 0.303592
P4    P     P_3+3 0.110900 0.436950 0.389630 0.548959
O12   O     O_2   0.278810 0.459550 0.382060 -0.339979
O13   O     O_3   0.046820 0.459570 0.442260 -0.366535
O14   O     O_3   0.514050 0.597710 0.411540 -0.391787
O15   O     O_3   0.144884 0.339076 0.363413 -0.565194
P5    P     P_3+3 0.080128 0.736519 0.433437 0.466786
O16   O     O_3   0.627090 0.591350 0.524530 -0.390657
O17   O     O_3   0.103080 0.636600 0.435820 -0.384070
O18   O     O_2   0.218672 0.770602 0.465571 -0.357354
O19   O     O_3   0.120947 0.753122 0.373050 -0.540988
Ba2   Ba    Ba6+2 0.333710 0.536130 0.476450 1.602587
P6    P     P_3+3 0.671524 0.418694 0.653387 0.497722
C10   C     C_3   0.651888 0.270519 0.641016 0.324794
H19   H     H_    0.522172 0.277446 0.628740 -0.045824
H20   H     H_    0.620630 0.148432 0.637953 0.083762
O20   O     O_3   0.562610 0.408580 0.475460 -0.366888
C11   C     C_3   0.511943 0.660874 0.627916 0.390918
H21   H     H_    0.389125 0.644393 0.616024 0.082226
H22   H     H_    0.604847 0.609412 0.622094 0.114026
C12   C     C_3   0.507982 0.691377 0.683130 -0.926742
H23   H     H_    0.412327 0.741669 0.689871 0.265344
H24   H     H_    0.479830 0.646002 0.705621 0.211044
H25   H     H_    0.628978 0.710047 0.695453 0.277846
P7    P     P_3+3 0.550393 0.689298 0.538081 0.457208
O21   O     O_2   0.365880 0.685750 0.523280 -0.367737
O22   O     O_3   0.553873 0.719852 0.601989 -0.553856
H26   H     H_    0.207440 0.281450 0.739354 0.236288
C13   C     C_3   0.006842 0.718872 0.340202 0.274379
H27   H     H_    0.018305 0.654994 0.341219 0.117756
H28   H     H_    0.880569 0.744339 0.349922 0.069348
C14   C     C_3   0.039506 0.733264 0.287117 -0.691983
H29   H     H_    0.164894 0.706925 0.276523 0.214417
H30   H     H_    0.951026 0.704741 0.261193 0.234381
P8    P     P_3+3 0.524997 0.586242 0.346781 0.465840
C15   C     C_3   0.516661 0.735740 0.366109 0.390329
H31   H     H_    0.638606 0.734555 0.384664 0.010803
O23   O     O_2   0.362389 0.557273 0.327013 -0.392931
O24   O     O_3   0.518877 0.677149 0.325296 -0.529172
H32   H     H_    0.426457 0.727937 0.394107 0.173082
C16   C     C_3   0.464136 0.814683 0.348337 -0.655210
H33   H     H_    0.405729 0.855598 0.379420 0.205467
H34   H     H_    0.371489 0.807859 0.317908 0.189432
C17   C     C_R   0.067837 0.450703 0.182105 0.539805
O25   O     O_2   0.129840 0.398668 0.205025 -0.568376
N1    N     N_R   0.953594 0.507987 0.205062 -0.164465
C18   C     C_R   0.879357 0.564885 0.177540 0.512276
C19   C     C_2   0.749041 0.520385 0.271189 -0.158622
C20   C     C_3   0.703170 0.516600 0.324624 0.145780
C21   C     C_1   0.989922 0.490807 0.344357 0.275163
C22   C     C_2   0.034651 0.490974 0.297373 -0.172637
C23   C     C_2   0.908212 0.507308 0.257229 0.097633
C24   C     C_R   0.033266 0.507090 0.103575 -0.071328
C25   C     C_R   0.111166 0.450548 0.131721 -0.065566
C26   C     C_R   0.226117 0.392878 0.108259 -0.058389
C27   C     C_R   0.914201 0.563615 0.126503 -0.052718
C28   C     C_2   0.847435 0.525871 0.359404 -0.481815
H35   H     H_    0.161503 0.476220 0.287506 0.202215
H36   H     H_    0.284737 0.346757 0.128139 0.180305
C29   C     C_2   0.356157 0.484815 0.640584 -0.482517
C30   C     C_R   0.249268 0.455656 0.980271 -0.060942
C31   C     C_R   0.015516 0.555433 0.971327 0.054193
C32   C     C_R   0.148924 0.503842 0.950079 0.108024
C33   C     C_R   0.395291 0.414050 0.958759 -0.088151
C34   C     C_R   0.419216 0.408177 0.907242 -0.037276
C35   C     C_R   0.314626 0.451100 0.876557 -0.110798
C36   C     C_R   0.183700 0.501528 0.898286 -0.059347
C37   C     C_R   0.088178 0.550066 0.868221 -0.048415
C38   C     C_R   0.129188 0.550018 0.817683 0.534083
N2    N     N_R   0.255486 0.498252 0.795785 -0.165218
C39   C     C_R   0.344301 0.447265 0.824904 0.535897
C40   C     C_2   0.456642 0.490847 0.729039 -0.156826
C41   C     C_3   0.501036 0.493134 0.675349 0.148814
C42   C     C_1   0.209904 0.514074 0.656281 0.298565
C43   C     C_2   0.168514 0.510916 0.703168 -0.193143
C44   C     C_2   0.297842 0.498918 0.743259 0.099439
O26   O     O_2   0.449179 0.397879 0.805929 -0.545370
C45   C     C_R   0.200008 0.451910 0.030337 0.037785
C46   C     C_R   0.073173 0.506628 0.052291 0.108533
C47   C     C_R   0.983833 0.559987 0.023318 0.039294
C48   C     C_R   0.266278 0.392503 0.058579 -0.212738
H37   H     H_    0.555428 0.487874 0.756348 0.172763
H38   H     H_    0.528545 0.374411 0.891529 0.208525
H39   H     H_    0.344906 0.342567 0.042434 0.153402
O27   O     O_2   0.783334 0.617370 0.197471 -0.594228
C49   C     C_R   0.831734 0.617983 0.097924 -0.068558
H40   H     H_    0.651770 0.527775 0.243761 0.171623
H41   H     H_    0.738936 0.662244 0.114313 0.175946
C50   C     C_R   0.917785 0.600873 0.939502 -0.205431
C51   C     C_R   0.954372 0.598760 0.889447 -0.074231
O28   O     O_2   0.054074 0.597584 0.793689 -0.593947
C52   C     C_R   0.864482 0.615932 0.047579 -0.213006
H42   H     H_    0.809728 0.638308 0.951963 0.131286
H43   H     H_    0.875681 0.635496 0.867164 0.169357
H44   H     H_    0.041123 0.519352 0.712906 0.204589
H45   H     H_    0.795734 0.660429 0.028921 0.137083
H46   H     H_    0.830120 0.550715 0.397993 0.167975
H47   H     H_    0.377222 0.467696 0.601252 0.172551
H48   H     H_    0.475511 0.857103 0.525778 0.180305
H49   H     H_    0.311531 0.105904 0.545935 0.166752
C53   C     C_R   0.440423 0.280021 0.533180 -0.383478
C54   C     C_R   0.568649 0.255431 0.500108 0.413000
C55   C     C_R   0.620013 0.175395 0.490133 -0.201107
C56   C     C_R   0.532931 0.121058 0.509178 0.060136
C57   C     C_R   0.388236 0.147196 0.535356 -0.256775
C58   C     C_R   0.338553 0.226830 0.545692 0.192870
C59   C     C_R   0.585269 0.834909 0.505320 -0.195661
C60   C     C_R   0.642073 0.755541 0.502242 0.287936
C61   C     C_R   0.880208 0.777876 0.458344 0.224604
C62   C     C_R   0.825236 0.857202 0.461366 -0.065609
C63   C     C_R   0.676232 0.886166 0.484574 0.079812
C64   C     C_1   0.625636 0.969100 0.491737 0.075503
C65   C     C_1   0.584094 0.038389 0.499021 0.042889
C66   C     C_R   0.786855 0.727686 0.477938 -0.517358
H50   H     H_    0.900049 0.896170 0.447102 0.153751
H51   H     H_    0.721999 0.155516 0.465737 0.151217
H52   H     H_    0.403909 0.341413 0.542475 0.171205
H53   H     H_    0.831871 0.666985 0.477041 0.169056
N3    N     N_R   0.187782 0.178092 0.330973 0.305703
O29   O     O_R   0.266576 0.110358 0.335223 -0.320486
O30   O     O_R   0.208469 0.211388 0.291646 -0.311303
N4    N     N_R   0.021105 0.843619 0.573486 0.241727
O31   O     O_R   0.123930 0.876652 0.550104 -0.379840
O32   O     O_R   0.871046 0.875508 0.578089 -0.408303
N5    N     N_R   0.653615 0.195495 0.713141 0.299637
O33   O     O_R   0.747989 0.228503 0.746919 -0.304143
O34   O     O_R   0.533649 0.160949 0.726823 -0.352857
C67   C     C_2   0.024172 0.818670 0.282653 0.718537
H54   H     H_    0.097099 0.856496 0.306686 0.051232
O35   O     O_2   0.930230 0.846324 0.252063 -0.558523
C68   C     C_2   0.604769 0.849165 0.329223 0.626616
H55   H     H_    0.623825 0.845437 0.289395 0.095553
O36   O     O_2   0.698860 0.881465 0.358240 -0.603648
C69   C     C_2   0.538013 0.387202 0.989158 0.502337
H56   H     H_    0.559377 0.417219 0.025910 0.020467
O37   O     O_2   0.632976 0.331276 0.973510 -0.538508
N6    N     N_R   0.239117 0.276661 0.430664 0.198710
O38   O     O_R   0.360478 0.223949 0.417505 -0.401181
O39   O     O_R   0.267439 0.337017 0.461346 -0.407275

loop_
_geom_bond_atom_site_label_1
_geom_bond_atom_site_label_2
_geom_bond_distance
_ccdc_geom_bond_type
P7    O22   1.748151 S    
C10   H19   1.108249 S    
C52   H45   1.079028 S    
Ba2   O20   2.750264 S    
P5    C61   1.834633 S    
C2    C3    1.523353 S    
P2    O7    1.508877 D    
C14   H29   1.112876 S    
N2    C39   1.395878 Am   
P8    O23   1.544999 D    
O6    C10   1.407126 S    
N1    C18   1.393918 Am   
H48   C59   1.082789 S    
O14   P8    1.745838 S    
N6    O38   1.305935 A    
C29   H47   1.084313 S    
C69   O37   1.220610 D    
Ba1   O16   2.750869 S    
C15   H31   1.109866 S    
C36   C37   1.410162 A    
N4    O32   1.300181 A    
C5    H8    1.114814 S    
C28   H46   1.088167 S    
O1    Ba1   2.784370 S    
P3    C58   1.853239 S    
O7    Ba1   2.800266 S    
C1    N5    1.464521 S    
C7    N4    1.454896 S    
C4    C5    1.542194 S    
C2    H3    1.118820 S    
C51   H43   1.085233 S    
C6    H10   1.108046 S    
C15   O24   1.409689 S    
C59   C63   1.411515 A    
C34   C35   1.401981 A    
C42   C43   1.335676 D    
C26   H36   1.086347 S    
C43   C44   1.516184 S    
C30   C33   1.432865 A    
P1    O1    1.509553 D    
C67   H54   1.088099 S    
O2    Ba1   2.921049 S    
C38   N2    1.393526 Am   
C12   H24   1.109120 S    
C31   C32   1.426622 A    
C24   C46   1.437376 A    
O12   Ba2   2.784927 S    
P4    Ba2   3.372548 S    
P5    O18   1.544668 D    
N4    O31   1.301288 A    
P3    O11   1.749204 S    
C37   C51   1.404462 A    
C18   O27   1.222971 D    
C62   C63   1.408877 A    
C38   O28   1.222152 D    
C13   H27   1.115087 S    
C1    C10   1.537638 S    
C6    H11   1.108236 S    
P2    O20   1.536485 S    
P4    O15   1.764413 S    
C1    H2    1.113862 S    
C2    H4    1.114153 S    
O3    Ba1   2.734989 S    
C6    C7    1.531874 S    
C27   C49   1.404884 A    
P5    O17   1.746714 S    
P7    O21   1.567863 D    
O13   Ba2   2.921804 S    
C11   H21   1.112183 S    
C64   C65   1.214630 T    
C3    H5    1.113811 S    
N5    O34   1.303338 A    
C29   C41   1.508066 S    
C14   H30   1.113611 S    
C50   H42   1.079334 S    
C53   H52   1.081980 S    
H1    C10   1.114379 S    
C68   O36   1.221737 D    
C56   C57   1.407043 A    
C9    H18   1.112286 S    
C17   C25   1.422065 A    
C17   N1    1.392918 Am   
C16   C68   1.501488 S    
C11   H22   1.111505 S    
O17   Ba2   2.741185 S    
O16   P7    1.754908 S    
C57   C58   1.402234 A    
C66   H53   1.081914 S    
P1    O5    1.751792 S    
C49   C52   1.394736 A    
O4    P6    1.541225 D    
C59   C60   1.407026 A    
P7    C60   1.841675 S    
C9    H17   1.106419 S    
C21   C22   1.337364 D    
C24   C27   1.409524 A    
C17   O25   1.222146 D    
P4    C21   1.841725 S    
C3    H26   1.114639 S    
P1    O2    1.525397 S    
N3    O30   1.302572 A    
C30   C32   1.427796 A    
P4    O12   1.509825 D    
C49   H41   1.086309 S    
C12   H23   1.112845 S    
C11   O22   1.400015 S    
P2    O10   1.751971 S    
C69   H56   1.085661 S    
C40   H37   1.085345 S    
P3    O9    1.547508 D    
C15   H32   1.109900 S    
C35   C36   1.406773 A    
C13   C14   1.529187 S    
P1    Ba1   3.372104 S    
O11   C2    1.407229 S    
C35   C39   1.420918 A    
C62   H50   1.083323 S    
C4    H7    1.090186 S    
C5    N3    1.463291 S    
P4    O13   1.525424 S    
H49   C57   1.083349 S    
C40   C44   1.362767 D    
C56   C65   1.453850 S    
O5    C6    1.400295 S    
P3    O8    1.748898 S    
C16   H34   1.112055 S    
C61   C66   1.394772 A    
C3    H6    1.113358 S    
C4    N6    1.453426 S    
N5    O33   1.305860 A    
C29   C42   1.315734 D    
O8    Ba1   2.740402 S    
C14   C67   1.505684 S    
C68   H55   1.088678 S    
C31   C47   1.432086 A    
C32   C36   1.436395 A    
C46   C47   1.422632 A    
C40   C41   1.518263 S    
C67   O35   1.224085 D    
C45   C48   1.418163 A    
C8    H14   1.107528 S    
C11   C12   1.524647 S    
C12   H25   1.114153 S    
O3    P6    1.748583 S    
C61   C62   1.403144 A    
C4    O15   1.397877 S    
C53   C58   1.401854 A    
C8    C9    1.526511 S    
P8    O24   1.757352 S    
C55   C56   1.411051 A    
P6    C41   1.860307 S    
N6    O39   1.298552 A    
C45   C46   1.424081 A    
C43   H44   1.079804 S    
C33   C34   1.405824 A    
C5    H9    1.112662 S    
C26   C48   1.395846 A    
N2    C44   1.478394 S    
N3    O29   1.301367 A    
C48   H39   1.079735 S    
C8    H15   1.106997 S    
C50   C51   1.394230 A    
C60   C66   1.388952 A    
C18   C27   1.418741 A    
C37   C38   1.421144 A    
O10   C8    1.399897 S    
C39   O26   1.225547 D    
O2    Ba2   2.735084 S    
Ba1   Ba2   4.539301 S    
C15   C16   1.531996 S    
O16   Ba2   2.918342 S    
N1    C23   1.475858 S    
O14   Ba2   2.734574 S    
C22   C23   1.514804 S    
C7    H13   1.111382 S    
C7    H12   1.113655 S    
C1    H20   1.115706 S    
C55   H51   1.083406 S    
C21   C28   1.312560 D    
C19   C23   1.362697 D    
C24   C25   1.410365 A    
Ba2   O21   2.800570 S    
C31   C50   1.417786 A    
O19   C13   1.408062 S    
C9    H16   1.111646 S    
P5    O19   1.747765 S    
Ba1   O20   2.919290 S    
P2    Ba1   3.379919 S    
C16   H33   1.117022 S    
C33   C69   1.482135 S    
C34   H38   1.086370 S    
C25   C26   1.405579 A    
C53   C54   1.400720 A    
C13   H28   1.109972 S    
C63   C64   1.453775 S    
P1    C42   1.850838 S    
O6    P6    1.752111 S    
C47   C52   1.419260 A    
C19   C20   1.519774 S    
P2    C54   1.872261 S    
C20   C28   1.506232 S    
Ba1   O13   2.734518 S    
C30   C45   1.440149 A    
C54   C55   1.410625 A    
C22   H35   1.081390 S    
P8    C20   1.860257 S    
C19   H40   1.085086 S    
