data_mof_unit_52227.cif
_audit_creation_date              2013-03-05T15:40:27-0500
_audit_creation_method            fapswitch 2.2
_symmetry_space_group_name_H-M    P1
_symmetry_Int_Tables_number       1
_space_group_crystal_system       triclinic
_cell_length_a                    19.174143
_cell_length_b                    11.04368
_cell_length_c                    18.857881
_cell_angle_alpha                 89.846435
_cell_angle_beta                  90.013861
_cell_angle_gamma                 89.956565
_cell_volume                      3993.19914403

loop_
_atom_site_label
_atom_site_type_symbol
_atom_site_description
_atom_site_fract_x
_atom_site_fract_y
_atom_site_fract_z
_atom_type_partial_charge
O1    O     O_R   0.215090 0.709860 0.828130 -0.462789
O2    O     O_R   0.784910 0.709860 0.171870 -0.411397
O3    O     O_R   0.715090 0.209860 0.828130 -0.414206
O4    O     O_R   0.284910 0.209860 0.171870 -0.409270
O5    O     O_R   0.236990 0.958390 0.823710 -0.481870
O6    O     O_R   0.763010 0.958390 0.176290 -0.489158
O7    O     O_R   0.736990 0.458390 0.823710 -0.489830
O8    O     O_R   0.263010 0.458390 0.176290 -0.493026
C1    C     C_R   0.271870 0.041364 0.853755 0.590941
C2    C     C_R   0.728126 0.041466 0.146229 0.587268
C3    C     C_R   0.771873 0.541313 0.853771 0.587502
C4    C     C_R   0.228286 0.541717 0.146415 0.597165
O9    O     O_R   0.332380 0.074750 0.830850 -0.438494
O10   O     O_R   0.667620 0.074750 0.169150 -0.438175
O11   O     O_R   0.832380 0.574750 0.830850 -0.434146
O12   O     O_R   0.167620 0.574750 0.169150 -0.432404
O13   O     O_R   0.445800 0.917770 0.825070 -0.477609
O14   O     O_R   0.554200 0.917770 0.174930 -0.476300
O15   O     O_R   0.945800 0.417770 0.825070 -0.472229
O16   O     O_R   0.054200 0.417770 0.174930 -0.472402
C5    C     C_R   0.471515 0.822347 0.853567 0.507854
C6    C     C_R   0.528578 0.822440 0.146339 0.508602
C7    C     C_R   0.971239 0.322465 0.853704 0.506152
C8    C     C_R   0.028466 0.322496 0.146447 0.513652
O17   O     O_R   0.456410 0.716580 0.829970 -0.464718
O18   O     O_R   0.543590 0.716580 0.170030 -0.464917
O19   O     O_R   0.956410 0.216580 0.829970 -0.463963
O20   O     O_R   0.043590 0.216580 0.170030 -0.465124
O21   O     O_R   0.321080 0.625290 0.822650 -0.478303
O22   O     O_R   0.678920 0.625290 0.177350 -0.495624
O23   O     O_R   0.821080 0.125290 0.822650 -0.494672
O24   O     O_R   0.178920 0.125290 0.177350 -0.494757
C9    C     C_R   0.260524 0.634065 0.851025 0.527765
C10   C     C_R   0.739636 0.634212 0.149210 0.585509
C11   C     C_R   0.760387 0.134066 0.850805 0.586238
C12   C     C_R   0.239655 0.134268 0.149241 0.589323
O25   O     O_R   0.214930 0.711450 0.668160 -0.472412
O26   O     O_R   0.785070 0.711450 0.331840 -0.472697
O27   O     O_R   0.714930 0.211450 0.668160 -0.461367
O28   O     O_R   0.285070 0.211450 0.331840 -0.477776
O29   O     O_R   0.236850 0.959870 0.675420 -0.459621
O30   O     O_R   0.763150 0.959870 0.324580 -0.463180
O31   O     O_R   0.736850 0.459870 0.675420 -0.436558
O32   O     O_R   0.263150 0.459870 0.324580 -0.465142
C13   C     C_R   0.274935 0.042172 0.645618 0.552594
C14   C     C_R   0.727177 0.046333 0.351228 0.541025
C15   C     C_R   0.774734 0.543987 0.646135 0.560669
C16   C     C_R   0.225679 0.544101 0.353382 0.546655
O33   O     O_R   0.332230 0.076350 0.670880 -0.465597
O34   O     O_R   0.667770 0.076350 0.329120 -0.467048
O35   O     O_R   0.832230 0.576350 0.670880 -0.474442
O36   O     O_R   0.167770 0.576350 0.329120 -0.467499
O37   O     O_R   0.445660 0.919250 0.676780 -0.448193
O38   O     O_R   0.554340 0.919250 0.323220 -0.446449
O39   O     O_R   0.945660 0.419250 0.676780 -0.444437
O40   O     O_R   0.054340 0.419250 0.323220 -0.446649
C17   C     C_R   0.471453 0.821564 0.648667 0.594167
C18   C     C_R   0.529458 0.821567 0.352012 0.598564
C19   C     C_R   0.972494 0.322513 0.649182 0.593356
C20   C     C_R   0.029437 0.321829 0.352374 0.594657
O41   O     O_R   0.456260 0.718170 0.670000 -0.485095
O42   O     O_R   0.543740 0.718170 0.330000 -0.484626
O43   O     O_R   0.956260 0.218170 0.670000 -0.480181
O44   O     O_R   0.043740 0.218170 0.330000 -0.483358
O45   O     O_R   0.320940 0.626760 0.674370 -0.447285
O46   O     O_R   0.679060 0.626760 0.325630 -0.446259
O47   O     O_R   0.820940 0.126760 0.674370 -0.463883
O48   O     O_R   0.179060 0.126760 0.325630 -0.448122
C21   C     C_R   0.258741 0.633032 0.648272 0.619424
C22   C     C_R   0.741485 0.633735 0.351854 0.627152
C23   C     C_R   0.760154 0.138350 0.646504 0.635169
C24   C     C_R   0.241645 0.131794 0.350985 0.617415
Cr1   Cr    Cr6+3 0.230530 0.836340 0.748870 1.184444
Cr2   Cr    Cr6+3 0.769470 0.836340 0.251130 1.192213
Cr3   Cr    Cr6+3 0.730530 0.336340 0.748870 1.199991
Cr4   Cr    Cr6+3 0.269470 0.336340 0.251130 1.190289
Cr5   Cr    Cr6+3 0.387420 0.989430 0.750820 1.184967
Cr6   Cr    Cr6+3 0.612580 0.989430 0.249180 1.188112
Cr7   Cr    Cr6+3 0.887420 0.489430 0.750820 1.191722
Cr8   Cr    Cr6+3 0.112580 0.489430 0.249180 1.192430
Cr9   Cr    Cr6+3 0.385640 0.677860 0.749230 1.190951
Cr10  Cr    Cr6+3 0.614360 0.677860 0.250770 1.189256
Cr11  Cr    Cr6+3 0.885640 0.177860 0.749230 1.188382
Cr12  Cr    Cr6+3 0.114360 0.177860 0.250770 1.188948
O49   O     O_3   0.334530 0.834540 0.749640 -0.348791
O50   O     O_3   0.665470 0.834540 0.250360 -0.352270
O51   O     O_3   0.834530 0.334540 0.749640 -0.354477
O52   O     O_3   0.165470 0.334540 0.250360 -0.352774
C25   C     C_R   0.496412 0.832593 0.074481 -0.096548
C26   C     C_R   0.504115 0.832772 0.925174 -0.095765
C27   C     C_R   0.995784 0.332958 0.074868 -0.095073
C28   C     C_R   0.003009 0.333670 0.925567 -0.087208
C29   C     C_R   0.495008 0.944680 0.037153 -0.144129
C30   C     C_R   0.505117 0.944829 0.962282 -0.142322
C31   C     C_R   0.993733 0.445273 0.037793 -0.131439
C32   C     C_R   0.002896 0.446052 0.962730 -0.118089
C33   C     C_R   0.509452 0.725019 0.964286 0.288042
C34   C     C_R   0.492021 0.724736 0.035524 0.286196
C35   C     C_R   0.008682 0.225849 0.964655 0.291091
C36   C     C_R   0.991175 0.225348 0.035826 0.286877
C37   C     C_R   0.482862 0.056481 0.072182 0.326126
C38   C     C_R   0.517051 0.056868 0.927082 0.327183
C39   C     C_R   0.981637 0.556641 0.073376 0.330355
C40   C     C_R   0.012445 0.559102 0.927540 0.294771
C41   C     C_R   0.990378 0.666630 0.038037 0.334970
C42   C     C_R   0.004464 0.667860 0.964156 0.301874
C43   C     C_R   0.492070 0.165994 0.036402 0.322729
C44   C     C_R   0.507950 0.166213 0.962813 0.322287
C45   C     C_2   0.247419 0.570569 0.919660 0.206926
C46   C     C_2   0.754666 0.568278 0.082635 0.221178
C47   C     C_2   0.745470 0.068043 0.917487 0.221728
C48   C     C_2   0.254670 0.068731 0.082612 0.220175
C49   C     C_2   0.257085 0.588001 0.078996 0.240990
C50   C     C_2   0.744054 0.586084 0.921942 0.195813
C51   C     C_2   0.756036 0.086372 0.078061 0.196365
C52   C     C_2   0.244048 0.086493 0.921840 0.193649
C53   C     C_2   0.297310 0.513548 0.036997 0.153655
C54   C     C_2   0.704690 0.510612 0.964229 0.112100
C55   C     C_2   0.795440 0.010875 0.036017 0.111588
C56   C     C_2   0.204630 0.011353 0.964258 0.119615
C57   C     C_2   0.301492 0.526706 0.958005 0.196568
C58   C     C_2   0.701326 0.521929 0.043506 0.135063
C59   C     C_2   0.798968 0.022447 0.956838 0.132919
C60   C     C_2   0.201232 0.022998 0.043461 0.139168
C61   C     C_2   0.508278 0.818051 0.581092 0.219275
C62   C     C_2   0.495593 0.818902 0.421123 0.212400
C63   C     C_2   0.012507 0.323749 0.582883 0.207606
C64   C     C_2   0.996475 0.320462 0.422556 0.218867
C65   C     C_2   0.505214 0.717065 0.462686 0.167352
C66   C     C_2   0.499807 0.716031 0.539632 0.168187
C67   C     C_2   0.006905 0.219371 0.464431 0.171281
C68   C     C_2   0.011182 0.220479 0.542642 0.168426
C69   C     C_2   0.238753 0.564569 0.585067 0.299378
C70   C     C_2   0.763264 0.567046 0.414999 0.303997
C71   C     C_2   0.745535 0.096449 0.576278 0.328608
C72   C     C_2   0.263006 0.058566 0.412143 0.307844
C73   C     C_2   0.239984 0.589164 0.424862 0.156833
C74   C     C_2   0.762002 0.590872 0.574069 0.192224
C75   C     C_2   0.749112 0.102774 0.416239 0.150693
C76   C     C_2   0.261859 0.081310 0.572367 0.155668
C77   C     C_2   0.184561 0.618199 0.467671 0.114364
C78   C     C_2   0.818342 0.617335 0.531914 0.132301
C79   C     C_2   0.700089 0.152681 0.458980 0.117412
C80   C     C_2   0.317777 0.108392 0.529640 0.110561
C81   C     C_2   0.184906 0.609982 0.546198 0.193254
C82   C     C_2   0.817245 0.613659 0.453366 0.217238
C83   C     C_2   0.716884 0.180154 0.531281 0.229129
C84   C     C_2   0.317722 0.100289 0.450846 0.199077
O53   O     O_3   0.529151 0.617743 0.933323 -0.539011
H1    H     H_    0.557262 0.637632 0.890726 0.344572
O54   O     O_3   0.473306 0.616826 0.066654 -0.540767
H2    H     H_    0.444277 0.635864 0.108690 0.342901
O55   O     O_3   0.028341 0.118520 0.933677 -0.537514
H3    H     H_    0.056993 0.138392 0.891451 0.345644
O56   O     O_3   0.972337 0.117409 0.066848 -0.540113
H4    H     H_    0.943702 0.136408 0.109171 0.344273
N1    N     N_R   0.121027 0.665434 0.437138 0.089473
O57   O     O_R   0.121757 0.768857 0.403916 -0.195345
O58   O     O_R   0.061771 0.611642 0.448257 -0.194146
N2    N     N_R   0.881883 0.662717 0.562999 0.085275
O59   O     O_R   0.881461 0.766874 0.595161 -0.201463
O60   O     O_R   0.941148 0.609982 0.550392 -0.191742
N3    N     N_R   0.630679 0.185003 0.436185 0.086176
O61   O     O_R   0.622244 0.273684 0.391350 -0.204786
O62   O     O_R   0.577244 0.147673 0.472626 -0.199712
N4    N     N_R   0.380873 0.156239 0.560357 0.086039
O63   O     O_R   0.380097 0.262483 0.590046 -0.197801
O64   O     O_R   0.440136 0.101436 0.551118 -0.195867
O65   O     O_3   0.127943 0.656781 0.582585 -0.573997
H5    H     H_    0.109206 0.727795 0.556702 0.410817
O66   O     O_3   0.873386 0.663410 0.416904 -0.575650
H6    H     H_    0.893098 0.731581 0.444309 0.411788
O67   O     O_3   0.703876 0.297473 0.553738 -0.663237
H7    H     H_    0.666368 0.333267 0.524401 0.420808
O68   O     O_3   0.374582 0.146541 0.413984 -0.579924
H8    H     H_    0.395117 0.214950 0.440541 0.409730
N5    N     N_R   0.310249 0.588786 0.449513 0.076525
O69   O     O_R   0.335810 0.685068 0.479415 -0.378385
O70   O     O_R   0.350812 0.498421 0.433830 -0.205282
N6    N     N_R   0.692031 0.605196 0.549689 0.080947
O71   O     O_R   0.674459 0.700966 0.513480 -0.376753
O72   O     O_R   0.643826 0.536580 0.575952 -0.215951
N7    N     N_R   0.819689 0.085981 0.439910 0.080417
O73   O     O_R   0.853498 0.175739 0.468225 -0.370852
O74   O     O_R   0.846627 0.977809 0.441514 -0.214009
N8    N     N_R   0.192211 0.076099 0.546043 0.080180
O75   O     O_R   0.165377 0.170380 0.514802 -0.373195
O76   O     O_R   0.154833 0.979253 0.556002 -0.211744
O77   O     O_3   0.278383 0.466019 0.565032 -0.600544
H9    H     H_    0.250860 0.418037 0.530507 0.322700
O78   O     O_3   0.725797 0.467478 0.435963 -0.637842
H10   H     H_    0.758773 0.416267 0.463186 0.326187
O79   O     O_3   0.755210 0.974948 0.561383 -0.632502
H11   H     H_    0.724521 0.951618 0.521485 0.325613
O80   O     O_3   0.224924 0.956890 0.429782 -0.600700
H12   H     H_    0.252989 0.907791 0.463506 0.328409
O81   O     O_3   0.454872 0.063232 0.139637 -0.553868
H13   H     H_    0.427880 0.988445 0.149141 0.325677
O82   O     O_3   0.544877 0.064002 0.859551 -0.557227
H14   H     H_    0.571879 0.989244 0.850048 0.325842
O83   O     O_3   0.954256 0.562460 0.141119 -0.557678
H15   H     H_    0.927325 0.487553 0.150486 0.323817
O84   O     O_3   0.037400 0.568328 0.858931 -0.596090
H16   H     H_    0.065879 0.495630 0.848363 0.314374
O85   O     O_3   0.983738 0.769762 0.078582 -0.516527
H17   H     H_    0.973271 0.839642 0.048023 0.403483
O86   O     O_3   0.011657 0.772490 0.924767 -0.524425
H18   H     H_    0.027194 0.838791 0.955606 0.404083
O87   O     O_3   0.484624 0.269591 0.076355 -0.514610
H19   H     H_    0.472808 0.338309 0.045443 0.402892
O88   O     O_3   0.515573 0.270115 0.922861 -0.516005
H20   H     H_    0.527698 0.338341 0.953801 0.403092
N9    N     N_R   0.338092 0.417705 0.068292 0.090262
O89   O     O_R   0.341633 0.312989 0.037625 -0.223389
O90   O     O_R   0.381045 0.441026 0.119919 -0.269368
N10   N     N_R   0.662894 0.416603 0.932738 0.100841
O91   O     O_R   0.658446 0.311372 0.962956 -0.225509
O92   O     O_R   0.619908 0.442268 0.881434 -0.263227
N11   N     N_R   0.837168 0.916555 0.067639 0.101008
O93   O     O_R   0.841859 0.811722 0.037278 -0.223914
O94   O     O_R   0.880154 0.941886 0.118903 -0.265616
N12   N     N_R   0.163070 0.916739 0.933177 0.097823
O95   O     O_R   0.157754 0.813000 0.964954 -0.270101
O96   O     O_R   0.119867 0.941619 0.881926 -0.264289
N13   N     N_R   0.360702 0.475112 0.922153 0.113385
O97   O     O_R   0.421710 0.479256 0.951519 -0.229233
O98   O     O_R   0.351255 0.402597 0.868669 -0.235825
N14   N     N_R   0.641880 0.470785 0.079297 0.124176
O99   O     O_R   0.580771 0.476184 0.050119 -0.218393
O100  O     O_R   0.650909 0.399617 0.133702 -0.239976
N15   N     N_R   0.858918 0.972505 0.921451 0.123710
O101  O     O_R   0.919896 0.979680 0.950750 -0.216589
O102  O     O_R   0.850621 0.900503 0.867538 -0.234096
N16   N     N_R   0.141612 0.972389 0.079223 0.125892
O103  O     O_R   0.080478 0.979031 0.050199 -0.219807
O104  O     O_R   0.150423 0.900327 0.133263 -0.239718
O105  O     O_3   0.237291 0.702693 0.058252 -0.607247
H21   H     H_    0.272141 0.733283 0.023705 0.305882
O106  O     O_3   0.764843 0.699526 0.943398 -0.612903
H22   H     H_    0.730080 0.730073 0.977980 0.313392
O107  O     O_3   0.735565 0.200113 0.056449 -0.613988
H23   H     H_    0.770371 0.230413 0.021766 0.312626
O108  O     O_3   0.265080 0.199870 0.943204 -0.608254
H24   H     H_    0.230413 0.230679 0.977803 0.325740
O109  O     O_3   0.181849 0.569154 0.949731 -0.690528
H25   H     H_    0.149101 0.604773 0.915357 0.387843
O110  O     O_3   0.822338 0.571598 0.057537 -0.634930
H26   H     H_    0.828911 0.504395 0.023388 0.300006
O111  O     O_3   0.677750 0.070942 0.942515 -0.634220
H27   H     H_    0.671361 0.003777 0.976923 0.300879
O112  O     O_3   0.322348 0.072020 0.057500 -0.634234
H28   H     H_    0.328869 0.004897 0.023288 0.300158
N17   N     N_R   0.518695 0.598623 0.432427 0.138071
O113  O     O_R   0.573318 0.536754 0.451258 -0.164217
O114  O     O_R   0.474652 0.550249 0.388349 -0.205965
N18   N     N_R   0.483230 0.597323 0.569193 0.138992
O115  O     O_R   0.429254 0.537656 0.547015 -0.144616
O116  O     O_R   0.521674 0.548132 0.618292 -0.203616
N19   N     N_R   0.012446 0.100103 0.432802 0.143858
O117  O     O_R   0.066872 0.032634 0.444215 -0.147238
O118  O     O_R   0.965004 0.061910 0.388915 -0.210937
N20   N     N_R   0.011878 0.102365 0.576454 0.146875
O119  O     O_R   0.964040 0.022842 0.561435 -0.165759
O120  O     O_R   0.054682 0.080362 0.628572 -0.240188
O121  O     O_3   0.461956 0.922111 0.443866 -0.595965
H29   H     H_    0.426509 0.897380 0.479304 0.341322
O122  O     O_3   0.543924 0.920309 0.559431 -0.604231
H30   H     H_    0.578410 0.896109 0.522968 0.345282
O123  O     O_3   0.962803 0.423570 0.445316 -0.591961
H31   H     H_    0.928517 0.399074 0.481989 0.341434
O124  O     O_3   0.042139 0.430836 0.560431 -0.585214
H32   H     H_    0.078365 0.410778 0.524794 0.338985

loop_
_geom_bond_atom_site_label_1
_geom_bond_atom_site_label_2
_geom_bond_distance
_ccdc_geom_bond_type
C46   O110  1.381771 S    
C18   O42   1.246323 A    
Cr11  O51   1.987955 S    
O66   H6    0.989526 S    
O4    C12   1.278584 A    
C35   C36   1.383560 A    
C37   C43   1.394690 A    
C29   C30   1.425204 A    
C26   C30   1.423436 A    
O39   C19   1.295836 A    
O20   Cr12  2.082565 S    
C64   O123  1.378154 S    
C78   C82   1.482056 S    
O37   Cr5   1.949985 S    
C31   C32   1.426442 A    
O8    Cr4   1.952799 S    
C80   C84   1.488821 S    
C74   N6    1.426659 S    
N14   O100  1.302190 A    
C33   C34   1.384428 A    
O1    C9    1.281700 A    
O112  H28   0.991883 S    
N4    O64   1.299030 A    
C53   N9    1.440578 S    
O85   H17   0.982490 S    
O7    C3    1.269220 A    
O111  H27   0.991882 S    
N1    O57   1.301327 A    
C16   C73   1.464092 S    
C52   O108  1.376989 S    
O24   C12   1.283420 A    
N3    O62   1.300551 A    
N10   O92   1.301343 A    
C48   C60   1.361057 D    
O25   C21   1.263775 A    
N7    O74   1.301414 A    
C23   C71   1.431722 S    
N17   O113  1.298977 A    
C37   O81   1.382939 S    
C24   C72   1.464964 S    
N9    O89   1.296125 A    
O46   Cr10  1.960663 S    
C19   C63   1.467083 S    
O124  H32   0.991941 S    
O21   C9    1.282297 A    
C28   C32   1.426938 A    
C57   N13   1.439473 S    
O107  H23   0.992225 S    
O65   H5    0.989854 S    
C79   N3    1.442782 S    
O32   Cr4   1.950460 S    
C3    C50   1.478170 S    
C1    O9    1.291781 A    
C63   C68   1.371822 D    
O44   Cr12  2.065839 S    
C53   C57   1.498471 S    
C51   O107  1.376387 S    
C3    O11   1.291982 A    
C61   C66   1.382751 D    
O11   Cr7   2.070300 S    
O106  H22   0.992187 S    
N6    O72   1.293477 A    
N5    O70   1.299540 A    
N18   O116  1.300819 A    
C12   C48   1.479935 S    
C21   C69   1.464318 S    
C43   C44   1.420810 A    
C62   O121  1.378655 S    
C38   C44   1.395282 A    
O27   Cr3   2.078459 S    
C27   C36   1.402493 A    
O3    Cr3   2.064559 S    
O121  H29   0.991301 S    
Cr4   O52   1.994273 S    
C26   C33   1.402015 A    
O2    Cr2   2.069671 S    
O8    C4    1.266348 A    
C34   O54   1.374980 S    
C60   N16   1.439921 S    
Cr9   O49   1.987955 S    
Cr6   O50   1.987986 S    
C49   O105  1.377657 S    
O42   Cr10  2.065839 S    
O54   H2    0.991640 S    
C45   O109  1.379434 S    
O82   H14   0.990953 S    
O18   Cr10  2.082565 S    
C63   O124  1.378105 S    
O123  H31   0.991522 S    
C61   O122  1.381361 S    
C11   C47   1.479959 S    
C55   N11   1.440810 S    
N12   O95   1.295579 A    
O77   H9    0.992613 S    
N16   O104  1.302217 A    
O24   Cr12  1.946904 S    
O34   Cr6   2.079024 S    
Cr7   O51   1.989411 S    
N14   O99   1.295617 A    
C31   C39   1.421550 A    
O29   C13   1.293709 A    
O6    Cr2   1.952799 S    
O56   H4    0.991669 S    
O9    Cr5   2.070300 S    
C5    C26   1.492645 S    
N9    O90   1.301446 A    
O31   Cr3   1.945388 S    
C70   C82   1.364642 D    
C81   O65   1.390061 S    
O30   Cr2   1.950460 S    
C84   O68   1.389986 S    
O22   C10   1.283288 A    
C69   O77   1.380488 S    
O86   H18   0.982662 S    
O48   Cr12  1.960663 S    
C40   O84   1.383107 S    
C4    O12   1.292447 A    
C20   C64   1.466830 S    
O36   Cr8   2.079024 S    
O32   C16   1.295531 A    
N10   O91   1.295840 A    
C72   O80   1.379871 S    
N15   O102  1.302175 A    
C2    O10   1.291640 A    
C29   C37   1.420949 A    
N11   O93   1.296015 A    
N17   O114  1.300848 A    
O16   Cr8   1.961226 S    
C15   O35   1.249842 A    
C62   C65   1.381338 D    
C54   N10   1.441222 S    
O67   H7    0.988802 S    
C47   C59   1.361354 D    
C78   N2    1.442699 S    
C13   C76   1.467765 S    
O13   C5    1.280032 A    
O40   C20   1.298288 A    
C51   C55   1.377511 D    
C80   N4    1.442455 S    
O48   C24   1.292945 A    
O12   Cr8   2.067343 S    
N2    O60   1.298787 A    
C70   O78   1.371323 S    
O22   Cr10  1.946904 S    
O15   C7    1.278023 A    
N7    O73   1.300602 A    
C39   O83   1.382913 S    
C54   C58   1.501937 S    
O5    C1    1.269447 A    
C71   O79   1.384003 S    
O39   Cr7   1.949985 S    
O3    C11   1.278534 A    
O45   Cr9   1.963380 S    
O88   H20   0.982216 S    
C13   O33   1.256040 A    
O14   Cr6   1.961226 S    
C58   N14   1.439804 S    
N18   O115  1.297125 A    
O13   Cr5   1.957506 S    
O87   H19   0.982021 S    
C73   C77   1.372994 D    
O23   Cr11  1.945248 S    
C73   N5    1.425108 S    
C75   C79   1.356080 D    
C39   C41   1.394160 A    
C72   C84   1.359368 D    
O47   Cr11  1.963380 S    
Cr2   O50   1.994273 S    
O15   Cr7   1.957506 S    
O35   Cr7   2.074552 S    
Cr1   O49   1.994246 S    
C50   C54   1.377668 D    
N5    O69   1.301019 A    
C49   C53   1.378785 D    
C36   O56   1.375021 S    
Cr3   O51   1.994246 S    
O26   C22   1.255770 A    
C65   N17   1.451533 S    
O21   Cr9   1.945248 S    
C18   C62   1.456466 S    
C7    O19   1.285233 A    
C32   C40   1.424279 A    
O30   C14   1.281329 A    
N4    O63   1.301494 A    
C10   C46   1.481284 S    
C8    O20   1.283247 A    
O23   C11   1.282957 A    
C69   C81   1.360768 D    
N16   O103  1.295496 A    
N8    O76   1.301132 A    
N19   O117  1.299374 A    
C8    C27   1.492218 S    
C79   C83   1.434170 S    
C42   O86   1.379009 S    
C44   O88   1.378883 S    
C75   N7    1.436623 S    
N6    O71   1.301505 A    
C48   O112  1.381948 S    
C68   N20   1.450425 S    
C65   C66   1.454776 S    
O26   Cr2   2.072736 S    
O25   Cr1   2.078459 S    
C77   N1    1.443886 S    
O78   H10   0.990407 S    
C5    O17   1.284329 A    
N12   O96   1.301408 A    
C56   N12   1.440370 S    
O28   C24   1.263745 A    
N13   O97   1.295011 A    
O14   C6    1.282232 A    
C1    C52   1.478121 S    
C19   O43   1.255808 A    
O5    Cr1   1.958144 S    
C33   O53   1.374885 S    
C76   C80   1.373985 D    
O109  H25   0.983498 S    
N19   O118  1.300934 A    
C67   C68   1.477237 S    
O37   C17   1.300723 A    
O6    C2    1.267512 A    
N20   O120  1.302559 A    
O110  H26   0.991902 S    
C83   O67   1.386620 S    
C17   O41   1.244433 A    
C40   C42   1.395363 A    
C43   O87   1.378915 S    
C41   O85   1.379326 S    
C55   C59   1.499802 S    
C47   O111  1.382074 S    
C41   C42   1.419270 A    
C14   O34   1.256854 A    
C71   C83   1.367902 D    
O40   Cr8   1.947680 S    
O83   H15   0.991001 S    
C25   C34   1.403714 A    
C20   O44   1.251366 A    
O122  H30   0.991165 S    
O1    Cr1   2.064559 S    
N2    O59   1.301835 A    
O33   Cr5   2.074552 S    
O19   Cr11  2.084658 S    
N8    O75   1.300642 A    
C38   O82   1.382917 S    
C76   N8    1.425869 S    
Cr8   O52   1.987986 S    
O68   H8    0.989437 S    
Cr10  O50   1.989213 S    
O53   H1    0.991698 S    
C46   C58   1.361973 D    
O16   C8    1.281694 A    
C17   C61   1.457609 S    
O2    C10   1.279431 A    
O46   C22   1.297391 A    
Cr12  O52   1.989213 S    
Cr5   O49   1.989411 S    
O45   C21   1.291798 A    
C35   O55   1.375296 S    
C15   C74   1.473250 S    
C74   C78   1.372579 D    
C77   C81   1.483399 S    
N13   O98   1.302266 A    
C6    C25   1.492628 S    
N20   O119  1.302037 A    
C4    C49   1.476430 S    
C9    C45   1.491880 S    
O47   C23   1.284564 A    
N11   O94   1.301377 A    
O10   Cr6   2.067343 S    
C25   C29   1.422591 A    
O81   H13   0.990975 S    
C52   C56   1.377455 D    
C82   O66   1.390198 S    
O7    Cr3   1.958144 S    
O4    Cr4   2.069671 S    
N3    O61   1.302072 A    
C56   C60   1.500889 S    
O29   Cr1   1.945388 S    
O80   H12   0.992764 S    
O28   Cr4   2.072736 S    
C16   O36   1.251938 A    
C59   N15   1.439544 S    
C30   C38   1.421297 A    
C27   C31   1.422732 A    
N1    O58   1.299318 A    
O79   H11   0.989847 S    
C6    O18   1.282900 A    
O43   Cr11  2.064556 S    
O38   C18   1.297678 A    
N15   O101  1.295629 A    
C22   C70   1.459237 S    
O27   C23   1.253506 A    
C7    C28   1.491148 S    
C14   C75   1.439662 S    
O41   Cr9   2.064556 S    
C45   C57   1.352594 D    
O84   H16   0.991329 S    
O55   H3    0.991726 S    
O105  H21   0.992192 S    
O31   C15   1.301559 A    
C64   C67   1.380149 D    
C67   N19   1.451197 S    
O17   Cr9   2.084658 S    
C2    C51   1.477219 S    
O108  H24   0.992160 S    
C28   C35   1.402882 A    
C50   O106  1.376790 S    
O38   Cr6   1.947680 S    
C66   N18   1.458511 S    
