data_mof_unit_20904.cif
_audit_creation_date              2012-12-10T19:44:25-0500
_audit_creation_method            fapswitch 2.2
_symmetry_space_group_name_H-M    P1
_symmetry_Int_Tables_number       1
_space_group_crystal_system       triclinic
_cell_length_a                    10.980958
_cell_length_b                    12.335028
_cell_length_c                    13.757482
_cell_angle_alpha                 116.754233
_cell_angle_beta                  80.27466
_cell_angle_gamma                 100.549757
_cell_volume                      1627.87672519

loop_
_atom_site_label
_atom_site_type_symbol
_atom_type_description
_atom_site_fract_x
_atom_site_fract_y
_atom_site_fract_z
_atom_type_partial_charge
C1    C     C_R   0.502848 0.854221 0.289017 0.836246
C2    C     C_R   0.712830 0.758803 0.758598 -0.128922
C3    C     C_R   0.040123 0.919421 0.525642 0.230691
C4    C     C_R   0.126912 0.004571 0.499627 -0.133564
C5    C     C_R   0.077922 0.090129 0.478465 0.008920
C6    C     C_R   0.950646 0.075669 0.472931 -0.137568
C7    C     C_R   0.867419 0.007647 0.519235 -0.095727
C8    C     C_R   0.916367 0.942464 0.564531 -0.001249
C9    C     C_R   0.107650 0.309637 0.507212 0.179601
C10   C     C_R   0.160938 0.398555 0.469829 0.161428
C11   C     C_R   0.264634 0.375874 0.393097 -0.106521
C12   C     C_R   0.735450 0.003724 0.508580 0.785831
C13   C     C_R   0.308083 0.262403 0.345797 -0.214348
C14   C     C_R   0.242881 0.167650 0.368481 -0.065668
C15   C     C_R   0.148628 0.191667 0.454993 0.026072
C16   C     C_R   0.491074 0.262181 0.015950 0.147315
C17   C     C_R   0.492146 0.228521 0.828450 -0.083034
C18   C     C_R   0.485759 0.818878 0.095603 0.297307
C19   C     C_R   0.498498 0.744946 0.984058 -0.172300
C20   C     C_R   0.510771 0.622050 0.944252 -0.218968
C21   C     C_R   0.494748 0.565607 0.015054 0.098360
C22   C     C_R   0.475194 0.640011 0.129574 -0.010094
C23   C     C_R   0.488491 0.145646 0.711000 0.838954
C24   C     C_R   0.493508 0.436761 0.975844 0.067639
C25   C     C_R   0.486707 0.387677 0.052068 0.038269
C26   C     C_R   0.461009 0.461612 0.162750 -0.264996
C27   C     C_R   0.437856 0.579906 0.197384 0.280453
C28   C     C_R   0.490623 0.354275 0.864522 -0.225360
C29   C     C_R   0.496680 0.183738 0.905162 0.180303
C30   C     C_R   0.486169 0.770236 0.171032 -0.140209
C31   C     C_R   0.687899 0.335124 0.320159 0.093728
C32   C     C_R   0.342129 0.759827 0.648488 0.484869
C33   C     C_R   0.326939 0.670068 0.687023 -0.038934
C34   C     C_R   0.262320 0.000714 0.498273 0.831217
C35   C     C_R   0.391287 0.566638 0.631409 0.081931
C36   C     C_R   0.479451 0.557476 0.540700 0.010994
C37   C     C_R   0.496396 0.655238 0.508666 0.116870
C38   C     C_R   0.548621 0.453004 0.478391 -0.097769
C39   C     C_R   0.629530 0.444503 0.383202 -0.034428
C40   C     C_R   0.652505 0.548363 0.360657 0.109521
C41   C     C_R   0.588688 0.649027 0.423515 -0.098099
C42   C     C_R   0.549986 0.361205 0.513164 0.435962
C43   C     C_R   0.654603 0.235814 0.348372 0.309663
C44   C     C_R   0.656380 0.839722 0.741610 -0.219653
C45   C     C_R   0.726600 0.913310 0.693864 -0.066215
C46   C     C_R   0.846861 0.888497 0.641684 0.060042
C47   C     C_R   0.905765 0.816738 0.672367 -0.128339
C48   C     C_R   0.839425 0.753836 0.731111 0.361300
Cu1   Cu    Cu3+1 0.529370 0.098270 0.475420 1.033370
Cu2   Cu    Cu3+1 0.470630 0.901730 0.524580 1.018983
H1    H     H_    0.660288 0.704368 0.797721 0.174261
H2    H     H_    0.313306 0.447579 0.372431 0.185945
H3    H     H_    0.392886 0.247820 0.292439 0.163903
H4    H     H_    0.269035 0.076385 0.321486 0.197834
H5    H     H_    0.439319 0.423096 0.220900 0.147735
H6    H     H_    0.478949 0.384781 0.805400 0.193577
H7    H     H_    0.530005 0.572752 0.857557 0.173627
H8    H     H_    0.499221 0.783814 0.927435 0.157930
H9    H     H_    0.558883 0.846755 0.768180 0.169964
H10   H     H_    0.616451 0.722082 0.401527 0.229431
H11   H     H_    0.686444 0.989276 0.699074 0.169021
H12   H     H_    0.003620 0.809474 0.652882 0.215398
H13   H     H_    0.916693 0.125692 0.437407 0.186628
N1    N     N_R   0.573890 0.246290 0.438210 -0.226624
N2    N     N_R   0.426890 0.754320 0.561170 -0.236432
O1    O     O_R   0.536940 0.972510 0.318130 -0.531720
O2    O     O_R   0.487330 0.806530 0.359650 -0.588006
O3    O     O_R   0.705160 0.082990 0.479250 -0.541513
O4    O     O_R   0.655550 0.917010 0.520760 -0.632462
O5    O     O_R   0.512670 0.193470 0.640350 -0.554644
O6    O     O_R   0.463060 0.027490 0.681870 -0.553121
O7    O     O_R   0.344450 0.082990 0.479240 -0.599464
O8    O     O_R   0.294840 0.917010 0.520750 -0.496399
N3    N     N_3   0.502591 0.057035 0.872046 -0.568278
H14   H     H_    0.578796 0.050779 0.904940 0.254738
H15   H     H_    0.422060 0.021580 0.905960 0.286328
N4    N     N_3   0.478532 0.208982 0.090566 -0.560471
H16   H     H_    0.542356 0.256847 0.148477 0.248983
H17   H     H_    0.386936 0.213575 0.126631 0.248323
Br1   Br    Br    0.453561 0.981366 0.136079 -0.583938
Br2   Br    Br    0.293769 0.616976 0.298434 -0.417540
N5    N     N_3   0.715569 0.127821 0.290026 -0.477344
H18   H     H_    0.810966 0.151801 0.297954 0.232282
H19   H     H_    0.701851 0.090177 0.207266 0.272815
N6    N     N_3   0.741913 0.559889 0.276130 -0.560070
H20   H     H_    0.716208 0.494991 0.199527 0.273021
H21   H     H_    0.830883 0.554905 0.290048 0.314215
Br3   Br    Br    0.811643 0.309086 0.195494 -0.529865
Br4   Br    Br    0.635476 0.424851 0.641658 -0.477901
Br5   Br    Br    0.240305 0.890504 0.726023 -0.446327
N7    N     N_3   0.361887 0.469093 0.664521 -0.570122
H22   H     H_    0.268326 0.434763 0.656383 0.246400
H23   H     H_    0.374895 0.503812 0.746972 0.223396
N8    N     N_3   0.245161 0.685732 0.784403 -0.506383
H24   H     H_    0.177956 0.609562 0.767727 0.277249
H25   H     H_    0.297261 0.691979 0.843985 0.235089
Br6   Br    Br    0.921181 0.665041 0.778188 -0.419644
Br7   Br    Br    0.057006 0.749447 0.441180 -0.431222
Br8   Br    Br    0.984470 0.353132 0.632378 -0.468290
N9    N     N_3   0.111697 0.512171 0.508643 -0.499626
H26   H     H_    0.019128 0.492889 0.490814 0.287181
H27   H     H_    0.112299 0.557478 0.593287 0.268258

loop_
_geom_bond_atom_site_label_1
_geom_bond_atom_site_label_2
_ccdc_geom_bond_type
C6    H13   S    
C12   O4    A    
Cu1   O3    S    
C34   O7    A    
C17   C29   A    
C35   C36   A    
C33   N8    S    
C47   H12   S    
C28   H6    S    
C7    C8    A    
N4    H16   S    
C48   Br6   S    
C12   O3    A    
C26   C27   A    
C17   C23   S    
C31   C43   A    
C36   C37   A    
Cu2   O4    S    
C38   C42   A    
C38   C39   A    
C44   H9    S    
C18   C19   A    
C1    C30   S    
C11   H2    S    
C1    O2    A    
C32   Br5   S    
C19   C20   A    
C2    C44   A    
Cu1   O7    S    
C37   N2    A    
C18   C30   A    
Cu2   O2    S    
N6    H21   S    
C9    Br8   S    
Cu1   N1    S    
C21   C22   A    
C26   H5    S    
C37   C41   A    
C23   O5    A    
C43   N1    A    
C13   H3    S    
N4    H17   S    
C19   H8    S    
C7    C12   S    
C4    C34   S    
Cu1   O1    S    
C23   O6    A    
C27   Br2   S    
C24   C25   A    
C3    C8    A    
N3    H14   S    
Cu2   O8    S    
N7    H22   S    
C29   N3    S    
C2    C48   A    
C16   C29   A    
N6    H20   S    
C40   N6    S    
N8    H25   S    
Cu2   O6    S    
N7    H23   S    
C47   C48   A    
N9    H27   S    
C1    O1    A    
C10   N9    S    
N3    H15   S    
C40   C41   A    
C14   H4    S    
Cu1   Cu2   S    
N5    H19   S    
C22   C27   A    
C3    C4    A    
C42   N1    A    
C39   C40   A    
C44   C45   A    
C9    C10   A    
C16   C25   A    
C46   C47   A    
C31   Br3   S    
C22   C30   A    
C17   C28   A    
C24   C28   A    
C41   H10   S    
C4    C5    A    
C6    C7    A    
Cu1   O5    S    
C42   Br4   S    
C10   C11   A    
C32   C33   A    
C36   C38   A    
C25   C26   A    
C11   C13   A    
C3    Br7   S    
C5    C6    A    
C45   H11   S    
N9    H26   S    
C33   C35   A    
C31   C39   A    
C9    C15   A    
N8    H24   S    
Cu2   N2    S    
C8    C46   S    
C5    C15   S    
C2    H1    S    
C34   O8    A    
C45   C46   A    
C20   C21   A    
C18   Br1   S    
N5    H18   S    
C21   C24   A    
C43   N5    S    
C14   C15   A    
C16   N4    S    
C20   H7    S    
C13   C14   A    
C32   N2    A    
C35   N7    S    
