data_mof_unit_42939.cif
_audit_creation_date              2012-12-10T17:24:46-0500
_audit_creation_method            fapswitch 2.2
_symmetry_space_group_name_H-M    P1
_symmetry_Int_Tables_number       1
_space_group_crystal_system       triclinic
_cell_length_a                    23.514861
_cell_length_b                    10.887336
_cell_length_c                    9.574273
_cell_angle_alpha                 91.492668
_cell_angle_beta                  90.214528
_cell_angle_gamma                 92.776216
_cell_volume                      2447.41139081

loop_
_atom_site_label
_atom_site_type_symbol
_atom_type_description
_atom_site_fract_x
_atom_site_fract_y
_atom_site_fract_z
_atom_type_partial_charge
C1    C     C_R   0.505074 0.263219 0.497904 0.804183
C2    C     C_R   0.965493 0.286610 0.439749 -0.155317
C3    C     C_R   0.024832 0.286795 0.439638 -0.154388
C4    C     C_R   0.057525 0.395409 0.471436 -0.010719
C5    C     C_R   0.030019 0.504519 0.504375 -0.011935
C6    C     C_R   0.062394 0.613968 0.536507 -0.014181
C7    C     C_R   0.034521 0.722113 0.569701 -0.151202
C8    C     C_R   0.975176 0.721763 0.570500 -0.155359
C9    C     C_R   0.117223 0.398158 0.470548 0.579841
C10   C     C_R   0.121997 0.612334 0.533680 0.585829
C11   C     C_R   0.239041 0.512481 0.368277 0.010643
C12   C     C_R   0.390941 0.499899 0.499714 0.818979
C13   C     C_R   0.298639 0.508948 0.371547 -0.246502
C14   C     C_R   0.328288 0.501494 0.498546 -0.070234
C15   C     C_R   0.297765 0.496838 0.623933 -0.190351
C16   C     C_R   0.238671 0.499200 0.622450 -0.108093
C17   C     C_R   0.208984 0.506748 0.496159 0.287389
C18   C     C_R   0.761194 0.495888 0.376124 -0.103438
C19   C     C_R   0.701881 0.495241 0.374939 -0.209781
C20   C     C_R   0.671677 0.502061 0.501142 -0.038222
C21   C     C_R   0.701911 0.510382 0.628319 -0.225873
C22   C     C_R   0.761221 0.511547 0.629119 -0.100595
C23   C     C_R   0.498133 0.737959 0.502741 0.792706
C24   C     C_R   0.791006 0.503979 0.503136 0.357826
C25   C     C_R   0.555926 0.133251 0.730364 -0.152149
C26   C     C_R   0.559431 0.080447 0.860539 -0.098537
C27   C     C_R   0.532507 0.966332 0.882142 -0.089803
C28   C     C_R   0.508016 0.898862 0.769603 -0.182302
C29   C     C_R   0.510313 0.945028 0.632410 0.092540
C30   C     C_R   0.526456 0.070510 0.618494 0.095586
C31   C     C_R   0.512747 0.129650 0.493635 -0.162649
C32   C     C_R   0.498717 0.057573 0.371824 -0.096248
C33   C     C_R   0.492436 0.930958 0.381015 -0.291057
C34   C     C_R   0.609042 0.500699 0.500267 0.772894
C35   C     C_R   0.497706 0.872949 0.508695 -0.102521
C36   C     C_R   0.577786 0.660254 0.149066 -0.152766
C37   C     C_R   0.616760 0.735657 0.078860 -0.219995
C38   C     C_R   0.616879 0.734750 0.934954 -0.209200
C39   C     C_R   0.577690 0.659223 0.860512 -0.169103
C40   C     C_R   0.538239 0.578373 0.927598 0.190411
C41   C     C_R   0.538249 0.578551 0.077320 0.210743
C42   C     C_R   0.463767 0.424967 0.071429 0.005257
C43   C     C_R   0.463792 0.424973 0.923369 -0.035683
C44   C     C_R   0.882761 0.610908 0.537054 0.535520
C45   C     C_R   0.878017 0.397144 0.472163 0.536871
C46   C     C_R   0.937622 0.394977 0.471961 -0.015945
C47   C     C_R   0.969992 0.504237 0.504894 -0.015722
C48   C     C_R   0.942475 0.613287 0.537982 -0.014732
Cu1   Cu    Cu3+1 0.500000 0.499990 0.640660 0.933713
Cu2   Cu    Cu3+1 0.500000 0.500010 0.359340 0.966548
H1    H     H_    0.941578 0.201379 0.414348 0.192397
H2    H     H_    0.679760 0.489014 0.275392 0.169518
H3    H     H_    0.679831 0.516094 0.727167 0.166120
H4    H     H_    0.784101 0.517718 0.727611 0.142357
H5    H     H_    0.577172 0.222613 0.717579 0.159204
H6    H     H_    0.581627 0.129904 0.945359 0.183272
H7    H     H_    0.531642 0.928647 0.985693 0.161339
H8    H     H_    0.485756 0.813684 0.794674 0.178869
H9    H     H_    0.483787 0.877032 0.285744 0.172214
H10   H     H_    0.434121 0.363498 0.124794 0.161386
H11   H     H_    0.044959 0.201730 0.414075 0.192328
H12   H     H_    0.580684 0.670843 0.259319 0.199887
H13   H     H_    0.646613 0.796491 0.136880 0.167759
H14   H     H_    0.646597 0.795326 0.880326 0.169635
H15   H     H_    0.579383 0.670348 0.750842 0.205178
H16   H     H_    0.434155 0.363457 0.865861 0.154742
H17   H     H_    0.058440 0.807397 0.594829 0.193051
H18   H     H_    0.955050 0.806782 0.596293 0.190661
H19   H     H_    0.322208 0.513641 0.274698 0.199349
H20   H     H_    0.319479 0.490996 0.723329 0.169361
H21   H     H_    0.215614 0.494603 0.720042 0.145101
H22   H     H_    0.784074 0.490321 0.278397 0.142511
N1    N     N_R   0.851955 0.504024 0.504191 -0.471254
N2    N     N_R   0.147998 0.505795 0.499893 -0.455798
N3    N     N_R   0.500540 0.501210 0.147910 -0.203966
N4    N     N_R   0.500560 0.501290 0.852040 -0.211170
O1    O     O_R   0.500000 0.319640 0.618810 -0.580511
O2    O     O_2   0.846297 0.293281 0.441392 -0.528798
O3    O     O_2   0.144397 0.294519 0.440031 -0.525703
O4    O     O_2   0.153784 0.716335 0.563285 -0.521576
O5    O     O_R   0.500000 0.319660 0.381240 -0.545292
O6    O     O_R   0.417880 0.499950 0.618810 -0.580640
O7    O     O_R   0.417880 0.499980 0.381240 -0.584796
O8    O     O_R   0.500000 0.680340 0.618760 -0.615855
O9    O     O_R   0.500000 0.680360 0.381190 -0.601167
O10   O     O_R   0.582120 0.500020 0.618760 -0.607433
O11   O     O_R   0.582120 0.500050 0.381190 -0.590587
O12   O     O_2   0.855648 0.714617 0.567646 -0.531981
C49   C     C_2   0.493754 0.108406 0.230128 0.871339
O13   O     O_2   0.533369 0.170564 0.182762 -0.564769
O14   O     O_R   0.445494 0.081923 0.146974 -0.753180
H23   H     H_    0.414739 0.031763 0.196783 0.300596
C50   C     C_2   0.209999 0.523271 0.230729 0.880077
O15   O     O_2   0.160134 0.549713 0.224400 -0.581090
O16   O     O_R   0.240245 0.504663 0.106980 -0.773065
H24   H     H_    0.216200 0.514964 0.020310 0.337500

loop_
_geom_bond_atom_site_label_1
_geom_bond_atom_site_label_2
_ccdc_geom_bond_type
C9    N2    A    
C50   O15   D    
C1    O1    A    
O16   H24   S    
C1    C31   S    
C7    C8    A    
C22   H4    S    
C45   C46   A    
C2    C46   A    
C5    C47   A    
C42   N3    A    
C37   C38   A    
C18   C24   A    
C5    C6    A    
Cu1   O8    S    
C36   C37   A    
C34   O10   A    
C30   C31   A    
C24   N1    S    
C1    O5    A    
C15   C16   A    
C43   N4    A    
C45   N1    A    
C18   C19   A    
C9    O3    S    
Cu2   O9    S    
C19   H2    S    
C11   C17   A    
C47   C48   A    
C16   C17   A    
C45   O2    S    
C10   N2    A    
C49   O14   S    
C20   C34   S    
C11   C50   S    
C33   H9    S    
C21   C22   A    
C39   H15   S    
C36   C41   A    
C16   H21   S    
C36   H12   S    
C37   H13   S    
Cu2   O7    S    
C38   H14   S    
C3    H11   S    
C18   H22   S    
C23   O8    A    
C27   H7    S    
C42   H10   S    
C39   C40   A    
C10   O4    S    
C25   C26   A    
C40   N4    A    
C12   O7    A    
Cu1   O6    S    
C8    C48   A    
C29   C30   A    
C41   N3    A    
C32   C49   S    
C26   C27   A    
Cu1   N4    S    
C12   O6    A    
Cu2   O11   S    
C40   C41   A    
C12   C14   S    
C8    H18   S    
C23   C35   S    
C17   N2    S    
C22   C24   A    
C42   C43   A    
C3    C4    A    
O14   H23   S    
C25   C30   A    
C15   H20   S    
C46   C47   A    
C28   C29   A    
Cu1   O10   S    
C31   C32   A    
C25   H5    S    
C4    C5    A    
C26   H6    S    
C6    C10   A    
C6    C7    A    
C28   H8    S    
C29   C35   A    
C32   C33   A    
C19   C20   A    
C2    C3    A    
C4    C9    A    
C44   O12   S    
Cu2   N3    S    
C21   H3    S    
C11   C13   A    
C38   C39   A    
C13   H19   S    
C43   H16   S    
C33   C35   A    
Cu1   O1    S    
C34   O11   A    
C44   N1    A    
C2    H1    S    
C7    H17   S    
C20   C21   A    
C50   O16   S    
Cu1   Cu2   S    
C23   O9    A    
C27   C28   A    
C14   C15   A    
C49   O13   D    
C13   C14   A    
C44   C48   A    
Cu2   O5    S    
