data_mof_unit_29948.cif
_audit_creation_date              2013-03-05T16:41:46-0500
_audit_creation_method            fapswitch 2.2
_symmetry_space_group_name_H-M    P1
_symmetry_Int_Tables_number       1
_space_group_crystal_system       triclinic
_cell_length_a                    10.705118
_cell_length_b                    10.583595
_cell_length_c                    9.904216
_cell_angle_alpha                 89.286798
_cell_angle_beta                  89.87524
_cell_angle_gamma                 90.046179
_cell_volume                      1122.04415377

loop_
_atom_site_label
_atom_site_type_symbol
_atom_site_description
_atom_site_fract_x
_atom_site_fract_y
_atom_site_fract_z
_atom_type_partial_charge
O1    O     O_R   0.500020 0.316790 0.614690 -0.583565
O2    O     O_R   0.500000 0.316760 0.385350 -0.630676
C1    C     C_R   0.500284 0.260668 0.500610 0.887677
O3    O     O_R   0.316770 0.500020 0.614690 -0.621694
O4    O     O_R   0.316760 0.499980 0.385350 -0.612686
C2    C     C_R   0.259881 0.508847 0.500849 0.894986
Zn1   Zn    Zn3+2 0.500010 0.500020 0.653130 1.040067
Zn2   Zn    Zn3+2 0.499990 0.499980 0.346870 1.053643
O5    O     O_R   0.500000 0.683240 0.614650 -0.583397
O6    O     O_R   0.499980 0.683210 0.385310 -0.571631
O7    O     O_R   0.683240 0.500020 0.614650 -0.620217
O8    O     O_R   0.683230 0.499980 0.385310 -0.592143
C3    C     C_R   0.499787 0.739368 0.499226 0.964208
C4    C     C_R   0.739259 0.486756 0.500729 0.907393
H1    H     H_    0.112390 0.495043 0.287006 0.233047
C5    C     C_R   0.109474 0.555456 0.752171 -0.163608
H2    H     H_    0.192230 0.613815 0.756173 0.230706
C6    C     C_R   0.051050 0.524311 0.874092 0.392734
C7    C     C_R   0.942842 0.450213 0.873383 0.428534
C8    C     C_R   0.885232 0.424076 0.750784 -0.233994
H3    H     H_    0.801318 0.367121 0.752441 0.226921
C9    C     C_R   0.937497 0.468166 0.627772 0.033948
C10   C     C_R   0.059444 0.514168 0.628152 0.074307
C11   C     C_R   0.125767 0.514528 0.504142 -0.069438
C12   C     C_R   0.063418 0.496579 0.382302 -0.114632
H4    H     H_    0.889151 0.477055 0.286089 0.251865
C13   C     C_R   0.936732 0.480567 0.381865 -0.078082
C14   C     C_R   0.872464 0.470461 0.503822 -0.112978
C15   C     C_R   0.600291 0.065436 0.448980 0.019124
C16   C     C_R   0.497681 0.128998 0.499937 -0.090432
C17   C     C_R   0.387276 0.065884 0.533934 -0.144666
H5    H     H_    0.304901 0.117752 0.564679 0.200490
C18   C     C_R   0.385547 0.935081 0.532327 0.405706
C19   C     C_R   0.495350 0.871270 0.496285 -0.182458
C20   C     C_R   0.599669 0.936116 0.448529 0.029986
C21   C     C_3   0.733422 0.929563 0.493772 0.574927
C22   C     C_3   0.733747 0.073499 0.492612 -0.523776
H6    H     H_    0.744386 0.117214 0.593535 0.228851
H7    H     H_    0.793557 0.116696 0.412560 0.233852
C23   C     C_R   0.414415 0.430149 0.072495 0.113473
N1    N     N_R   0.499160 0.499140 0.142800 -0.154372
C24   C     C_R   0.574080 0.580918 0.069778 0.360600
C25   C     C_R   0.574418 0.579897 0.926093 -0.074178
H8    H     H_    0.635895 0.642896 0.870301 0.209324
N2    N     N_R   0.499160 0.499180 0.857150 -0.142651
C26   C     C_R   0.415616 0.428761 0.930578 0.104299
C27   C     C_3   0.397018 0.288049 0.930955 0.530942
C28   C     C_3   0.392430 0.291553 0.084790 -0.489350
H9    H     H_    0.298826 0.270310 0.128293 0.233350
H10   H     H_    0.470882 0.241118 0.135282 0.234838
Cl1   Cl    Cl    0.833959 0.862850 0.368770 -0.397884
N3    N     N_R   0.651323 0.669840 0.136995 0.238056
O9    O     O_R   0.609458 0.783944 0.153304 -0.307982
O10   O     O_R   0.771182 0.650821 0.140729 -0.295176
Cl2   Cl    Cl    0.252107 0.244442 0.854547 -0.535063
N4    N     N_R   0.504564 0.216080 0.881511 0.227892
O11   O     O_R   0.487805 0.103102 0.834570 -0.274820
O12   O     O_R   0.617927 0.253431 0.906714 -0.368798
Cl3   Cl    Cl    0.117615 0.576972 0.024914 -0.530767
Cl4   Cl    Cl    0.876255 0.390454 0.023121 -0.507171
Cl5   Cl    Cl    0.247919 0.854673 0.580226 -0.520341
N5    N     N_R   0.749101 0.873405 0.629209 0.200345
O13   O     O_R   0.828669 0.782240 0.649286 -0.322155
O14   O     O_R   0.682973 0.913138 0.730662 -0.315315

loop_
_geom_bond_atom_site_label_1
_geom_bond_atom_site_label_2
_geom_bond_distance
_ccdc_geom_bond_type
O4    Zn2   1.997366 S    
Zn1   O7    1.997365 S    
C25   H8    1.082386 S    
C17   C18   1.384772 A    
C4    C14   1.436857 S    
C22   H6    1.112694 S    
C7    Cl4   1.754656 S    
C1    C16   1.393891 S    
N1    C24   1.377020 A    
C15   C20   1.368744 A    
N5    O14   1.302118 A    
C17   H5    1.084188 S    
C16   C17   1.395651 A    
Zn2   O8    1.999023 S    
C2    C11   1.437334 S    
N5    O13   1.301277 A    
C28   H10   1.111858 S    
C18   C19   1.403809 A    
O8    C4    1.298165 A    
C27   Cl2   1.790204 S    
C3    C19   1.396780 S    
C22   H7    1.111701 S    
C9    C14   1.412560 A    
N3    O9    1.300270 A    
C11   C12   1.395272 A    
C23   C26   1.405863 A    
C25   N2    1.364153 A    
H4    C13   1.078701 S    
C15   C16   1.386034 A    
C21   Cl1   1.790753 S    
C21   C22   1.523263 S    
O3    Zn1   1.999024 S    
C21   N5    1.470398 S    
Zn1   N2    2.020568 S    
C5    C6    1.394434 A    
C28   H9    1.111586 S    
N3    O10   1.299494 A    
O2    C1    1.280136 A    
C5    C10   1.415060 A    
N4    O12   1.301653 A    
O4    C2    1.299177 A    
C19   C20   1.389330 A    
O7    C4    1.285892 A    
H1    C12   1.078956 S    
O3    C2    1.285042 A    
C12   C13   1.366619 A    
N4    O11   1.300734 A    
C8    C9    1.413357 A    
C10   C11   1.417292 A    
C27   C28   1.525212 S    
N2    C26   1.366305 A    
C6    Cl3   1.753418 S    
C8    H3    1.081383 S    
C18   Cl5   1.762052 S    
C6    C7    1.398430 A    
C24   C25   1.423258 A    
C15   C22   1.496160 S    
C13   C14   1.391697 A    
Zn1   O5    1.971562 S    
C23   C28   1.488863 S    
C9    C10   1.392956 A    
C23   N1    1.362117 A    
O1    Zn1   1.980895 S    
O5    C3    1.281741 A    
Zn2   N1    2.021322 S    
C26   C27   1.502296 S    
O6    C3    1.281759 A    
Zn2   O6    1.980896 S    
O2    Zn2   1.971562 S    
C7    C8    1.393782 A    
C5    H2    1.080637 S    
C24   N3    1.424570 S    
C27   N4    1.467555 S    
O1    C1    1.283014 A    
C20   C21   1.502653 S    
