data_mof_unit_57511.cif
_audit_creation_date              2012-12-10T17:58:17-0500
_audit_creation_method            fapswitch 2.2
_symmetry_space_group_name_H-M    P1
_symmetry_Int_Tables_number       1
_space_group_crystal_system       triclinic
_cell_length_a                    9.533556
_cell_length_b                    10.826691
_cell_length_c                    15.427961
_cell_angle_alpha                 89.724943
_cell_angle_beta                  73.821604
_cell_angle_gamma                 90.048983
_cell_volume                      1529.34220963

loop_
_atom_site_label
_atom_site_type_symbol
_atom_type_description
_atom_site_fract_x
_atom_site_fract_y
_atom_site_fract_z
_atom_type_partial_charge
C1    C     C_R   0.999849 0.262107 0.500160 0.788879
C2    C     C_R   0.000059 0.737874 0.499996 0.782667
C3    C     C_R   0.592942 0.557461 0.099598 0.451752
C4    C     C_R   0.431824 0.632281 0.912522 0.450131
C5    C     C_R   0.737306 0.533038 0.053502 -0.297413
C6    C     C_R   0.285229 0.646903 0.960177 -0.298320
C7    C     C_R   0.869788 0.063672 0.506701 -0.189117
C8    C     C_R   0.129847 0.936250 0.493904 -0.188264
C9    C     C_R   0.869882 0.935908 0.506590 -0.193380
C10   C     C_R   0.129729 0.064001 0.494057 -0.186344
C11   C     C_R   0.999943 0.871722 0.500145 -0.015524
C12   C     C_R   0.999750 0.128215 0.500341 -0.016345
C13   C     C_R   0.554948 0.408330 0.542690 -0.012579
C14   C     C_R   0.444685 0.592386 0.458264 0.012713
C15   C     C_R   0.406304 0.408353 0.542656 -0.024875
C16   C     C_R   0.593319 0.592288 0.458202 -0.009270
C17   C     C_R   0.917515 0.499830 0.672529 0.795340
C18   C     C_R   0.082544 0.504533 0.327547 0.795593
C19   C     C_R   0.871888 0.505976 0.771553 -0.086672
C20   C     C_R   0.129424 0.530153 0.229985 -0.080482
C21   C     C_R   0.927473 0.499674 0.915115 -0.186671
C22   C     C_R   0.085785 0.621805 0.096297 -0.202537
C23   C     C_R   0.973307 0.492722 0.821396 -0.180017
C24   C     C_R   0.033588 0.582062 0.185752 -0.189684
C25   C     C_R   0.725068 0.528335 0.816438 -0.213363
C26   C     C_R   0.277163 0.518227 0.183636 -0.196952
C27   C     C_R   0.678896 0.547662 0.910066 0.086716
C28   C     C_R   0.333613 0.566197 0.096020 0.084993
C29   C     C_R   0.781224 0.526164 0.959796 0.084550
C30   C     C_R   0.234547 0.611433 0.050470 0.087886
C31   C     C_R   0.532378 0.580514 0.956280 -0.115444
C32   C     C_R   0.485493 0.565906 0.051625 -0.118299
Cu1   Cu    Cu3+1 0.140660 0.500020 0.500000 0.947875
Cu2   Cu    Cu3+1 0.859340 0.499980 0.500000 0.947697
H1    H     H_    0.815267 0.519794 0.091883 0.164795
H2    H     H_    0.210311 0.684976 0.925564 0.160681
H3    H     H_    0.346800 0.469527 0.216690 0.201740
H4    H     H_    0.647364 0.526414 0.777470 0.209673
H5    H     H_    0.919281 0.593871 0.220764 0.155095
H6    H     H_    0.087284 0.474514 0.788190 0.161033
H7    H     H_    0.006644 0.484817 0.952624 0.147115
H8    H     H_    0.010547 0.662480 0.063165 0.129774
H9    H     H_    0.768082 0.111599 0.511934 0.145822
H10   H     H_    0.231571 0.888324 0.488647 0.141491
H11   H     H_    0.768229 0.887703 0.511734 0.148298
H12   H     H_    0.231369 0.112190 0.488958 0.146752
H13   H     H_    0.594965 0.335031 0.577262 0.115918
H14   H     H_    0.403945 0.666938 0.425395 0.107031
H15   H     H_    0.334911 0.335075 0.577198 0.115793
H16   H     H_    0.664147 0.666606 0.425126 0.111032
N1    N     N_R   0.352080 0.500030 0.499980 -0.158363
N2    N     N_R   0.647920 0.499970 0.500020 -0.157442
O1    O     O_R   0.118740 0.319660 0.500000 -0.591073
O2    O     O_R   0.881260 0.680340 0.500000 -0.593145
O3    O     O_R   0.881170 0.319630 0.500010 -0.589240
O4    O     O_R   0.118830 0.680370 0.499990 -0.593202
O5    O     O_R   0.055570 0.500030 0.629830 -0.576353
O6    O     O_R   0.944430 0.499970 0.370170 -0.573554
O7    O     O_R   0.818000 0.500000 0.629840 -0.579777
O8    O     O_R   0.182000 0.500000 0.370160 -0.574172
O9    O     O_3   0.561943 0.580305 0.191234 -0.626669
C33   C     C_3   0.534230 0.707916 0.208211 0.063562
H17   H     H_    0.445464 0.716147 0.272028 0.160202
H18   H     H_    0.494639 0.757307 0.155857 0.131337
C34   C     C_3   0.671118 0.772243 0.219179 -0.370766
H19   H     H_    0.710512 0.722821 0.270960 0.216312
H20   H     H_    0.758422 0.769611 0.154165 0.213205
C35   C     C_3   0.640210 0.906336 0.248122 -0.916547
H21   H     H_    0.602357 0.958499 0.196707 0.260102
H22   H     H_    0.741661 0.950202 0.255334 0.261975
H23   H     H_    0.555399 0.910873 0.314121 0.246260
O10   O     O_3   0.473509 0.673913 0.824067 -0.630125
C36   C     C_3   0.549379 0.787711 0.817553 0.059546
H24   H     H_    0.642181 0.784962 0.755184 0.169973
H25   H     H_    0.597712 0.805575 0.874496 0.127305
C37   C     C_3   0.448274 0.894120 0.809351 -0.345063
H26   H     H_    0.400097 0.875488 0.752856 0.229399
H27   H     H_    0.358037 0.901059 0.872777 0.212711
C38   C     C_3   0.530701 0.016764 0.791732 -0.924632
H28   H     H_    0.578374 0.038162 0.847953 0.259799
H29   H     H_    0.454330 0.092008 0.786541 0.254817
H30   H     H_    0.619478 0.012858 0.727425 0.256335

loop_
_geom_bond_atom_site_label_1
_geom_bond_atom_site_label_2
_ccdc_geom_bond_type
C9    H11   S    
C27   C29   A    
C36   H24   S    
C37   C38   S    
C37   H27   S    
C8    C11   A    
C23   H6    S    
C24   H5    S    
C1    O1    A    
C33   H18   S    
C18   O6    A    
C31   C32   A    
C35   H21   S    
C34   H20   S    
C10   H12   S    
C14   C16   A    
C15   N1    A    
Cu1   O4    S    
Cu2   O3    S    
C36   H25   S    
O9    C33   S    
C1    C12   S    
C2    C11   S    
C5    C29   A    
C3    O9    S    
Cu1   O1    S    
C7    C12   A    
C27   C31   A    
C16   N2    A    
C28   C32   A    
C37   H26   S    
C4    C6    A    
C2    O2    A    
C38   H29   S    
C14   H14   S    
C21   C29   A    
C19   C23   A    
C33   H17   S    
C25   H4    S    
C13   N2    A    
C14   N1    A    
C34   C35   S    
Cu1   Cu2   S    
C9    C11   A    
C10   C12   A    
C17   O7    A    
C21   H7    S    
C18   O8    A    
C6    C30   A    
Cu2   O2    S    
Cu1   O8    S    
C7    H9    S    
C21   C23   A    
Cu2   O7    S    
C36   C37   S    
C22   C24   A    
C25   C27   A    
C4    O10   S    
C13   H13   S    
C7    C9    A    
Cu1   O5    S    
C22   C30   A    
C33   C34   S    
Cu2   N2    S    
C8    H10   S    
C16   H16   S    
O10   C36   S    
C3    C5    A    
C38   H30   S    
C26   H3    S    
Cu1   N1    S    
C26   C28   A    
C13   C15   A    
C1    O3    A    
C2    O4    A    
C22   H8    S    
C20   C26   A    
C35   H23   S    
C5    H1    S    
C28   C30   A    
C17   C19   S    
C6    H2    S    
C18   C20   S    
C15   H15   S    
C3    C32   A    
C19   C25   A    
C4    C31   A    
C38   H28   S    
C8    C10   A    
C34   H19   S    
Cu2   O6    S    
C35   H22   S    
C20   C24   A    
C17   O5    A    
