data_mof_unit_28645.cif
_audit_creation_date              2012-12-10T17:23:11-0500
_audit_creation_method            fapswitch 2.2
_symmetry_space_group_name_H-M    P1
_symmetry_Int_Tables_number       1
_space_group_crystal_system       triclinic
_cell_length_a                    15.864023
_cell_length_b                    10.87249
_cell_length_c                    9.5947
_cell_angle_alpha                 91.885473
_cell_angle_beta                  90.120245
_cell_angle_gamma                 93.007546
_cell_volume                      1651.72129719

loop_
_atom_site_label
_atom_site_type_symbol
_atom_type_description
_atom_site_fract_x
_atom_site_fract_y
_atom_site_fract_z
_atom_type_partial_charge
C1    C     C_R   0.504724 0.263271 0.497890 0.813415
C2    C     C_3   0.082920 0.500657 0.500036 0.146473
C3    C     C_3   0.976005 0.595341 0.583681 -0.194204
C4    C     C_3   0.917130 0.503127 0.499739 0.168017
C5    C     C_3   0.032703 0.609336 0.452831 -0.126040
C6    C     C_3   0.972538 0.516852 0.369059 -0.191079
C7    C     C_1   0.174596 0.500048 0.499738 -0.033247
C8    C     C_1   0.825398 0.502415 0.500230 -0.050086
C9    C     C_R   0.601315 0.136707 0.703193 -0.129005
C10   C     C_R   0.620287 0.086149 0.829837 -0.144441
C11   C     C_R   0.584547 0.971463 0.861627 -0.158618
C12   C     C_R   0.339910 0.499252 0.499843 0.862166
C13   C     C_R   0.537618 0.901621 0.761125 -0.138257
C14   C     C_R   0.525187 0.945951 0.625678 0.040993
C15   C     C_R   0.546822 0.071484 0.606209 0.095701
C16   C     C_R   0.510258 0.130030 0.494302 -0.172398
C17   C     C_R   0.464826 0.061348 0.391444 -0.288784
C18   C     C_R   0.453727 0.933974 0.397782 0.361231
C19   C     C_R   0.488748 0.873331 0.511398 -0.230187
C20   C     C_R   0.618838 0.655277 0.149614 -0.111664
C21   C     C_R   0.680387 0.724532 0.079941 -0.242354
C22   C     C_R   0.681223 0.722376 0.936272 -0.215467
C23   C     C_R   0.495279 0.737965 0.503106 0.834247
C24   C     C_R   0.619476 0.652897 0.861762 -0.162141
C25   C     C_R   0.558831 0.575142 0.928110 0.194851
C26   C     C_R   0.558727 0.575533 0.077637 0.258870
C27   C     C_R   0.444458 0.427504 0.071011 -0.024700
C28   C     C_R   0.444406 0.427662 0.923091 -0.033557
C29   C     C_R   0.660067 0.500540 0.500168 0.783590
C30   C     C_3   0.968673 0.397387 0.545752 0.202922
C31   C     C_3   0.024450 0.408028 0.415785 -0.154186
C32   C     C_1   0.250163 0.499583 0.499656 -0.124124
C33   C     C_1   0.749808 0.501541 0.500404 -0.170258
C34   C     C_3   0.028007 0.486897 0.631401 -0.208109
Cu1   Cu    Cu3+1 0.499990 0.499990 0.640660 0.940365
Cu2   Cu    Cu3+1 0.500010 0.500010 0.359340 0.991327
H1    H     H_    0.044904 0.330005 0.348758 0.142209
H2    H     H_    0.593381 0.936596 0.964551 0.146203
H3    H     H_    0.506421 0.818313 0.796354 0.188207
H4    H     H_    0.399012 0.367977 0.123880 0.136119
H5    H     H_    0.620740 0.669848 0.259510 0.187054
H6    H     H_    0.726230 0.783180 0.138076 0.154104
H7    H     H_    0.727320 0.780009 0.882060 0.160248
H8    H     H_    0.619619 0.668175 0.752990 0.199778
H9    H     H_    0.398880 0.368254 0.865505 0.144322
H10   H     H_    0.948769 0.529828 0.261916 0.144309
H11   H     H_    0.060776 0.697434 0.414211 0.159551
H12   H     H_    0.955042 0.672383 0.651700 0.144912
H13   H     H_    0.051248 0.472571 0.738564 0.142913
H14   H     H_    0.434818 0.108318 0.308336 0.197014
H15   H     H_    0.628276 0.227851 0.682958 0.147839
H16   H     H_    0.659330 0.138412 0.905817 0.137602
N1    N     N_R   0.500800 0.501210 0.147910 -0.189519
N2    N     N_R   0.500830 0.501290 0.852040 -0.204547
O1    O     O_R   0.499990 0.319640 0.618810 -0.582483
O2    O     O_R   0.500000 0.319660 0.381240 -0.590490
O3    O     O_R   0.379070 0.499980 0.618770 -0.580604
O4    O     O_R   0.379080 0.500000 0.381190 -0.537849
O5    O     O_R   0.500000 0.680340 0.618760 -0.621533
O6    O     O_R   0.500010 0.680360 0.381190 -0.532945
O7    O     O_R   0.620920 0.500000 0.618810 -0.602564
O8    O     O_R   0.620930 0.500020 0.381230 -0.602465
S1    S     S_3+6 0.384970 0.857871 0.272114 0.022466
O9    O     O_2   0.331711 0.758379 0.339656 -0.262416
O10   O     O_2   0.327533 0.947510 0.210289 -0.296514
O11   O     O_3   0.441492 0.794589 0.143184 -0.504601
H17   H     H_    0.476941 0.863962 0.107008 0.323259
N3    N     N_3   0.932080 0.281407 0.595585 -0.592321
H18   H     H_    0.982034 0.228105 0.623286 0.217076
H19   H     H_    0.899313 0.301424 0.687248 0.214405

loop_
_geom_bond_atom_site_label_1
_geom_bond_atom_site_label_2
_ccdc_geom_bond_type
C17   H14   S    
C11   H2    S    
C19   C23   S    
C24   C25   A    
S1    O10   D    
Cu2   O2    S    
Cu2   N1    S    
C11   C13   A    
C9    C10   A    
C2    C7    S    
C9    H15   S    
C4    C8    S    
C27   H4    S    
Cu1   O3    S    
C4    C30   S    
C10   H16   S    
C2    C34   S    
C27   N1    A    
C20   H5    S    
C1    O1    A    
S1    O11   S    
C12   O4    A    
Cu1   O7    S    
C1    C16   S    
C13   C14   A    
C12   C32   S    
Cu1   N2    S    
C23   O5    A    
C5    C6    S    
C5    H11   S    
C30   C31   S    
C20   C26   A    
C25   N2    A    
Cu2   O8    S    
C12   O3    A    
Cu1   O5    S    
C1    O2    A    
C17   C18   A    
Cu2   O4    S    
C8    C33   T    
C9    C15   A    
C23   O6    A    
C24   H8    S    
C22   C24   A    
C28   H9    S    
C13   H3    S    
C2    C5    S    
C16   C17   A    
C29   O7    A    
C30   C34   S    
S1    O9    D    
Cu1   O1    S    
C21   H6    S    
C26   N1    A    
C29   C33   S    
C3    H12   S    
O11   H17   S    
C20   C21   A    
C4    C6    S    
C18   S1    S    
C10   C11   A    
C27   C28   A    
N3    H19   S    
C28   N2    A    
C29   O8    A    
C18   C19   A    
C34   H13   S    
C6    C31   S    
C7    C32   T    
C6    H10   S    
C3    C34   S    
Cu2   O6    S    
C25   C26   A    
C21   C22   A    
C14   C15   A    
C14   C19   A    
N3    H18   S    
C22   H7    S    
C30   N3    S    
C3    C4    S    
C15   C16   A    
C31   H1    S    
C2    C31   S    
C3    C5    S    
Cu1   Cu2   S    
