data_mof_unit_6997.cif
_audit_creation_date              2012-12-10T18:49:25-0500
_audit_creation_method            fapswitch 2.2
_symmetry_space_group_name_H-M    P1
_symmetry_Int_Tables_number       1
_space_group_crystal_system       triclinic
_cell_length_a                    9.924732
_cell_length_b                    10.627751
_cell_length_c                    13.643964
_cell_angle_alpha                 90.830228
_cell_angle_beta                  83.576905
_cell_angle_gamma                 90.559137
_cell_volume                      1429.90065178

loop_
_atom_site_label
_atom_site_type_symbol
_atom_type_description
_atom_site_fract_x
_atom_site_fract_y
_atom_site_fract_z
_atom_type_partial_charge
C1    C     C_R   0.500419 0.739152 0.499985 0.811024
C2    C     C_R   0.924802 0.597271 0.542909 0.051698
C3    C     C_1   0.541394 0.510776 0.211802 -0.064130
C4    C     C_1   0.458718 0.510773 0.788458 -0.063918
C5    C     C_2   0.558446 0.537435 0.021588 -0.018419
C6    C     C_2   0.440932 0.534932 0.979464 -0.018304
C7    C     C_1   0.446779 0.522011 0.875654 -0.008190
C8    C     C_1   0.553115 0.523070 0.124947 -0.003341
C9    C     C_R   0.519519 0.932979 0.408695 -0.051726
C10   C     C_R   0.480190 0.067052 0.591376 -0.048511
C11   C     C_R   0.517025 0.064124 0.408616 -0.059436
C12   C     C_R   0.499567 0.260856 0.500055 0.811902
C13   C     C_R   0.482858 0.935902 0.591441 -0.065741
C14   C     C_2   0.146315 0.294787 0.407171 0.475942
C15   C     C_2   0.853798 0.705399 0.592653 0.486322
C16   C     C_2   0.302096 0.535313 0.034206 0.467847
C17   C     C_2   0.697092 0.545449 0.966998 0.460108
C18   C     C_2   0.547127 0.858036 0.315401 0.513436
C19   C     C_2   0.451867 0.141991 0.684649 0.505567
C20   C     C_2   0.525906 0.136049 0.314848 0.560729
C21   C     C_2   0.473903 0.863979 0.685193 0.569926
C22   C     C_R   0.499806 0.128128 0.500047 -0.200319
C23   C     C_R   0.500128 0.871894 0.500016 -0.200496
C24   C     C_R   0.476217 0.500799 0.685350 0.870867
C25   C     C_R   0.523793 0.500130 0.314646 0.873962
C26   C     C_R   0.932156 0.402948 0.458396 -0.144838
C27   C     C_R   0.067856 0.597053 0.541599 -0.139984
C28   C     C_R   0.075218 0.402762 0.457056 0.059040
H1    H     H_    0.881068 0.326112 0.424380 0.137341
H2    H     H_    0.421080 0.774145 0.690910 0.022205
H3    H     H_    0.118959 0.673892 0.575600 0.137280
H4    H     H_    0.109448 0.200083 0.423580 0.029538
H5    H     H_    0.891111 0.800014 0.576438 0.025738
H6    H     H_    0.215692 0.511550 0.995014 0.068033
H7    H     H_    0.784390 0.525213 0.005377 0.065406
H8    H     H_    0.494690 0.769347 0.306622 0.043085
H9    H     H_    0.502972 0.231424 0.693278 0.029400
H10   H     H_    0.578113 0.226206 0.309242 0.020343
N1    N     N_R   0.142790 0.500030 0.500020 -0.086919
N2    N     N_R   0.857210 0.499970 0.499980 -0.088104
O1    O     O_R   0.385380 0.683250 0.500010 -0.630652
O2    O     O_2   0.760696 0.690470 0.657643 -0.481561
O3    O     O_2   0.281273 0.565493 0.121219 -0.529424
O4    O     O_2   0.716616 0.578156 0.881143 -0.501821
O5    O     O_2   0.632558 0.892089 0.249514 -0.524713
O6    O     O_2   0.367125 0.107133 0.750707 -0.527796
O7    O     O_2   0.469845 0.098048 0.244749 -0.497206
O8    O     O_2   0.530512 0.901640 0.755131 -0.489471
O9    O     O_R   0.614620 0.316750 0.499990 -0.632886
O10   O     O_R   0.614710 0.683220 0.500000 -0.596257
O11   O     O_R   0.385290 0.316780 0.500000 -0.596030
O12   O     O_R   0.368830 0.499990 0.640350 -0.632804
O13   O     O_R   0.631170 0.500010 0.359650 -0.632737
O14   O     O_R   0.598160 0.499960 0.640350 -0.534393
O15   O     O_R   0.401840 0.500040 0.359650 -0.527809
O16   O     O_2   0.238964 0.309942 0.341864 -0.505303
Zn1   Zn    Zn3+2 0.346870 0.500020 0.500000 1.005193
Zn2   Zn    Zn3+2 0.653130 0.499980 0.500000 1.001307

loop_
_geom_bond_atom_site_label_1
_geom_bond_atom_site_label_2
_ccdc_geom_bond_type
C24   O12   A    
C5    C8    S    
C14   O16   D    
O13   Zn2   S    
C24   O14   A    
C2    C27   A    
O11   Zn1   S    
C2    N2    A    
C20   H10   S    
C1    O10   A    
C11   C22   A    
C26   C28   A    
C10   C19   S    
C21   O8    D    
C14   C28   S    
C12   O9    A    
C17   O4    D    
C13   C21   S    
C10   C22   A    
C2    C15   S    
C9    C11   A    
C16   O3    D    
C26   N2    A    
C6    C7    S    
C18   H8    S    
C4    C7    T    
C1    O1    A    
C25   O13   A    
C1    C23   S    
O15   Zn1   S    
C27   H3    S    
O14   Zn2   S    
C5    C6    D    
C4    C24   S    
C11   C20   S    
C19   O6    D    
C20   O7    D    
C5    C17   S    
O12   Zn1   S    
O1    Zn1   S    
N1    Zn1   S    
C18   O5    D    
C12   C22   S    
C9    C18   S    
C3    C25   S    
C12   O11   A    
N2    Zn2   S    
C13   C23   A    
C26   H1    S    
C3    C8    T    
C21   H2    S    
C27   N1    A    
C9    C23   A    
C17   H7    S    
C19   H9    S    
C28   N1    A    
C16   H6    S    
C6    C16   S    
C15   H5    S    
O9    Zn2   S    
C25   O15   A    
C15   O2    D    
C14   H4    S    
C10   C13   A    
O10   Zn2   S    
