data_mof_unit_13807.cif
_audit_creation_date              2012-12-10T20:41:52-0500
_audit_creation_method            fapswitch 2.2
_symmetry_space_group_name_H-M    P1
_symmetry_Int_Tables_number       1
_space_group_crystal_system       triclinic
_cell_length_a                    15.044708
_cell_length_b                    15.096671
_cell_length_c                    9.916351
_cell_angle_alpha                 90.466787
_cell_angle_beta                  90.669727
_cell_angle_gamma                 90.212956
_cell_volume                      2252.00632285

loop_
_atom_site_label
_atom_site_type_symbol
_atom_type_description
_atom_site_fract_x
_atom_site_fract_y
_atom_site_fract_z
_atom_type_partial_charge
C1    C     C_R   0.379999 0.880503 0.499299 0.872962
C2    C     C_R   0.980815 0.425061 0.069384 0.205915
C3    C     C_R   0.575143 0.016415 0.075598 -0.130476
C4    C     C_R   0.007980 0.576860 0.075357 -0.153110
C5    C     C_R   0.576936 0.015189 0.931801 0.163922
C6    C     C_R   0.009433 0.577864 0.932200 0.194383
C7    C     C_R   0.422136 0.992178 0.927299 0.181110
C8    C     C_R   0.979985 0.425172 0.927281 0.173406
C9    C     C_3   0.358772 0.915996 0.919980 -0.489090
C10   C     C_3   0.029688 0.340172 0.920456 -0.487665
C11   C     C_3   0.358828 0.916020 0.073094 -0.494651
C12   C     C_R   0.378697 0.118441 0.500033 0.874537
C13   C     C_3   0.031935 0.340739 0.073559 -0.519714
C14   C     C_R   0.617469 0.122416 0.500413 0.877352
C15   C     C_R   0.617787 0.877907 0.499962 0.872705
C16   C     C_R   0.119637 0.619848 0.500580 0.873119
C17   C     C_R   0.118533 0.378774 0.500214 0.876837
C18   C     C_R   0.287574 0.223238 0.620411 0.137956
C19   C     C_R   0.242660 0.822842 0.583384 0.124243
C20   C     C_R   0.769113 0.704829 0.621480 0.148172
C21   C     C_R   0.769748 0.292608 0.376233 0.138942
C22   C     C_R   0.305412 0.176870 0.502089 -0.101645
C23   C     C_R   0.877595 0.382525 0.499357 0.876549
C24   C     C_R   0.315366 0.813234 0.499426 -0.082358
C25   C     C_R   0.801814 0.673171 0.499675 -0.101104
C26   C     C_R   0.800462 0.328375 0.497658 -0.106953
C27   C     C_R   0.249171 0.184742 0.389278 -0.229262
C28   C     C_R   0.328497 0.735775 0.424286 -0.227648
C29   C     C_R   0.757921 0.693555 0.378319 -0.230328
C30   C     C_R   0.753554 0.313097 0.616932 -0.220970
C31   C     C_R   0.693029 0.758264 0.378455 -0.232499
C32   C     C_R   0.688301 0.248241 0.617359 -0.241892
C33   C     C_R   0.184198 0.249471 0.389667 -0.230277
C34   C     C_R   0.877984 0.617892 0.499797 0.867146
C35   C     C_R   0.263957 0.670290 0.426030 -0.222920
C36   C     C_R   0.672973 0.801699 0.499942 -0.105013
C37   C     C_R   0.671801 0.199389 0.498967 -0.102978
C38   C     C_R   0.177009 0.305513 0.502418 -0.099057
C39   C     C_R   0.187516 0.683931 0.502281 -0.081808
C40   C     C_R   0.705094 0.768654 0.621593 0.137837
C41   C     C_R   0.705773 0.228564 0.376860 0.150986
C42   C     C_R   0.223938 0.287298 0.620556 0.125702
C43   C     C_R   0.178072 0.758613 0.583210 0.129199
C44   C     C_3   0.746636 0.816367 0.738938 -0.482867
C45   C     C_3   0.349304 0.276531 0.708322 -0.479516
C46   C     C_3   0.747798 0.178035 0.264214 -0.505367
C47   C     C_3   0.278826 0.347980 0.708016 -0.487800
C48   C     C_3   0.104645 0.825182 0.579985 -0.517093
C49   C     C_3   0.664656 0.034055 0.863603 -0.349899
C50   C     C_3   0.748243 0.007122 0.943034 -0.995878
C51   C     C_3   0.026805 0.667111 0.871103 -0.390310
C52   C     C_3   0.124131 0.694339 0.892977 -0.850233
C53   C     C_3   0.176061 0.896079 0.582964 -0.495458
C54   C     C_3   0.817536 0.745590 0.738991 -0.509421
C55   C     C_3   0.819288 0.249003 0.264215 -0.488616
C56   C     C_R   0.422224 0.992020 0.069317 0.197340
H1    H     H_    0.258112 0.144394 0.299624 0.165928
H2    H     H_    0.655721 0.232807 0.710996 0.160589
H3    H     H_    0.143088 0.258247 0.300619 0.161012
H4    H     H_    0.272386 0.610523 0.366320 0.156018
H5    H     H_    0.772771 0.882668 0.711432 0.204885
H6    H     H_    0.705708 0.178194 0.171361 0.203882
H7    H     H_    0.299479 0.409251 0.655057 0.201510
H8    H     H_    0.063507 0.824653 0.672157 0.199210
H9    H     H_    0.703768 0.814638 0.829405 0.213746
H10   H     H_    0.772632 0.111932 0.295585 0.200854
H11   H     H_    0.249088 0.358982 0.808729 0.200758
H12   H     H_    0.387297 0.726951 0.363577 0.152088
H13   H     H_    0.065855 0.823095 0.483798 0.202175
H14   H     H_    0.411250 0.296168 0.655976 0.199789
H15   H     H_    0.177882 0.935029 0.678561 0.197678
H16   H     H_    0.884247 0.771486 0.712028 0.191622
H17   H     H_    0.818838 0.289433 0.170999 0.205400
H18   H     H_    0.359529 0.245798 0.808797 0.205431
H19   H     H_    0.177923 0.936343 0.489558 0.200471
H20   H     H_    0.815920 0.702764 0.829608 0.204802
H21   H     H_    0.885703 0.224395 0.296699 0.197630
H22   H     H_    0.634475 0.028415 0.135092 0.172043
H23   H     H_    0.777668 0.664621 0.282980 0.172001
H24   H     H_    0.016863 0.637558 0.132988 0.160396
H25   H     H_    0.293651 0.935060 0.875079 0.196206
H26   H     H_    0.388888 0.855398 0.875653 0.220814
H27   H     H_    0.988414 0.285660 0.876651 0.201328
H28   H     H_    0.096372 0.347732 0.875173 0.216238
H29   H     H_    0.740862 0.939413 0.984461 0.272058
H30   H     H_    0.806512 0.007905 0.875301 0.263313
H31   H     H_    0.762498 0.054905 0.026079 0.264509
H32   H     H_    0.667660 0.997510 0.767952 0.265459
H33   H     H_    0.668987 0.105946 0.843105 0.206501
H34   H     H_    0.771185 0.346169 0.710913 0.171155
H35   H     H_    0.168824 0.649205 0.836879 0.277470
H36   H     H_    0.134735 0.763140 0.858572 0.244387
H37   H     H_    0.142720 0.692585 0.001619 0.247955
H38   H     H_    0.007978 0.670101 0.764259 0.257480
H39   H     H_    0.984020 0.717112 0.921275 0.168021
H40   H     H_    0.293814 0.935280 0.116409 0.198772
H41   H     H_    0.389006 0.855488 0.117129 0.217719
H42   H     H_    0.993268 0.285660 0.118106 0.195128
H43   H     H_    0.100021 0.350162 0.116015 0.215026
H44   H     H_    0.663749 0.778240 0.283168 0.172848
N1    N     N_R   0.499140 0.000000 0.142800 -0.128700
N2    N     N_R   0.999140 0.500000 0.142800 -0.122427
N3    N     N_R   0.499160 0.000000 0.857150 -0.138284
N4    N     N_R   0.999160 0.500000 0.857150 -0.126744
O1    O     O_R   0.408400 0.908380 0.614690 -0.616644
O2    O     O_R   0.591610 0.908390 0.614650 -0.634313
O3    O     O_R   0.091610 0.591610 0.614650 -0.624061
O4    O     O_R   0.091610 0.408390 0.614650 -0.614861
O5    O     O_R   0.591590 0.091600 0.385310 -0.617322
O6    O     O_R   0.591590 0.908400 0.385310 -0.621705
O7    O     O_R   0.091590 0.591600 0.385310 -0.617930
O8    O     O_R   0.091590 0.408400 0.385310 -0.620371
O9    O     O_R   0.408400 0.091620 0.614690 -0.614533
O10   O     O_R   0.908400 0.408380 0.614690 -0.622240
O11   O     O_R   0.908400 0.591620 0.614690 -0.637628
O12   O     O_R   0.408370 0.908370 0.385350 -0.621680
O13   O     O_R   0.408370 0.091630 0.385350 -0.617543
O14   O     O_R   0.908370 0.408370 0.385350 -0.614704
O15   O     O_R   0.908370 0.591630 0.385350 -0.624460
O16   O     O_R   0.591610 0.091610 0.614650 -0.650564
Zn1   Zn    Zn3+2 0.500010 0.000000 0.653130 0.924475
Zn2   Zn    Zn3+2 0.000010 0.500000 0.653130 0.932187
Zn3   Zn    Zn3+2 0.499980 0.000000 0.346870 0.934391
Zn4   Zn    Zn3+2 0.999980 0.500000 0.346870 0.936910

loop_
_geom_bond_atom_site_label_1
_geom_bond_atom_site_label_2
_ccdc_geom_bond_type
C11   H40   S    
C14   O5    A    
C21   C26   A    
C5    N3    A    
O12   Zn3   S    
C15   O6    A    
C32   H2    S    
C48   H13   S    
C30   H34   S    
C23   O14   A    
O15   Zn4   S    
C27   C33   A    
N1    Zn3   S    
C46   H6    S    
C15   O2    A    
C28   H12   S    
C56   N1    A    
O8    Zn4   S    
C18   C42   A    
C47   H7    S    
C20   C40   A    
C48   H8    S    
N4    Zn2   S    
C20   C25   A    
C2    N2    A    
C12   C22   S    
C10   H27   S    
C23   C26   S    
C13   H42   S    
C2    C13   S    
C16   O3    A    
C28   C35   A    
C4    N2    A    
C46   C55   S    
C41   C46   S    
C1    O12   A    
C6    N4    A    
C6    C51   S    
C43   C48   S    
C50   H29   S    
C9    H26   S    
C17   C38   S    
C19   C53   S    
C45   H14   S    
C33   H3    S    
O11   Zn2   S    
C7    N3    A    
C49   H32   S    
C5    C49   S    
C44   H9    S    
C53   H19   S    
C7    C56   A    
N2    Zn4   S    
C47   H11   S    
C19   C43   A    
C45   C47   S    
C25   C29   A    
C48   C53   S    
C51   C52   S    
C36   C40   A    
C20   C54   S    
C27   H1    S    
C17   O4    A    
C49   H33   S    
C21   C55   S    
O5    Zn3   S    
C39   C43   A    
C16   C39   S    
C54   H16   S    
C34   O11   A    
C31   H44   S    
C45   H18   S    
C55   H17   S    
C13   H43   S    
C35   C39   A    
O6    Zn3   S    
C9    C11   S    
C29   H23   S    
O1    Zn1   S    
C52   H37   S    
O14   Zn4   S    
C32   C37   A    
C8    N4    A    
C50   H31   S    
C54   H20   S    
C4    C6    A    
C26   C30   A    
C14   O16   A    
C22   C27   A    
C21   C41   A    
C52   H36   S    
C53   H15   S    
C17   O8    A    
C15   C36   S    
O16   Zn1   S    
C12   O9    A    
C34   O15   A    
C7    C9    S    
O7    Zn4   S    
C18   C22   A    
C4    H24   S    
C2    C8    A    
C24   C28   A    
O4    Zn2   S    
C3    C5    A    
C10   C13   S    
C46   H10   S    
C44   H5    S    
C25   C34   S    
C33   C38   A    
C11   H41   S    
C19   C24   A    
O13   Zn3   S    
C29   C31   A    
C23   O10   A    
C30   C32   A    
C18   C45   S    
C3    N1    A    
C55   H21   S    
O2    Zn1   S    
C10   H28   S    
C42   C47   S    
C37   C41   A    
C50   H30   S    
C51   H38   S    
C12   O13   A    
O10   Zn2   S    
C38   C42   A    
C44   C54   S    
C40   C44   S    
O9    Zn1   S    
C1    C24   S    
C8    C10   S    
C49   C50   S    
C9    H25   S    
C31   C36   A    
C35   H4    S    
C52   H35   S    
C51   H39   S    
O3    Zn2   S    
C3    H22   S    
C11   C56   S    
C16   O7    A    
C1    O1    A    
C14   C37   S    
N3    Zn1   S    
