data_mof_unit_44796.cif
_audit_creation_date              2012-10-26T19:43:54-0400
_audit_creation_method            fapswitch 2.2
_symmetry_space_group_name_H-M    P1
_symmetry_Int_Tables_number       1
_space_group_crystal_system       triclinic
_cell_length_a                    12.347685
_cell_length_b                    13.187441
_cell_length_c                    13.861638
_cell_angle_alpha                 105.272105
_cell_angle_beta                  73.804853
_cell_angle_gamma                 116.696192
_cell_volume                      1911.26749162

loop_
_atom_site_label
_atom_site_type_symbol
_atom_type_description
_atom_site_fract_x
_atom_site_fract_y
_atom_site_fract_z
_atom_type_partial_charge
C1    C     C_R   0.144525 0.713535 0.507930 0.525805
C2    C     C_R   0.564076 0.021588 0.463500 0.020481
C3    C     C_R   0.610819 0.941210 0.398100 0.038975
C4    C     C_R   0.984336 0.504367 0.686405 0.543802
C5    C     C_R   0.528001 0.831390 0.361146 -0.018590
C6    C     C_R   0.401700 0.800383 0.392912 -0.126081
C7    C     C_R   0.648694 0.130947 0.498307 -0.128834
C8    C     C_R   0.820942 0.084736 0.401645 -0.137314
C9    C     C_R   0.226430 0.836559 0.510796 0.004286
C10   C     C_R   0.644170 0.679439 0.659185 -0.145036
C11   C     C_R   0.252465 0.351131 0.363188 0.439054
C12   C     C_1   0.975637 0.507438 0.791752 -0.011038
C13   C     C_R   0.348192 0.313530 0.340671 -0.146641
C14   C     C_R   0.445681 0.369911 0.392922 -0.171586
C15   C     C_R   0.449547 0.463854 0.470894 -0.014888
C16   C     C_R   0.856165 0.286207 0.485244 0.548526
C17   C     C_R   0.347031 0.495081 0.496523 0.121747
C18   C     C_R   0.550164 0.526138 0.525337 -0.009852
C19   C     C_R   0.545923 0.618054 0.605452 0.023646
C20   C     C_R   0.443517 0.646488 0.630723 -0.047248
C21   C     C_R   0.346631 0.585114 0.577672 -0.100053
C22   C     C_R   0.656181 0.501529 0.503229 0.049799
C23   C     C_R   0.739509 0.973738 0.369530 -0.129445
C24   C     C_R   0.744517 0.650207 0.634033 0.041687
C25   C     C_R   0.015687 0.495569 0.313582 0.545434
C26   C     C_1   0.024702 0.492352 0.208170 -0.025554
C27   C     C_2   0.039793 0.486730 0.013800 -0.118969
C28   C     C_2   0.961544 0.512712 0.985897 -0.112854
C29   C     C_1   0.968636 0.510025 0.880417 -0.042999
C30   C     C_1   0.032333 0.489542 0.119362 -0.053484
C31   C     C_1   0.434419 0.739301 0.711595 0.176298
C32   C     C_3   0.187566 0.268774 0.205051 -0.013728
C33   C     C_3   0.279322 0.373733 0.153146 -0.270082
C34   C     C_R   0.775351 0.164317 0.464316 -0.002939
C35   C     C_3   0.296251 0.342005 0.037465 -0.476218
C36   C     C_1   0.569292 0.747502 0.290904 0.176728
C37   C     C_R   0.178775 0.917461 0.567579 -0.124765
C38   C     C_R   0.255936 0.033196 0.584098 -0.134074
C39   C     C_R   0.382436 0.069357 0.549373 -0.112561
C40   C     C_R   0.434581 0.989865 0.493551 0.033918
C41   C     C_R   0.353720 0.874371 0.465822 0.012502
Cu1   Cu    Cu3+1 0.899780 0.525060 0.522890 0.939867
Cu2   Cu    Cu3+1 0.100220 0.474940 0.477110 0.978884
H1    H     H_    0.891807 0.536115 0.042073 0.145683
H2    H     H_    0.919131 0.109310 0.374549 0.159392
H3    H     H_    0.778065 0.914742 0.320053 0.132568
H4    H     H_    0.618659 0.192937 0.552041 0.122210
H5    H     H_    0.081707 0.891072 0.601130 0.129318
H6    H     H_    0.436124 0.160541 0.565462 0.103596
H7    H     H_    0.217906 0.095100 0.626862 0.121267
H8    H     H_    0.101502 0.231380 0.173743 0.157006
H9    H     H_    0.221216 0.199356 0.184820 0.112586
H10   H     H_    0.245246 0.442998 0.177225 0.192600
H11   H     H_    0.370731 0.407847 0.175175 0.165156
H12   H     H_    0.341540 0.718251 0.357292 0.149506
H13   H     H_    0.331402 0.273265 0.010914 0.155986
H14   H     H_    0.363889 0.418757 0.002269 0.160128
H15   H     H_    0.207213 0.311826 0.012411 0.147404
H16   H     H_    0.819839 0.697496 0.675387 0.125189
H17   H     H_    0.644251 0.749862 0.720679 0.119190
H18   H     H_    0.667953 0.434577 0.442971 0.122131
H19   H     H_    0.516045 0.336865 0.371027 0.109121
H20   H     H_    0.348414 0.240144 0.283226 0.100222
H21   H     H_    0.271683 0.610700 0.603262 0.188018
H22   H     H_    0.109584 0.463303 0.957727 0.133681
N1    N     N_R   0.748810 0.563010 0.557590 -0.234503
N2    N     N_R   0.250540 0.437620 0.443020 -0.222713
N3    N     N_1   0.426963 0.813473 0.776122 -0.300823
N4    N     N_1   0.601994 0.680130 0.234877 -0.317346
O1    O     O_R   0.025040 0.682470 0.528790 -0.504617
O2    O     O_R   0.194310 0.640150 0.490130 -0.536720
O3    O     O_R   0.903380 0.524130 0.659910 -0.494652
O4    O     O_R   0.072660 0.481800 0.621240 -0.519136
O5    O     O_R   0.805690 0.359850 0.509870 -0.516578
O6    O     O_R   0.974960 0.317530 0.471210 -0.450483
O7    O     O_R   0.927340 0.518200 0.378760 -0.495571
O8    O     O_R   0.096620 0.475870 0.340090 -0.468103
O9    O     O_3   0.153630 0.297409 0.312000 -0.537317

loop_
_geom_bond_atom_site_label_1
_geom_bond_atom_site_label_2
_ccdc_geom_bond_type
Cu2   O4    S    
C15   C18   A    
C12   C29   T    
C16   O6    A    
C3    C23   A    
C19   C20   A    
C6    H12   S    
C1    O2    A    
C35   H15   S    
C25   O8    A    
C28   C29   S    
C38   C39   A    
C14   H19   S    
C5    C36   S    
Cu1   O1    S    
C8    C23   A    
C18   C19   A    
C8    H2    S    
C22   N1    A    
C21   H21   S    
C16   C34   S    
C32   H9    S    
C2    C7    A    
C6    C41   A    
C4    C12   S    
C24   N1    A    
C23   H3    S    
C13   C14   A    
C27   C30   S    
C33   H10   S    
Cu1   O3    S    
C11   N2    A    
Cu2   O6    S    
C31   N3    T    
Cu1   O5    S    
C17   N2    A    
C1    C9    S    
C39   C40   A    
C10   C24   A    
C25   C26   S    
C28   H1    S    
C17   C21   A    
C7    H4    S    
C10   H17   S    
C32   H8    S    
C37   C38   A    
C27   H22   S    
C11   O9    S    
C13   H20   S    
C10   C19   A    
C9    C37   A    
C8    C34   A    
C37   H5    S    
C4    O4    A    
C40   C41   A    
C39   H6    S    
C26   C30   T    
C7    C34   A    
C16   O5    A    
Cu1   Cu2   S    
C4    O3    A    
C36   N4    T    
C33   H11   S    
C15   C17   A    
Cu2   O2    S    
C35   H13   S    
C18   C22   A    
Cu1   O7    S    
C3    C5    A    
C38   H7    S    
Cu2   O8    S    
C9    C41   A    
C1    O1    A    
C35   H14   S    
C25   O7    A    
C32   C33   S    
C2    C3    A    
C22   H18   S    
C11   C13   A    
C5    C6    A    
C24   H16   S    
C33   C35   S    
C32   O9    S    
C2    C40   A    
C20   C21   A    
Cu2   N2    S    
C27   C28   D    
Cu1   N1    S    
C14   C15   A    
C20   C31   S    
