data_mof_unit_7958.cif
_audit_creation_date              2012-12-11T19:31:16-0500
_audit_creation_method            fapswitch 2.2
_symmetry_space_group_name_H-M    P1
_symmetry_Int_Tables_number       1
_space_group_crystal_system       triclinic
_cell_length_a                    8.273698
_cell_length_b                    15.070338
_cell_length_c                    17.172371
_cell_angle_alpha                 100.591418
_cell_angle_beta                  96.668093
_cell_angle_gamma                 99.171207
_cell_volume                      2054.33311509

loop_
_atom_site_label
_atom_site_type_symbol
_atom_type_description
_atom_site_fract_x
_atom_site_fract_y
_atom_site_fract_z
_atom_type_partial_charge
Ba1   Ba    Ba6+2 0.844380 0.541120 0.463220 1.740482
Ba2   Ba    Ba6+2 0.345460 0.458950 0.536790 1.705426
C1    C     C_3   0.567811 0.795616 0.179918 -0.299507
C2    C     C_3   0.350966 0.580695 0.230096 -0.090751
C3    C     C_2   0.298928 0.548447 0.141632 -0.080055
C4    C     C_3   0.128831 0.738547 0.250201 0.358542
C5    C     C_2   0.152230 0.492742 0.112359 0.026503
C6    C     C_2   0.051041 0.454194 0.170165 -0.042903
C7    C     C_1   0.110034 0.469715 0.248201 0.061902
C8    C     C_R   0.873481 0.483946 0.866953 0.282532
C9    C     C_R   0.816542 0.454142 0.783502 -0.062523
C10   C     C_R   0.080908 0.528844 0.753416 0.074610
C11   C     C_R   0.144382 0.545599 0.835397 -0.108272
C12   C     C_3   0.642851 0.763355 0.252416 0.288734
C13   C     C_R   0.045393 0.518235 0.891892 -0.075912
C14   C     C_2   0.089571 0.471997 0.024512 0.026291
C15   C     C_2   0.123824 0.533120 0.976866 0.006755
C16   C     C_3   0.059952 0.739339 0.163692 0.345514
C17   C     C_R   0.922322 0.475431 0.727742 -0.339770
C18   C     C_R   0.867364 0.172089 0.549237 0.013619
C19   C     C_R   0.798128 0.078472 0.543970 0.009561
C20   C     C_R   0.658597 0.888918 0.528217 -0.069044
C21   C     C_R   0.817637 0.927204 0.571290 -0.008195
C22   C     C_R   0.887475 0.019105 0.577089 -0.005395
C23   C     C_3   0.322422 0.204259 0.280111 0.154633
C24   C     C_R   0.589909 0.793768 0.517260 0.046419
C25   C     C_R   0.431241 0.760353 0.472560 -0.258395
C26   C     C_R   0.611002 0.194282 0.475336 -0.007465
C27   C     C_R   0.539591 0.101723 0.471310 -0.006479
C28   C     C_3   0.357108 0.760368 0.700445 0.208785
C29   C     C_R   0.634000 0.043108 0.504321 0.045772
C30   C     C_R   0.376480 0.065676 0.434156 -0.027417
C31   C     C_R   0.309842 0.973765 0.425005 -0.040440
C32   C     C_R   0.402278 0.913411 0.454055 -0.021892
C33   C     C_R   0.565171 0.948218 0.495408 0.007317
C34   C     C_3   0.330010 0.103582 0.246939 -0.274074
C35   C     C_R   0.334646 0.819567 0.443369 0.020934
C36   C     C_R   0.772195 0.228548 0.515582 -0.275487
C37   C     C_3   0.453463 0.813074 0.781745 -0.201998
C38   C     C_3   0.900636 0.240585 0.332355 0.224898
C39   C     C_3   0.860732 0.140523 0.283454 -0.243666
C40   C     C_3   0.836406 0.717715 0.717051 0.722573
C41   C     C_3   0.740249 0.645000 0.752319 -0.292895
C42   C     C_2   0.729338 0.127275 0.210431 0.971087
C43   C     C_2   0.823268 0.070733 0.334301 0.739883
C44   C     C_2   0.268388 0.248448 0.211088 0.924403
C45   C     C_3   0.129814 0.284806 0.749566 0.365171
C46   C     C_2   0.570642 0.138329 0.712970 0.878892
C47   C     C_2   0.301183 0.825891 0.651329 0.852190
C48   C     C_3   0.171349 0.268336 0.833833 -0.258538
C49   C     C_3   0.646911 0.235457 0.753915 0.349731
C50   C     C_3   0.729460 0.235634 0.838553 -0.323430
C51   C     C_2   0.255360 0.523051 0.279207 -0.198114
H1    H     H_    0.751513 0.816045 0.283325 0.136156
H2    H     H_    0.637119 0.669655 0.779369 0.133216
H3    H     H_    0.822408 0.628074 0.800523 0.074838
H4    H     H_    0.689165 0.583781 0.704256 0.062784
H5    H     H_    0.553572 0.760532 0.296139 -0.080694
H6    H     H_    0.535924 0.864095 0.199468 0.173485
H7    H     H_    0.226652 0.206373 0.319682 0.007280
H8    H     H_    0.418115 0.078391 0.287073 0.134930
H9    H     H_    0.206323 0.060193 0.241247 0.164199
H10   H     H_    0.370470 0.094269 0.187013 0.196754
H11   H     H_    0.453909 0.746602 0.149373 0.089777
H12   H     H_    0.479626 0.765341 0.821474 0.120321
H13   H     H_    0.131367 0.701526 0.122496 -0.085815
H14   H     H_    0.221108 0.343507 0.742139 0.097981
H15   H     H_    0.005733 0.303040 0.743144 -0.087513
H16   H     H_    0.301717 0.259260 0.845197 0.179573
H17   H     H_    0.153642 0.327979 0.878505 0.058242
H18   H     H_    0.090450 0.205420 0.841463 0.132046
H19   H     H_    0.740597 0.258183 0.717037 -0.153366
H20   H     H_    0.808172 0.182541 0.837711 0.119508
H21   H     H_    0.634004 0.221455 0.877374 0.161077
H22   H     H_    0.105455 0.665791 0.255811 -0.072729
H23   H     H_    0.570139 0.854995 0.773032 0.155682
H24   H     H_    0.809691 0.302866 0.865286 0.088211
H25   H     H_    0.211605 0.596739 0.000088 0.082325
H26   H     H_    0.929860 0.411785 0.147379 0.128365
H27   H     H_    0.000080 0.409096 0.000187 0.105956
H28   H     H_    0.378367 0.575721 0.102282 0.098151
H29   H     H_    0.270346 0.582184 0.855638 0.143948
H30   H     H_    0.297145 0.537680 0.343248 0.060905
H31   H     H_    0.874708 0.458598 0.664407 0.086119
H32   H     H_    0.892360 0.887215 0.600759 0.167255
H33   H     H_    0.263771 0.766870 0.261566 -0.073152
H34   H     H_    0.379481 0.859987 0.812853 0.191079
H35   H     H_    0.011994 0.042851 0.608768 0.148946
H36   H     H_    0.184914 0.951256 0.393716 0.143834
H37   H     H_    0.297159 0.107148 0.410045 0.102303
H38   H     H_    0.377317 0.688532 0.465451 0.053628
H39   H     H_    0.826163 0.299623 0.518555 0.054916
H40   H     H_    0.929400 0.703297 0.148982 0.095141
H41   H     H_    0.433218 0.718593 0.666285 -0.030496
H42   H     H_    0.753545 0.996326 0.169009 0.327873
H43   H     H_    0.670070 0.959613 0.350288 0.302840
H44   H     H_    0.900950 0.901923 0.896656 0.397872
H45   H     H_    0.787810 0.262338 0.351515 0.028097
H46   H     H_    0.451322 0.361454 0.243126 0.312766
H47   H     H_    0.609517 0.009264 0.677105 0.337694
H48   H     H_    0.686417 0.636502 0.926795 0.344290
H49   H     H_    0.023277 0.803661 0.016362 0.358990
H50   H     H_    0.168339 0.722452 0.566263 0.276563
H51   H     H_    0.994611 0.247117 0.385870 0.026422
H52   H     H_    0.973378 0.125787 0.258745 0.061366
H53   H     H_    0.920869 0.686532 0.679758 -0.020207
H54   H     H_    0.657903 0.800957 0.137079 0.185292
O1    O     O_2   0.823660 0.438400 0.305670 -0.437420
O2    O     O_2   0.207592 0.179555 0.548917 -0.429180
O3    O     O_3   0.134736 0.205343 0.693183 -0.551881
O4    O     O_3   0.097530 0.445010 0.403900 -0.509274
O5    O     O_3   0.591420 0.612980 0.544250 -0.497530
O6    O     O_2   0.325830 0.273320 0.453470 -0.473161
O7    O     O_3   0.480585 0.250685 0.319555 -0.648243
O8    O     O_2   0.475695 0.458663 0.776264 -0.407331
O9    O     O_3   0.523764 0.290224 0.759055 -0.583665
O10   O     O_3   0.626680 0.608380 0.360110 -0.481077
O11   O     O_2   0.635655 0.502758 0.218593 -0.415934
O12   O     O_3   0.723767 0.756999 0.673812 -0.681898
O13   O     O_3   0.965048 0.293728 0.280823 -0.612338
O14   O     O_3   0.698052 0.680459 0.226709 -0.576535
O15   O     O_2   0.863890 0.726710 0.546580 -0.450278
O16   O     O_3   0.059540 0.657940 0.401520 -0.486680
O17   O     O_2   0.997760 0.822063 0.452242 -0.429420
O18   O     O_2   0.664160 0.191132 0.196725 -0.530410
O19   O     O_R   0.686801 0.043530 0.155301 -0.671745
O20   O     O_2   0.930900 0.063810 0.386777 -0.620986
O21   O     O_R   0.672261 0.009308 0.317808 -0.787978
O22   O     O_2   0.079679 0.767570 0.845324 -0.327912
O23   O     O_3   0.047619 0.789779 0.304520 -0.574918
O24   O     O_2   0.041740 0.881973 0.762981 -0.262450
O25   O     O_3   0.829292 0.848900 0.858811 -0.526421
O26   O     O_2   0.143796 0.210971 0.163822 -0.557904
O27   O     O_R   0.356622 0.330782 0.198994 -0.712118
O28   O     O_2   0.423798 0.117567 0.684829 -0.510023
O29   O     O_R   0.671076 0.071873 0.706882 -0.781324
O30   O     O_2   0.612588 0.410705 0.931586 -0.267203
O31   O     O_2   0.803917 0.538050 0.021092 -0.320383
O32   O     O_3   0.612631 0.575690 0.908946 -0.502297
O33   O     O_2   0.989927 0.908960 0.204723 -0.305285
O34   O     O_2   0.366060 0.561630 0.694380 -0.482206
O35   O     O_2   0.248689 0.897513 0.150294 -0.298080
O36   O     O_3   0.971562 0.846375 0.052301 -0.460667
O37   O     O_2   0.344533 0.908901 0.673440 -0.562976
O38   O     O_R   0.189059 0.791883 0.581793 -0.716119
O39   O     O_3   0.092190 0.555060 0.596110 -0.507935
O40   O     O_3   0.563040 0.391700 0.639900 -0.476849
O41   O     O_3   0.213697 0.707240 0.714406 -0.616096
O42   O     O_3   0.598290 0.387090 0.455760 -0.449610
O43   O     O_3   0.130180 0.342130 0.598490 -0.502556
P1    P     P_3+3 0.993930 0.412000 0.316950 1.033455
P2    P     P_3+3 0.694120 0.714590 0.569800 0.958843
P3    P     P_3+3 0.112644 0.773667 0.400865 1.009942
P4    P     P_3+3 0.195780 0.588080 0.683070 0.985613
P5    P     P_3+3 0.083544 0.224412 0.596318 1.022497
P6    P     P_3+3 0.577187 0.590773 0.256993 1.034475
P7    P     P_3+3 0.500666 0.271515 0.425075 0.946799
P8    P     P_3+3 0.598118 0.399852 0.742639 1.065174
S1    S     S_3+6 0.954576 0.806146 0.797313 -0.060568
S2    S     S_3+6 0.726539 0.500101 0.935466 -0.075548
S3    S     S_3+6 0.071119 0.852553 0.144762 -0.061955

loop_
_geom_bond_atom_site_label_1
_geom_bond_atom_site_label_2
_ccdc_geom_bond_type
Ba2   O43   S    
Ba2   O39   S    
C18   P5    S    
C2    C51   S    
C32   C35   A    
C49   H19   S    
C46   O28   D    
C40   S1    S    
C37   H34   S    
C4    O23   S    
O35   S3    D    
H48   O32   S    
C4    H22   S    
C1    H11   S    
C20   C33   A    
C19   C29   A    
C42   O19   S    
C24   C25   A    
C39   H52   S    
C26   C27   A    
O14   P6    S    
C48   H16   S    
C43   O20   D    
C32   C33   A    
C27   C30   A    
C50   H21   S    
C8    C13   A    
Ba1   O5    S    
C38   H45   S    
Ba2   O6    S    
O34   P4    D    
C38   H51   S    
C43   O21   S    
C47   O37   D    
C36   H39   S    
C3    H28   S    
H43   O21   S    
Ba1   P2    S    
Ba1   Ba2   S    
Ba1   O15   S    
C26   P7    S    
O3    P5    S    
C40   O12   S    
C46   C49   S    
C30   H37   S    
C14   C15   D    
C6    H26   S    
C21   C22   A    
O5    P2    S    
O11   P6    D    
C23   H7    S    
C34   H10   S    
Ba2   O42   S    
Ba2   P4    S    
C12   O14   S    
O17   P3    D    
Ba2   O5    S    
C37   H12   S    
Ba1   O39   S    
O41   P4    S    
C34   H9    S    
C45   H14   S    
C45   C48   S    
C12   H5    S    
C4    C16   S    
C42   O18   D    
O25   S1    S    
O8    P8    D    
C49   C50   S    
C35   P3    S    
C5    C6    S    
C50   H20   S    
C3    C5    D    
C6    C7    D    
C23   C34   S    
C1    H54   S    
O33   S3    D    
C11   H29   S    
H46   O27   S    
C14   H27   S    
O15   P2    D    
O24   S1    D    
C48   H18   S    
Ba1   O16   S    
O7    P7    S    
O9    P8    S    
C31   H36   S    
C44   O27   S    
O1    P1    D    
C18   C36   A    
O39   P4    S    
C26   C36   A    
C27   C29   A    
C9    C17   A    
O10   P6    S    
C31   C32   A    
C47   O38   S    
Ba1   O10   S    
C37   H23   S    
C10   C11   A    
C25   H38   S    
C22   H35   S    
C1    C12   S    
C41   H2    S    
C5    C14   S    
C2    P6    S    
C28   C47   S    
O32   S2    S    
O43   P5    S    
C11   C13   A    
C21   H32   S    
C39   C42   S    
C29   C33   A    
C7    C51   D    
C40   C41   S    
C17   H31   S    
C38   O13   S    
C8    S2    S    
C45   H15   S    
O22   S1    D    
H50   O38   S    
O16   P3    S    
O12   P2    S    
C13   C15   S    
C38   C39   S    
O13   P1    S    
O30   S2    D    
C12   H1    S    
Ba2   O4    S    
C46   O29   S    
H44   O25   S    
C10   P4    S    
C2    C3    S    
O4    P1    S    
C28   O41   S    
C34   H8    S    
C16   H13   S    
C45   O3    S    
C49   O9    S    
C4    H33   S    
C51   H30   S    
C30   C31   A    
C24   P2    S    
H49   O36   S    
Ba2   O40   S    
C28   H41   S    
C23   O7    S    
Ba1   O4    S    
C44   O26   D    
H42   O19   S    
C25   C35   A    
Ba2   O34   S    
C10   C17   A    
C15   H25   S    
C16   S3    S    
C28   C37   S    
Ba1   P1    S    
O23   P3    S    
C48   H17   S    
O2    P5    D    
C8    C9    A    
C41   H4    S    
Ba1   O1    S    
H47   O29   S    
C40   H53   S    
O31   S2    D    
C41   H3    S    
C18   C19   A    
C7    P1    S    
C20   C24   A    
C19   C22   A    
C16   H40   S    
C39   C43   S    
C20   C21   A    
Ba1   O42   S    
O6    P7    D    
O40   P8    S    
O42   P7    S    
C23   C44   S    
O36   S3    S    
C50   H24   S    
C9    P8    S    
C1    H6    S    
