data_mof_unit_63683.cif
_audit_creation_date              2012-12-10T18:39:04-0500
_audit_creation_method            fapswitch 2.2
_symmetry_space_group_name_H-M    P1
_symmetry_Int_Tables_number       1
_space_group_crystal_system       triclinic
_cell_length_a                    13.925342
_cell_length_b                    15.076523
_cell_length_c                    17.365695
_cell_angle_alpha                 91.404554
_cell_angle_beta                  86.652301
_cell_angle_gamma                 91.052137
_cell_volume                      3638.01501157

loop_
_atom_site_label
_atom_site_type_symbol
_atom_type_description
_atom_site_fract_x
_atom_site_fract_y
_atom_site_fract_z
_atom_type_partial_charge
C1    C     C_R   0.500952 0.670114 0.498743 0.844478
C2    C     C_R   0.499282 0.330116 0.501364 0.846603
C3    C     C_R   0.426133 0.903943 0.543498 0.329342
C4    C     C_R   0.451394 0.092979 0.445337 0.327611
C5    C     C_R   0.428125 0.811719 0.541232 -0.234435
C6    C     C_R   0.451960 0.185264 0.446127 -0.202964
C7    C     C_R   0.502307 0.767014 0.499098 -0.123244
C8    C     C_R   0.498127 0.233704 0.503452 -0.127582
C9    C     C_R   0.575140 0.815856 0.458051 0.173834
C10   C     C_R   0.544477 0.189213 0.560818 0.152919
C11   C     C_R   0.572786 0.908202 0.460570 -0.175688
C12   C     C_R   0.543744 0.096818 0.559990 -0.165039
C13   C     C_R   0.498794 0.952175 0.502875 0.018115
C14   C     C_R   0.497524 0.048748 0.502598 0.013527
C15   C     C_R   0.896279 0.467707 0.437302 -0.250773
C16   C     C_R   0.107077 0.572094 0.528898 -0.243433
C17   C     C_R   0.795007 0.464167 0.439250 0.043599
C18   C     C_R   0.207909 0.569659 0.531764 0.024457
C19   C     C_R   0.787843 0.540705 0.559669 0.419953
C20   C     C_R   0.209547 0.431658 0.464587 0.413257
C21   C     C_R   0.888154 0.532560 0.565412 0.163741
C22   C     C_R   0.108008 0.425150 0.471799 0.162320
C23   C     C_R   0.487862 0.498641 0.649768 0.823752
C24   C     C_R   0.512126 0.500861 0.350217 0.809110
C25   C     C_R   0.945226 0.498732 0.501971 0.058943
C26   C     C_R   0.054350 0.498035 0.501538 0.044934
C27   C     C_R   0.481950 0.492816 0.733741 -0.040617
C28   C     C_R   0.517979 0.504443 0.266118 -0.033994
C29   C     C_R   0.565744 0.479906 0.772775 -0.121380
C30   C     C_R   0.433654 0.512288 0.226670 -0.154077
C31   C     C_R   0.560660 0.473292 0.852397 -0.117522
C32   C     C_R   0.438514 0.516041 0.146849 -0.124572
C33   C     C_R   0.471708 0.480513 0.894189 0.166726
C34   C     C_R   0.527814 0.510749 0.105239 0.174791
C35   C     C_R   0.387612 0.490745 0.855247 -0.133782
C36   C     C_R   0.612301 0.505336 0.144578 -0.137095
C37   C     C_R   0.392624 0.497303 0.775367 -0.164779
C38   C     C_R   0.607525 0.501832 0.224667 -0.164679
C39   C     C_2   0.464779 0.478113 0.978501 -0.202423
C40   C     C_2   0.534972 0.511450 0.020809 -0.203378
Cu1   Cu    Cu3+1 0.403570 0.500010 0.500000 1.007658
Cu2   Cu    Cu3+1 0.596430 0.499990 0.500000 1.026606
H1    H     H_    0.635251 0.474058 0.741874 0.199385
H2    H     H_    0.363820 0.516072 0.257381 0.180042
H3    H     H_    0.936026 0.444922 0.385400 0.192085
H4    H     H_    0.070542 0.631705 0.549108 0.205076
H5    H     H_    0.759749 0.435434 0.390488 0.148778
H6    H     H_    0.245500 0.625467 0.557123 0.157612
H7    H     H_    0.673710 0.496670 0.253940 0.159452
H8    H     H_    0.326816 0.506312 0.746397 0.173993
H9    H     H_    0.600636 0.538565 0.993102 0.159677
H10   H     H_    0.398981 0.451015 0.005939 0.158214
H11   H     H_    0.318381 0.495457 0.886831 0.146797
H12   H     H_    0.681790 0.502314 0.113202 0.142811
H13   H     H_    0.372403 0.524153 0.118207 0.139522
H14   H     H_    0.626221 0.461693 0.880864 0.147397
H15   H     H_    0.371932 0.774855 0.573014 0.176392
H16   H     H_    0.418403 0.219074 0.400833 0.209849
H17   H     H_    0.627962 0.945991 0.428519 0.183283
H18   H     H_    0.578956 0.062285 0.604216 0.185755
N1    N     N_R   0.741310 0.499980 0.500000 -0.214215
N2    N     N_R   0.258690 0.500020 0.500000 -0.221975
O1    O     O_R   0.418570 0.628550 0.499990 -0.602276
O2    O     O_R   0.581430 0.371450 0.500010 -0.566876
O3    O     O_R   0.581440 0.628540 0.499990 -0.526969
O4    O     O_R   0.418560 0.371460 0.500010 -0.539455
O5    O     O_R   0.409120 0.500020 0.613600 -0.590755
O6    O     O_R   0.590880 0.499980 0.386400 -0.600151
O7    O     O_R   0.571990 0.500010 0.613600 -0.551951
O8    O     O_R   0.428010 0.499990 0.386400 -0.561422
Br1   Br    Br    0.723449 0.623999 0.629893 -0.404922
Br2   Br    Br    0.273777 0.351346 0.392025 -0.424099
Br3   Br    Br    0.942723 0.560681 0.663080 -0.429557
Br4   Br    Br    0.046183 0.313017 0.447017 -0.388311
Br5   Br    Br    0.322954 0.961526 0.601987 -0.407470
Br6   Br    Br    0.387810 0.029842 0.365054 -0.399925
I1    I     I_    0.686346 0.756964 0.385895 -0.275110
I2    I     I_    0.612895 0.256605 0.652061 -0.285503

loop_
_geom_bond_atom_site_label_1
_geom_bond_atom_site_label_2
_ccdc_geom_bond_type
Cu2   O6    S    
C35   H11   S    
Cu1   Cu2   S    
C6    H16   S    
C19   Br1   S    
C10   I2    S    
C24   O8    A    
Cu1   O5    S    
C38   H7    S    
C33   C39   S    
C34   C40   S    
C19   C21   A    
C19   N1    A    
C15   C25   A    
C27   C29   A    
C21   Br3   S    
C15   C17   A    
C23   O5    A    
C23   O7    A    
C17   N1    A    
Cu2   O3    S    
C1    O3    A    
C31   C33   A    
C23   C27   S    
C31   H14   S    
C3    Br5   S    
C32   H13   S    
C3    C13   A    
C39   H10   S    
C13   C14   S    
C29   H1    S    
C20   N2    A    
C30   H2    S    
Cu1   N2    S    
C11   H17   S    
C1    O1    A    
C2    O2    A    
C16   C26   A    
C17   H5    S    
C4    C6    A    
C16   H4    S    
C39   C40   D    
C5    C7    A    
C18   N2    A    
C6    C8    A    
C3    C5    A    
C25   C26   S    
Cu2   O7    S    
C32   C34   A    
C28   C38   A    
C9    I1    S    
C9    C11   A    
Cu2   N1    S    
C10   C12   A    
C8    C10   A    
C12   C14   A    
Cu1   O1    S    
Cu2   O2    S    
C7    C9    A    
C21   C25   A    
C35   C37   A    
C1    C7    S    
C2    C8    S    
C24   C28   S    
C20   C22   A    
C2    O4    A    
C18   H6    S    
Cu1   O4    S    
C40   H9    S    
C5    H15   S    
C36   C38   A    
C29   C31   A    
C30   C32   A    
C37   H8    S    
C11   C13   A    
C27   C37   A    
C28   C30   A    
C33   C35   A    
C34   C36   A    
C4    C14   A    
C4    Br6   S    
C36   H12   S    
C24   O6    A    
C12   H18   S    
C16   C18   A    
C22   C26   A    
C22   Br4   S    
C20   Br2   S    
Cu1   O8    S    
C15   H3    S    
