data_mof_unit_44279.cif
_audit_creation_date              2013-03-05T16:36:15-0500
_audit_creation_method            fapswitch 2.2
_symmetry_space_group_name_H-M    P1
_symmetry_Int_Tables_number       1
_space_group_crystal_system       triclinic
_cell_length_a                    27.822955
_cell_length_b                    9.096575
_cell_length_c                    7.795885
_cell_angle_alpha                 90.000483
_cell_angle_beta                  90.001011
_cell_angle_gamma                 89.999965
_cell_volume                      1973.08857513

loop_
_atom_site_label
_atom_site_type_symbol
_atom_site_description
_atom_site_fract_x
_atom_site_fract_y
_atom_site_fract_z
_atom_type_partial_charge
O1    O     O_R   0.500000 0.288390 0.642760 -0.575265
O2    O     O_R   0.500000 0.711610 0.357240 -0.575266
O3    O     O_R   0.500000 0.711610 0.642760 -0.575259
O4    O     O_R   0.500000 0.288390 0.357240 -0.575258
C1    C     C_R   0.500000 0.220057 0.499999 0.850047
C2    C     C_R   0.500000 0.779943 0.500000 0.850044
O5    O     O_R   0.430260 0.500000 0.642770 -0.584862
O6    O     O_R   0.569740 0.500000 0.357230 -0.584871
O7    O     O_R   0.569740 0.500000 0.642770 -0.584870
O8    O     O_R   0.430260 0.500000 0.357230 -0.584864
C3    C     C_R   0.407201 0.500001 0.499998 0.818687
C4    C     C_R   0.592799 0.500000 0.500001 0.818694
Cu1   Cu    Cu3+1 0.500000 0.500000 0.669080 1.012019
Cu2   Cu    Cu3+1 0.500000 0.500000 0.330920 1.012018
C5    C     C_R   0.177747 0.369611 0.483913 0.515697
C6    C     C_R   0.822254 0.630417 0.483997 0.515692
C7    C     C_R   0.177748 0.630396 0.516036 0.515697
C8    C     C_R   0.822253 0.369620 0.516010 0.515700
O9    O     O_2   0.202654 0.243071 0.467509 -0.522620
O10   O     O_2   0.797347 0.756963 0.467658 -0.522621
O11   O     O_2   0.202656 0.756935 0.532440 -0.522625
O12   O     O_2   0.797344 0.243075 0.532360 -0.522599
N1    N     N_R   0.201765 0.500003 0.499973 -0.472282
N2    N     N_R   0.798236 0.500019 0.500006 -0.472286
C9    C     C_R   0.278656 0.521231 0.345644 0.182015
C10   C     C_R   0.721345 0.478971 0.345636 0.181986
C11   C     C_R   0.278655 0.478774 0.654322 0.182011
C12   C     C_R   0.721346 0.521067 0.654373 0.181998
C13   C     C_R   0.328817 0.520365 0.346281 -0.167701
C14   C     C_R   0.671184 0.479835 0.346266 -0.167700
C15   C     C_R   0.328815 0.479641 0.653698 -0.167702
C16   C     C_R   0.671186 0.520182 0.653742 -0.167711
C17   C     C_R   0.253333 0.500000 0.499979 0.265537
C18   C     C_R   0.746667 0.500019 0.500005 0.265544
C19   C     C_R   0.101750 0.500007 0.499978 -0.045295
C20   C     C_R   0.898250 0.500016 0.499995 -0.045300
C21   C     C_R   0.127313 0.367012 0.484735 -0.016874
C22   C     C_R   0.872687 0.633015 0.484805 -0.016866
C23   C     C_R   0.127314 0.632999 0.515219 -0.016872
C24   C     C_R   0.872686 0.367018 0.515189 -0.016880
C25   C     C_R   0.102106 0.234886 0.469202 -0.145518
C26   C     C_R   0.897894 0.765145 0.469307 -0.145508
C27   C     C_R   0.102108 0.765127 0.530757 -0.145517
C28   C     C_R   0.897892 0.234886 0.530679 -0.145507
C29   C     C_R   0.354268 0.500001 0.499993 -0.154653
C30   C     C_R   0.645732 0.500003 0.500004 -0.154662
H1    H     H_    0.347800 0.463329 0.773571 0.183548
H2    H     H_    0.652202 0.536346 0.773639 0.183553
H3    H     H_    0.347803 0.536685 0.226413 0.183547
H4    H     H_    0.652200 0.463676 0.226367 0.183553
H5    H     H_    0.120914 0.131562 0.453305 0.184002
H6    H     H_    0.879086 0.868473 0.453443 0.183991
H7    H     H_    0.120917 0.868450 0.546655 0.184004
H8    H     H_    0.879084 0.131560 0.546543 0.183993
C31   C     C_R   0.974539 0.364500 0.506041 0.045015
C32   C     C_R   0.025461 0.635520 0.506082 0.045016
C33   C     C_R   0.974540 0.635524 0.493934 0.045016
C34   C     C_R   0.025460 0.364499 0.493886 0.045015
C35   C     C_R   0.949295 0.500013 0.499990 0.065673
C36   C     C_R   0.050705 0.500008 0.499982 0.065677
C37   C     C_R   0.947821 0.233375 0.526155 -0.208162
C38   C     C_R   0.052180 0.766641 0.526238 -0.208175
C39   C     C_R   0.947823 0.766652 0.473821 -0.208166
C40   C     C_R   0.052177 0.233376 0.473729 -0.208173
H9    H     H_    0.964590 0.127815 0.543975 0.129503
H10   H     H_    0.035410 0.872197 0.544095 0.129520
H11   H     H_    0.964593 0.872209 0.455992 0.129503
H12   H     H_    0.035408 0.127821 0.455876 0.129519
C41   C     C_1   0.500000 0.065374 0.499999 -0.163089
C42   C     C_1   0.500000 0.934625 0.500001 -0.163089
N3    N     N_1   0.500000 0.500000 0.076820 -0.048480
N4    N     N_1   0.500000 0.500000 0.923180 -0.048480
N5    N     N_3   0.253874 0.456427 0.812919 -0.567807
H13   H     H_    0.232607 0.362220 0.801451 0.243786
H14   H     H_    0.231105 0.546185 0.833268 0.241159
N6    N     N_3   0.746128 0.543276 0.813002 -0.567775
H15   H     H_    0.767391 0.637502 0.801662 0.243736
H16   H     H_    0.768898 0.453507 0.833232 0.241199
N7    N     N_3   0.253877 0.543590 0.187040 -0.567804
H17   H     H_    0.232615 0.637805 0.198500 0.243788
H18   H     H_    0.231103 0.453845 0.166690 0.241155
N8    N     N_3   0.746125 0.456816 0.187005 -0.567781
H19   H     H_    0.767400 0.362619 0.198315 0.243719
H20   H     H_    0.768882 0.546616 0.166790 0.241215

loop_
_geom_bond_atom_site_label_1
_geom_bond_atom_site_label_2
_geom_bond_distance
_ccdc_geom_bond_type
C31   C35   1.419542 A    
N5    H14   1.045517 S    
Cu2   N3    1.980934 S    
C20   C35   1.420217 A    
C13   H3    1.083675 S    
C11   C17   1.407612 A    
C5    O9    1.349663 S    
C7    N1    1.367160 A    
O1    C1    1.274761 A    
C40   H12   1.076588 S    
C19   C21   1.408400 A    
N6    H16   1.045488 S    
C22   C26   1.396820 A    
C33   C35   1.419539 A    
C34   C36   1.419539 A    
O7    Cu1   1.951184 S    
C32   C33   1.419930 A    
C7    C23   1.403423 A    
C8    C24   1.403423 A    
C5    C21   1.403423 A    
C1    C41   1.407079 S    
C27   H7    1.082864 S    
N1    C17   1.434794 S    
C8    N2    1.367162 A    
C8    O12   1.349671 S    
C24   C28   1.396818 A    
O3    Cu1   1.935833 S    
C6    O10   1.349644 S    
O3    C2    1.274764 A    
C5    N1    1.367150 A    
C14   H4    1.083649 S    
C12   C18   1.407573 A    
C6    N2    1.367171 A    
C15   H1    1.083668 S    
Cu1   Cu2   2.636257 S    
C21   C25   1.396816 A    
C16   H2    1.083646 S    
O2    C2    1.274761 A    
C10   C18   1.407578 A    
C33   C39   1.414204 A    
N5    H13   1.045219 S    
C9    C13   1.395642 A    
C39   H11   1.076586 S    
C38   H10   1.076591 S    
C11   C15   1.395644 A    
C12   C16   1.395645 A    
N6    H15   1.045208 S    
C4    C30   1.472755 S    
O8    Cu2   1.951187 S    
N7    H18   1.045519 S    
C23   C27   1.396820 A    
C34   C40   1.414202 A    
N2    C18   1.434794 S    
C32   C36   1.419541 A    
C13   C29   1.404180 A    
C19   C36   1.420217 A    
C19   C23   1.408396 A    
C28   H8    1.082866 S    
O5    C3    1.284686 A    
C20   C24   1.408408 A    
O6    C4    1.284688 A    
C10   C14   1.395639 A    
N8    H20   1.045470 S    
C32   C38   1.414198 A    
C3    C29   1.472747 S    
O1    Cu1   1.935831 S    
C12   N6    1.430217 S    
C2    C42   1.407079 S    
O6    Cu2   1.951177 S    
C9    N7    1.430203 S    
C16   C30   1.404161 A    
C14   C30   1.404145 A    
O4    C1    1.274764 A    
Cu1   N4    1.980934 S    
C28   C37   1.389683 A    
C20   C22   1.408405 A    
N3    N4    1.197761 T    
C31   C37   1.414201 A    
O4    Cu2   1.935834 S    
C41   C42   1.189367 T    
O2    Cu2   1.935830 S    
O7    C4    1.284690 A    
C7    O11   1.349657 S    
C9    C17   1.407614 A    
O8    C3    1.284684 A    
N7    H17   1.045214 S    
C37   H9    1.076584 S    
O5    Cu1   1.951180 S    
C10   N8    1.430166 S    
N8    H19   1.045169 S    
C15   C29   1.404169 A    
C31   C34   1.419934 A    
C6    C22   1.403416 A    
C25   C40   1.389683 A    
C11   N5    1.430191 S    
C26   C39   1.389676 A    
C25   H5    1.082865 S    
C27   C38   1.389678 A    
C26   H6    1.082864 S    
