data_mof_unit_25765.cif
_audit_creation_date              2012-12-10T20:38:23-0500
_audit_creation_method            fapswitch 2.2
_symmetry_space_group_name_H-M    P1
_symmetry_Int_Tables_number       1
_space_group_crystal_system       triclinic
_cell_length_a                    9.849596
_cell_length_b                    10.669424
_cell_length_c                    16.651961
_cell_angle_alpha                 89.973497
_cell_angle_beta                  85.196312
_cell_angle_gamma                 89.716562
_cell_volume                      1743.7784441

loop_
_atom_site_label
_atom_site_type_symbol
_atom_type_description
_atom_site_fract_x
_atom_site_fract_y
_atom_site_fract_z
_atom_type_partial_charge
C1    C     C_R   0.499100 0.739921 0.502791 0.896856
C2    C     C_R   0.529775 0.524995 0.259963 -0.038836
C3    C     C_R   0.377135 0.937049 0.503323 0.130024
C4    C     C_R   0.480908 0.506491 0.653270 0.846976
C5    C     C_R   0.494372 0.870725 0.516902 -0.153522
C6    C     C_R   0.603349 0.931415 0.548907 -0.228408
C7    C     C_R   0.605831 0.061936 0.551206 0.168173
C8    C     C_R   0.497052 0.128161 0.519164 -0.139172
C9    C     C_R   0.378668 0.064441 0.504130 0.104451
C10   C     C_3   0.291462 0.073753 0.434951 -0.485664
C11   C     C_3   0.290190 0.931663 0.434101 -0.468101
C12   C     C_R   0.348054 0.525953 0.785870 -0.206172
C13   C     C_R   0.923410 0.595792 0.535430 0.228740
C14   C     C_R   0.934324 0.412185 0.458325 -0.144937
C15   C     C_R   0.078426 0.412245 0.458268 -0.134325
C16   C     C_R   0.499925 0.259926 0.504559 0.895002
C17   C     C_R   0.066087 0.595955 0.535192 0.215286
C18   C     C_3   0.060700 0.633787 0.621427 -0.498283
C19   C     C_3   0.906550 0.632430 0.622107 -0.537438
C20   C     C_R   0.518870 0.502090 0.346396 0.859026
C21   C     C_R   0.467647 0.548778 0.736490 -0.024844
C22   C     C_R   0.567441 0.628267 0.763146 -0.213756
C23   C     C_R   0.417235 0.553861 0.138154 -0.148963
C24   C     C_R   0.551713 0.678879 0.839917 -0.157951
C25   C     C_R   0.436637 0.648949 0.891326 0.203685
C26   C     C_R   0.332699 0.575956 0.863260 -0.167136
C27   C     C_3   0.726048 0.125137 0.584291 -0.854982
C28   C     C_R   0.413774 0.514012 0.217413 -0.214958
C29   C     C_R   0.651096 0.572067 0.221419 -0.199637
C30   C     C_R   0.654382 0.612495 0.141920 -0.183676
C31   C     C_R   0.536621 0.606755 0.100605 0.206416
C32   C     C_2   0.434491 0.672118 0.977710 -0.246933
C33   C     C_2   0.545122 0.642710 0.015611 -0.231629
H1    H     H_    0.656499 0.653228 0.724234 0.147919
H2    H     H_    0.101408 0.560342 0.660389 0.217077
H3    H     H_    0.319638 0.476328 0.245738 0.152236
H4    H     H_    0.102872 0.729120 0.628935 0.201971
H5    H     H_    0.858907 0.557236 0.660997 0.219550
H6    H     H_    0.859623 0.726885 0.630928 0.189026
H7    H     H_    0.741875 0.581609 0.253354 0.156415
H8    H     H_    0.642949 0.628191 0.981526 0.150651
H9    H     H_    0.243423 0.552056 0.902663 0.122871
H10   H     H_    0.326910 0.540814 0.106450 0.123219
H11   H     H_    0.268020 0.468050 0.765096 0.141964
H12   H     H_    0.748299 0.649564 0.112902 0.125546
H13   H     H_    0.336224 0.685999 0.011223 0.146230
H14   H     H_    0.631414 0.737733 0.860150 0.130234
H15   H     H_    0.690072 0.199030 0.628084 0.244435
H16   H     H_    0.788361 0.057576 0.616519 0.217526
H17   H     H_    0.793290 0.166454 0.534502 0.250293
H18   H     H_    0.689091 0.877962 0.567637 0.162205
H19   H     H_    0.189899 0.115367 0.453208 0.201527
H20   H     H_    0.345856 0.115462 0.380177 0.196514
H21   H     H_    0.188098 0.891518 0.451824 0.203104
H22   H     H_    0.344259 0.890355 0.378956 0.201038
H23   H     H_    0.884842 0.340000 0.425931 0.145840
H24   H     H_    0.137857 0.340377 0.425639 0.142570
N1    N     N_R   0.857140 0.500860 0.500530 -0.103726
N2    N     N_R   0.142780 0.500820 0.500530 -0.104668
O1    O     O_R   0.385310 0.683210 0.499990 -0.612243
O2    O     O_R   0.614650 0.683240 0.500000 -0.621996
O3    O     O_R   0.371780 0.500000 0.615800 -0.616663
O4    O     O_R   0.601120 0.500040 0.615800 -0.620494
O5    O     O_R   0.385350 0.316760 0.500000 -0.616390
O6    O     O_R   0.614690 0.316790 0.500010 -0.613557
O7    O     O_R   0.398880 0.499960 0.384200 -0.616827
O8    O     O_R   0.628220 0.500000 0.384200 -0.616123
Zn1   Zn    Zn3+2 0.346870 0.499980 0.499990 0.941758
Zn2   Zn    Zn3+2 0.653130 0.500020 0.500010 0.935657

loop_
_geom_bond_atom_site_label_1
_geom_bond_atom_site_label_2
_ccdc_geom_bond_type
C27   H15   S    
C27   H16   S    
C14   H23   S    
C31   C33   S    
N1    Zn2   S    
C6    C7    A    
C3    C9    A    
C19   H5    S    
C13   C17   A    
N2    Zn1   S    
C9    C10   S    
C20   O8    A    
O7    Zn1   S    
C27   H17   S    
O3    Zn1   S    
C30   C31   A    
C11   H22   S    
C33   H8    S    
C32   C33   D    
C24   H14   S    
C25   C32   S    
C17   C18   S    
O1    Zn1   S    
C30   H12   S    
C10   H19   S    
C7    C8    A    
C8    C16   S    
C32   H13   S    
C21   C22   A    
C4    C21   S    
C15   H24   S    
C4    O4    A    
C28   H3    S    
C29   C30   A    
C11   H21   S    
C19   H6    S    
C17   N2    A    
C2    C29   A    
O6    Zn2   S    
O5    Zn1   S    
C29   H7    S    
C20   O7    A    
C16   O6    A    
C18   H4    S    
C5    C6    A    
C22   H1    S    
C22   C24   A    
C3    C11   S    
C10   C11   S    
C13   C19   S    
C2    C20   S    
C23   C31   A    
C4    O3    A    
C1    C5    S    
C7    C27   S    
C24   C25   A    
C26   H9    S    
C12   H11   S    
C18   C19   S    
C18   H2    S    
C1    O1    A    
O2    Zn2   S    
C10   H20   S    
C14   C15   A    
C2    C28   A    
C13   N1    A    
C16   O5    A    
C3    C5    A    
C25   C26   A    
C23   C28   A    
C23   H10   S    
C15   N2    A    
C12   C21   A    
O4    Zn2   S    
C14   N1    A    
C12   C26   A    
C8    C9    A    
O8    Zn2   S    
C6    H18   S    
C1    O2    A    
