data_mof_unit_6735.cif
_audit_creation_date              2012-10-26T18:26:10-0400
_audit_creation_method            fapswitch 2.2
_symmetry_space_group_name_H-M    P1
_symmetry_Int_Tables_number       1
_space_group_crystal_system       triclinic
_cell_length_a                    13.825698
_cell_length_b                    8.686426
_cell_length_c                    7.500056
_cell_angle_alpha                 103.357023
_cell_angle_beta                  89.033846
_cell_angle_gamma                 93.297352
_cell_volume                      874.904089601

loop_
_atom_site_label
_atom_site_type_symbol
_atom_type_description
_atom_site_fract_x
_atom_site_fract_y
_atom_site_fract_z
_atom_type_partial_charge
C1    C     C_R   0.495999 0.199841 0.453846 0.520889
C2    C     C_1   0.869420 0.473139 0.433834 0.050507
C3    C     C_2   0.490796 0.031608 0.429559 -0.162778
C4    C     C_2   0.507092 0.968512 0.571192 -0.160528
C5    C     C_3   0.368271 0.247535 0.982357 0.074458
C6    C     C_3   0.292664 0.163772 0.841092 -0.272948
C7    C     C_3   0.267858 0.994254 0.858541 -0.431719
C8    C     C_3   0.618711 0.763787 0.064929 0.061859
C9    C     C_3   0.705251 0.820265 0.962491 -0.240149
C10   C     C_3   0.714727 0.000959 0.002064 -0.463571
C11   C     C_R   0.503253 0.800192 0.546376 0.517497
C12   C     C_R   0.318909 0.504329 0.531826 0.531765
C13   C     C_R   0.681191 0.495687 0.468191 0.530661
C14   C     C_1   0.783277 0.484195 0.445667 0.036497
C15   C     C_1   0.217004 0.515478 0.554566 0.037896
C16   C     C_2   0.972698 0.460781 0.428372 0.213991
C17   C     C_2   0.027669 0.536604 0.573249 0.194628
C18   C     C_1   0.130924 0.525770 0.566950 0.069934
Cu1   Cu    Cu3+1 0.510540 0.517220 0.682700 1.060992
Cu2   Cu    Cu3+1 0.489460 0.482780 0.317300 1.048129
H1    H     H_    0.472578 0.959506 0.294554 0.113388
H2    H     H_    0.213307 0.936660 0.753651 0.198001
H3    H     H_    0.237197 0.994290 0.996400 0.207202
H4    H     H_    0.631544 0.813496 0.213198 0.141337
H5    H     H_    0.551469 0.814831 0.028879 0.123951
H6    H     H_    0.772690 0.775745 0.005691 0.247537
H7    H     H_    0.696446 0.774740 0.812956 0.210367
H8    H     H_    0.647561 0.048452 0.961925 0.146903
H9    H     H_    0.776137 0.038528 0.921739 0.212509
H10   H     H_    0.728357 0.051320 0.150207 0.148661
H11   H     H_    0.524530 0.040801 0.706505 0.119543
H12   H     H_    0.923498 0.441240 0.856317 0.383905
H13   H     H_    0.908576 0.160139 0.150201 0.352497
H14   H     H_    0.337432 0.251673 0.120577 0.185709
H15   H     H_    0.434234 0.177416 0.962810 0.116720
H16   H     H_    0.225636 0.230729 0.860969 0.226849
H17   H     H_    0.320796 0.160990 0.700813 0.171423
H18   H     H_    0.333580 0.924346 0.836775 0.144590
N1    N     N_2   0.473570 0.456830 0.042740 0.084245
N2    N     N_2   0.526430 0.543170 0.957260 0.097868
O1    O     O_R   0.506850 0.286020 0.618680 -0.488668
O2    O     O_2   0.929075 0.789627 0.727679 -0.272431
O3    O     O_3   0.893492 0.543180 0.862897 -0.500032
O4    O     O_2   0.082702 0.445767 0.128586 -0.220674
O5    O     O_2   0.087383 0.224440 0.278269 -0.299938
O6    O     O_3   0.934621 0.243319 0.088932 -0.508309
O7    O     O_3   0.389117 0.402062 0.958442 -0.450435
O8    O     O_3   0.612493 0.596551 0.035948 -0.441602
O9    O     O_R   0.493150 0.713980 0.381320 -0.504563
O10   O     O_R   0.489050 0.256940 0.310110 -0.549552
O11   O     O_R   0.510950 0.743060 0.689890 -0.539154
O12   O     O_R   0.372320 0.516630 0.676100 -0.458110
O13   O     O_R   0.627680 0.483370 0.323900 -0.458793
O14   O     O_R   0.354510 0.487550 0.367530 -0.489484
O15   O     O_R   0.645490 0.512450 0.632470 -0.481267
O16   O     O_2   0.054669 0.717043 0.914948 -0.223174
S1    S     S_3+6 0.977100 0.653427 0.774931 0.019591
S2    S     S_3+6 0.023108 0.341628 0.227952 0.015381

loop_
_geom_bond_atom_site_label_1
_geom_bond_atom_site_label_2
_ccdc_geom_bond_type
C15   C18   T    
C8    O8    S    
Cu2   O14   S    
C6    C7    S    
H13   O6    S    
C7    H2    S    
C2    C16   S    
C9    C10   S    
C10   H10   S    
O4    S2    D    
Cu1   Cu2   S    
C12   C15   S    
C13   O15   A    
C5    H14   S    
C17   C18   S    
C6    H17   S    
C16   S2    S    
C13   C14   S    
O6    S2    S    
C4    C11   S    
C8    H5    S    
C5    O7    S    
C10   H9    S    
Cu2   O9    S    
C11   O9    A    
C5    H15   S    
O2    S1    D    
C1    O1    A    
C8    H4    S    
C7    H18   S    
C6    H16   S    
C9    H6    S    
C13   O13   A    
C5    C6    S    
C2    C14   T    
C7    H3    S    
O5    S2    D    
C3    H1    S    
C4    H11   S    
C11   O11   A    
Cu1   N2    S    
O3    S1    S    
Cu1   O15   S    
C3    C4    D    
Cu1   O11   S    
O16   S1    D    
C9    H7    S    
N1    O7    S    
C1    O10   A    
C10   H8    S    
N1    N2    D    
N2    O8    S    
Cu2   N1    S    
C8    C9    S    
Cu2   O10   S    
C12   O12   A    
Cu1   O12   S    
H12   O3    S    
C12   O14   A    
Cu1   O1    S    
C16   C17   D    
C17   S1    S    
Cu2   O13   S    
C1    C3    S    
