data_mof_unit_57063.cif
_audit_creation_date              2012-12-11T17:01:24-0500
_audit_creation_method            fapswitch 2.2
_symmetry_space_group_name_H-M    P1
_symmetry_Int_Tables_number       1
_space_group_crystal_system       triclinic
_cell_length_a                    19.390912
_cell_length_b                    7.100899
_cell_length_c                    17.597542
_cell_angle_alpha                 90.0
_cell_angle_beta                  108.547447
_cell_angle_gamma                 89.999986
_cell_volume                      2297.20453528

loop_
_atom_site_label
_atom_site_type_symbol
_atom_type_description
_atom_site_fract_x
_atom_site_fract_y
_atom_site_fract_z
_atom_type_partial_charge
O1    O     O_R   0.413720 0.494330 0.415730 -0.528920
O2    O     O_R   0.586280 0.994330 0.584270 -0.528918
O3    O     O_R   0.560210 0.819300 0.430070 -0.534567
O4    O     O_R   0.439790 0.319300 0.569930 -0.534569
C1    C     C_R   0.581319 0.655273 0.414263 0.750386
C2    C     C_R   0.418681 0.155273 0.585736 0.750378
O5    O     O_R   0.412670 0.823730 0.406310 -0.551852
O6    O     O_R   0.587330 0.323730 0.593690 -0.551852
O7    O     O_R   0.437690 0.998790 0.560340 -0.548485
O8    O     O_R   0.562310 0.498790 0.439660 -0.548484
C3    C     C_R   0.385234 0.655228 0.383612 0.701043
C4    C     C_R   0.614766 0.155228 0.616388 0.701047
O9    O     O_3   0.508380 0.662350 0.550560 -0.381132
O10   O     O_3   0.491620 0.162350 0.449440 -0.381133
V1    V     V_3+5 0.498450 0.935370 0.490620 1.417415
V2    V     V_3+5 0.501550 0.435370 0.509380 1.417414
C5    C     C_R   0.733736 0.997385 0.690240 0.181752
C6    C     C_R   0.266264 0.497385 0.309760 0.181755
C7    C     C_R   0.685005 0.147553 0.682523 -0.140503
C8    C     C_R   0.314995 0.647554 0.317477 -0.140504
C9    C     C_R   0.707555 0.296815 0.737763 -0.211930
C10   C     C_R   0.292445 0.796815 0.262237 -0.211929
H1    H     H_    0.672987 0.418485 0.733460 0.130350
H2    H     H_    0.327013 0.918485 0.266540 0.130350
C11   C     C_R   0.773079 0.285743 0.802203 -0.178070
C12   C     C_R   0.226921 0.785743 0.197797 -0.178070
H3    H     H_    0.786833 0.399847 0.845147 0.131764
H4    H     H_    0.213167 0.899847 0.154853 0.131763
C13   C     C_R   0.817777 0.124216 0.813907 -0.106440
C14   C     C_R   0.182223 0.624216 0.186092 -0.106442
C15   C     C_R   0.797874 0.985295 0.754437 0.086832
C16   C     C_R   0.202126 0.485295 0.245563 0.086835
C17   C     C_3   0.791801 0.776679 0.760384 -0.481438
C18   C     C_3   0.208199 0.276679 0.239616 -0.481433
C19   C     C_3   0.721778 0.789209 0.689377 -0.192692
C20   C     C_3   0.278222 0.289209 0.310623 -0.192694
H5    H     H_    0.782325 0.733935 0.817005 0.165229
H6    H     H_    0.217676 0.233935 0.182995 0.165227
H7    H     H_    0.837330 0.701988 0.747604 0.180309
H8    H     H_    0.162670 0.201988 0.252396 0.180311
H9    H     H_    0.672121 0.750326 0.704416 0.105500
H10   H     H_    0.327880 0.250327 0.295585 0.105498
C21   C     C_R   0.325360 0.988555 0.632668 -0.195532
C22   C     C_R   0.674639 0.488554 0.367332 -0.195532
C23   C     C_R   0.369494 0.147449 0.635299 -0.056539
C24   C     C_R   0.630506 0.647449 0.364700 -0.056539
C25   C     C_R   0.365339 0.301029 0.684323 -0.207597
C26   C     C_R   0.634661 0.801029 0.315677 -0.207598
C27   C     C_R   0.318267 0.296387 0.730588 0.090596
C28   C     C_R   0.681733 0.796387 0.269412 0.090596
C29   C     C_R   0.273645 0.137482 0.726903 0.055549
C30   C     C_R   0.726355 0.637482 0.273096 0.055549
C31   C     C_R   0.277046 0.983336 0.677542 0.084940
C32   C     C_R   0.722954 0.483335 0.322458 0.084939
C33   C     C_R   0.314994 0.447996 0.780507 -0.188435
C34   C     C_R   0.685006 0.947996 0.219492 -0.188435
C35   C     C_R   0.267373 0.443285 0.825822 -0.192024
C36   C     C_R   0.732627 0.943285 0.174178 -0.192024
C37   C     C_R   0.222182 0.286834 0.822060 0.091152
C38   C     C_R   0.777818 0.786834 0.177940 0.091152
C39   C     C_R   0.225526 0.132759 0.772651 0.057052
C40   C     C_R   0.774474 0.632759 0.227349 0.057052
C41   C     C_R   0.180920 0.973848 0.769003 0.086575
C42   C     C_R   0.819079 0.473848 0.230997 0.086575
C43   C     C_R   0.184117 0.822359 0.718978 -0.180919
C44   C     C_R   0.815883 0.322359 0.281022 -0.180918
C45   C     C_R   0.231763 0.827031 0.673675 -0.179054
C46   C     C_R   0.768237 0.327031 0.326324 -0.179055
C47   C     C_R   0.174095 0.281353 0.867190 -0.219382
C48   C     C_R   0.825905 0.781353 0.132810 -0.219381
C49   C     C_R   0.130091 0.122266 0.864818 -0.081336
C50   C     C_R   0.869909 0.622266 0.135182 -0.081336
C51   C     C_R   0.134015 0.968986 0.815488 -0.216539
C52   C     C_R   0.865985 0.468987 0.184512 -0.216539
H11   H     H_    0.327653 0.870206 0.594611 0.129400
H12   H     H_    0.672346 0.370205 0.405389 0.129401
H13   H     H_    0.399215 0.423931 0.687020 0.121918
H14   H     H_    0.600784 0.923931 0.312980 0.121918
H15   H     H_    0.349068 0.570852 0.784242 0.131662
H16   H     H_    0.650932 0.070851 0.215757 0.131662
H17   H     H_    0.265686 0.562573 0.863601 0.131523
H18   H     H_    0.734313 0.062573 0.136399 0.131523
H19   H     H_    0.171942 0.399716 0.905292 0.125572
H20   H     H_    0.828058 0.899716 0.094708 0.125572
H21   H     H_    0.100151 0.846053 0.812754 0.131880
H22   H     H_    0.899849 0.346053 0.187246 0.131880
H23   H     H_    0.233452 0.707748 0.635893 0.145985
H24   H     H_    0.766548 0.207748 0.364106 0.145985
O11   O     O_R   0.937800 0.775460 0.060470 -0.537658
O12   O     O_R   0.062200 0.275460 0.939530 -0.537658
O13   O     O_R   0.087350 0.441340 0.093710 -0.538083
O14   O     O_R   0.912650 0.941340 0.906290 -0.538083
C53   C     C_R   0.114866 0.610332 0.116267 0.697008
C54   C     C_R   0.885134 0.110332 0.883732 0.697009
O15   O     O_R   0.939820 0.446010 0.069950 -0.544298
O16   O     O_R   0.060180 0.946010 0.930050 -0.544299
O17   O     O_R   0.913690 0.271230 0.915700 -0.539158
O18   O     O_R   0.086310 0.771230 0.084300 -0.539158
C55   C     C_R   0.918837 0.614380 0.085217 0.704335
C56   C     C_R   0.081163 0.114380 0.914782 0.704334
O19   O     O_3   0.991670 0.603050 0.949510 -0.372940
O20   O     O_3   0.008330 0.103050 0.050490 -0.372940
V3    V     V_3+5 0.001550 0.329940 0.009370 1.397960
V4    V     V_3+5 0.998450 0.829940 0.990630 1.397960
H25   H     H_    0.150030 0.699524 0.715227 0.139305
H26   H     H_    0.849969 0.199524 0.284773 0.139305
C57   C     C_2   0.727354 0.692944 0.615180 0.417678
H27   H     H_    0.730082 0.540529 0.613672 0.051234
O21   O     O_2   0.728523 0.783179 0.556505 -0.536384
C58   C     C_2   0.272646 0.192944 0.384820 0.417681
H28   H     H_    0.269923 0.040528 0.386330 0.051232
O22   O     O_2   0.271470 0.283181 0.443493 -0.536383

loop_
_geom_bond_atom_site_label_1
_geom_bond_atom_site_label_2
_ccdc_geom_bond_type
C44   C46   A    
C41   C43   A    
C2    C23   S    
C20   H10   S    
O1    C3    A    
O2    C4    A    
C2    O7    A    
C25   C27   A    
O5    C3    A    
C17   H7    S    
O11   C55   A    
C18   H8    S    
C7    C9    A    
C14   C53   S    
C36   H18   S    
C13   C54   S    
O15   C55   A    
C35   C37   A    
C32   C46   A    
C36   C38   A    
C6    C8    A    
C38   C40   A    
C43   H25   S    
C47   C49   A    
C58   H28   S    
C40   C42   A    
C17   C19   S    
C21   C31   A    
C22   C24   A    
C27   C29   A    
C29   C39   A    
C28   C30   A    
C57   H27   S    
C15   C17   S    
C48   H20   S    
C26   H14   S    
C30   C32   A    
O5    V1    S    
O6    V2    S    
C11   C13   A    
C57   O21   D    
C44   H26   S    
C19   H9    S    
O12   C56   A    
O15   V3    S    
C58   O22   D    
C23   C25   A    
C21   H11   S    
C24   C26   A    
C3    C8    S    
C37   C39   A    
C50   C52   A    
C49   C51   A    
C41   C51   A    
C54   O17   A    
C43   C45   A    
C27   C33   A    
C28   C34   A    
C29   C31   A    
C42   C44   A    
O4    V2    S    
C47   H19   S    
O13   C53   A    
C33   H15   S    
C38   C48   A    
O6    C4    A    
C39   C41   A    
O1    V2    S    
C52   H22   S    
O20   V4    S    
O2    V1    S    
C21   C23   A    
C51   H21   S    
O17   V3    S    
C37   C47   A    
O4    C2    A    
C8    C10   A    
C12   C14   A    
O19   V4    S    
C33   C35   A    
O11   V4    S    
C20   C58   S    
C5    C15   A    
C10   H2    S    
C6    C16   A    
C25   H13   S    
O3    V1    S    
C49   C56   S    
O16   V4    S    
C9    C11   A    
C18   H6    S    
C45   H23   S    
O13   V3    S    
O3    C1    A    
C48   C50   A    
C11   H3    S    
C1    C24   S    
C12   H4    S    
C34   H16   S    
C9    H1    S    
O7    V1    S    
C1    O8    A    
C13   C15   A    
C30   C40   A    
C14   C16   A    
O14   C54   A    
C46   H24   S    
O16   C56   A    
C4    C7    S    
C26   C28   A    
C5    C7    A    
C34   C36   A    
C18   C20   S    
O20   V3    S    
C31   C45   A    
C35   H17   S    
C17   H5    S    
O12   V3    S    
C19   C57   S    
O14   V4    S    
C22   C32   A    
O19   V3    S    
C10   C12   A    
O9    V2    S    
C42   C52   A    
O10   V1    S    
O8    V2    S    
C5    C19   S    
C22   H12   S    
C6    C20   S    
C53   O18   A    
O18   V4    S    
C16   C18   S    
C50   C55   S    
