data_mof_unit_44215.cif
_audit_creation_date              2013-03-05T15:55:02-0500
_audit_creation_method            fapswitch 2.2
_symmetry_space_group_name_H-M    P1
_symmetry_Int_Tables_number       1
_space_group_crystal_system       triclinic
_cell_length_a                    6.93202
_cell_length_b                    14.549905
_cell_length_c                    16.181344
_cell_angle_alpha                 90.445076
_cell_angle_beta                  90.238656
_cell_angle_gamma                 90.04953
_cell_volume                      1631.99006252

loop_
_atom_site_label
_atom_site_type_symbol
_atom_site_description
_atom_site_fract_x
_atom_site_fract_y
_atom_site_fract_z
_atom_type_partial_charge
O1    O     O_R   0.505810 0.583360 0.413880 -0.600529
O2    O     O_R   0.175870 0.595480 0.585520 -0.584043
O3    O     O_R   0.005540 0.416640 0.586120 -0.598582
C1    C     C_R   0.345061 0.615449 0.616322 1.007929
O4    O     O_R   0.176100 0.594390 0.414490 -0.604736
O5    O     O_R   0.005770 0.415540 0.413870 -0.602000
C2    C     C_R   0.344967 0.616235 0.385648 0.943699
O6    O     O_R   0.505580 0.584460 0.586130 -0.569272
O7    O     O_3   0.339190 0.441320 0.500000 -0.280104
V1    V     V_3+5 0.064350 0.510890 0.500000 1.205582
O8    O     O_R   0.676050 0.404520 0.414480 -0.607421
C3    C     C_R   0.844690 0.382402 0.385645 0.937762
O9    O     O_R   0.675830 0.405610 0.585510 -0.583140
C4    C     C_R   0.845598 0.383160 0.613318 1.117673
V2    V     V_3+5 0.564340 0.489110 0.500000 1.212600
O10   O     O_3   0.839370 0.558680 0.500000 -0.273633
C5    C     C_2   0.724325 0.191175 0.769943 0.417935
C6    C     C_2   0.879357 0.180471 0.821032 -0.543544
H1    H     H_    0.001216 0.226899 0.817042 0.190553
C7    C     C_2   0.710493 0.268358 0.709736 -0.144550
C8    C     C_2   0.863471 0.312393 0.677969 -0.462356
H2    H     H_    0.567684 0.285195 0.686540 0.185707
H3    H     H_    0.008599 0.293726 0.696567 0.182723
C9    C     C_R   0.026150 0.253571 0.196229 0.384903
C10   C     C_R   0.011754 0.316916 0.261760 -0.219710
H4    H     H_    0.122602 0.368989 0.268938 0.153426
C11   C     C_R   0.855626 0.314722 0.316708 -0.177803
C12   C     C_R   0.711989 0.247851 0.304926 -0.119019
H5    H     H_    0.590033 0.244365 0.346412 0.138638
C13   C     C_R   0.726532 0.183284 0.240589 -0.016115
H6    H     H_    0.615705 0.131122 0.234627 0.171933
C14   C     C_R   0.882745 0.184923 0.185232 -0.299426
C15   C     C_R   0.209676 0.745583 0.700645 -0.080351
H7    H     H_    0.086514 0.747763 0.659299 0.153610
C16   C     C_R   0.219453 0.809227 0.765967 -0.062962
H8    H     H_    0.102997 0.858119 0.773568 0.136604
C17   C     C_R   0.379305 0.811250 0.819636 -0.173401
C18   C     C_R   0.527307 0.746886 0.807532 -0.233866
H9    H     H_    0.648687 0.745745 0.849915 0.165894
C19   C     C_R   0.515557 0.679992 0.744350 0.391274
C20   C     C_R   0.357136 0.680590 0.688141 -0.306710
C21   C     C_R   0.208864 0.749928 0.307276 -0.244976
H10   H     H_    0.087827 0.750901 0.349423 0.170642
C22   C     C_R   0.221424 0.817740 0.245888 0.390308
C23   C     C_R   0.379599 0.817354 0.190087 -0.298039
C24   C     C_R   0.526233 0.751787 0.201349 -0.080375
H11   H     H_    0.649125 0.749763 0.160256 0.151265
C25   C     C_R   0.515694 0.687217 0.264946 -0.088465
H12   H     H_    0.631620 0.637932 0.271669 0.128644
C26   C     C_R   0.355870 0.684833 0.318034 -0.181214
O11   O     O_R   0.230120 0.912300 0.917180 -0.615109
O12   O     O_R   0.559740 0.902430 0.088770 -0.595675
O13   O     O_R   0.729930 0.081310 0.089370 -0.588341
C27   C     C_R   0.391026 0.882616 0.119346 0.986475
O14   O     O_R   0.559840 0.901330 0.917750 -0.594890
O15   O     O_R   0.730030 0.080210 0.917120 -0.568912
C28   C     C_R   0.390578 0.879418 0.888582 0.997829
O16   O     O_R   0.230020 0.913400 0.089430 -0.576784
O17   O     O_3   0.396460 0.055470 0.003290 -0.233017
V3    V     V_3+5 0.671360 0.985960 0.003250 1.261921
O18   O     O_R   0.059740 0.091300 0.917690 -0.579050
C29   C     C_R   0.890359 0.111309 0.887821 1.066922
O19   O     O_R   0.059640 0.092400 0.088720 -0.544215
C30   C     C_R   0.891322 0.115626 0.116915 1.022804
V4    V     V_3+5 0.171350 0.007820 0.003190 1.297009
O20   O     O_3   0.896380 0.938200 0.003220 -0.296875
N1    N     N_R   0.565930 0.127157 0.771349 0.242863
O21   O     O_R   0.389498 0.156935 0.765563 -0.419689
O22   O     O_R   0.598686 0.039572 0.762451 -0.417538
N2    N     N_R   0.658530 0.608655 0.742046 0.232388
O23   O     O_R   0.837898 0.627858 0.758775 -0.415792
O24   O     O_R   0.604750 0.522968 0.739769 -0.400377
N3    N     N_R   0.079373 0.889565 0.244919 0.229385
O25   O     O_R   0.900065 0.870889 0.261355 -0.425078
O26   O     O_R   0.134122 0.975113 0.243660 -0.412246
N4    N     N_R   0.182828 0.262998 0.139641 0.225478
O27   O     O_R   0.197006 0.337361 0.095984 -0.389982
O28   O     O_R   0.331638 0.209176 0.146006 -0.392463

loop_
_geom_bond_atom_site_label_1
_geom_bond_atom_site_label_2
_geom_bond_distance
_ccdc_geom_bond_type
C18   C19   1.408156 A    
O19   V4    2.003411 S    
N3    O25   1.301087 A    
C16   H8    1.083205 S    
C1    O6    1.296958 A    
C23   C24   1.406897 A    
C19   N2    1.436131 S    
C4    C8    1.478450 S    
C12   H5    1.083106 S    
C16   C17   1.405155 A    
N4    O28   1.299907 A    
O5    C3    1.295874 A    
C13   H6    1.082940 S    
O13   C30   1.300393 A    
C1    C20   1.495920 S    
V2    O10   2.157796 S    
C5    C7    1.495274 S    
C6    H1    1.083615 S    
O11   V4    2.002541 S    
O12   V3    2.006036 S    
O8    V2    2.003388 S    
N2    O23   1.301064 A    
O11   C28   1.296924 A    
O7    V1    2.158177 S    
C25   C26   1.405324 A    
V3    O20   1.708179 S    
O17   V3    2.158135 S    
O9    C4    1.301019 A    
N3    O26   1.301310 A    
C22   N3    1.436630 S    
C21   C22   1.408400 A    
O13   V3    1.998939 S    
O12   C27   1.304669 A    
C15   H7    1.083125 S    
C8    H3    1.084275 S    
C24   C25   1.400886 A    
C5    N1    1.439617 S    
C3    C11   1.484434 S    
N1    O21   1.301110 A    
N4    O27   1.300623 A    
C14   C30   1.491822 S    
O4    C2    1.302043 A    
C6    C29   1.484170 S    
C10   H4    1.083913 S    
O15   V3    2.005441 S    
N1    O22   1.301604 A    
O2    C1    1.304103 A    
C9    C14   1.418296 A    
C17   C18   1.403013 A    
O16   V4    2.006518 S    
C5    C6    1.362909 D    
C9    C10   1.403453 A    
O3    C4    1.291011 A    
C21   C26   1.403052 A    
O1    V2    2.003261 S    
C25   H12   1.083192 S    
C7    H2    1.086123 S    
C23   C27   1.495240 S    
O6    V2    2.002166 S    
O9    V2    2.001669 S    
O15   C29   1.292902 A    
C21   H10   1.083488 S    
O2    V1    1.997597 S    
C22   C23   1.423290 A    
C27   O16   1.296290 A    
C24   H11   1.083138 S    
C19   C20   1.423077 A    
O1    C2    1.296424 A    
C9    N4    1.430683 S    
C2    C26   1.488780 S    
O5    V1    1.999064 S    
O8    C3    1.300281 A    
C10   C11   1.404030 A    
C15   C20   1.407296 A    
O14   C28   1.301349 A    
O7    V2    1.708081 S    
O4    V1    2.006008 S    
O3    V1    2.005526 S    
V1    O10   1.708103 S    
O17   V4    1.706992 S    
C13   C14   1.408510 A    
C18   H9    1.083499 S    
C12   C13   1.400856 A    
C15   C16   1.401225 A    
O18   C29   1.301937 A    
O19   C30   1.298634 A    
O18   V4    2.001701 S    
C7    C8    1.344532 D    
V4    O20   2.157773 S    
C11   C12   1.402948 A    
N2    O24   1.301188 A    
O14   V3    1.997732 S    
C17   C28   1.488769 S    
