data_mof_unit_51125.cif
_audit_creation_date              2012-12-11T15:22:29-0500
_audit_creation_method            fapswitch 2.2
_symmetry_space_group_name_H-M    P1
_symmetry_Int_Tables_number       1
_space_group_crystal_system       triclinic
_cell_length_a                    22.53391
_cell_length_b                    12.995004
_cell_length_c                    26.956366
_cell_angle_alpha                 89.971818
_cell_angle_beta                  90.569364
_cell_angle_gamma                 89.964498
_cell_volume                      7893.19326325

loop_
_atom_site_label
_atom_site_type_symbol
_atom_type_description
_atom_site_fract_x
_atom_site_fract_y
_atom_site_fract_z
_atom_type_partial_charge
C1    C     C_R   0.720793 0.345796 0.178531 0.543342
C2    C     C_R   0.279234 0.345724 0.821525 0.540074
C3    C     C_R   0.220714 0.845643 0.178425 0.539040
C4    C     C_R   0.794226 0.807289 0.826842 0.552332
C5    C     C_R   0.465416 0.159953 0.875045 0.000197
C6    C     C_R   0.522145 0.167154 0.130223 -0.003445
C7    C     C_R   0.966171 0.659253 0.874663 -0.004238
C8    C     C_R   0.023628 0.667845 0.129662 -0.002520
C9    C     C_R   0.526768 0.258921 0.102794 -0.131645
C10   C     C_R   0.482759 0.252463 0.897714 -0.134313
C11   C     C_R   0.031993 0.757818 0.101476 -0.134520
C12   C     C_R   0.989271 0.748941 0.896288 -0.151877
C13   C     C_R   0.512396 0.260101 0.052288 0.012096
C14   C     C_R   0.492519 0.255867 0.949137 0.015165
C15   C     C_R   0.018221 0.758759 0.050904 0.009209
C16   C     C_R   0.998868 0.753093 0.947734 0.008889
C17   C     C_R   0.492353 0.168828 0.029441 0.063007
C18   C     C_R   0.483301 0.166323 0.977888 0.061830
C19   C     C_R   0.994255 0.669610 0.028816 0.060782
C20   C     C_R   0.984986 0.666571 0.977310 0.059991
C21   C     C_R   0.520883 0.349121 0.023703 -0.131635
C22   C     C_R   0.510613 0.347189 0.972485 -0.130693
C23   C     C_R   0.031013 0.845103 0.021576 -0.136795
C24   C     C_R   0.021227 0.842371 0.970313 -0.137044
C25   C     C_R   0.744845 0.948015 0.132395 0.036056
C26   C     C_R   0.265264 0.977612 0.873796 0.052789
C27   C     C_R   0.235299 0.477252 0.126447 0.056638
C28   C     C_R   0.764493 0.475953 0.873570 0.050516
C29   C     C_R   0.792817 0.984362 0.104390 -0.172648
C30   C     C_R   0.249398 0.057680 0.905860 -0.173225
C31   C     C_R   0.248937 0.558228 0.094140 -0.170676
C32   C     C_R   0.743584 0.552933 0.905241 -0.176146
C33   C     C_R   0.802156 0.949365 0.056586 -0.138315
C34   C     C_R   0.251599 0.044384 0.956637 -0.141355
C35   C     C_R   0.247515 0.544000 0.043406 -0.141906
C36   C     C_R   0.746822 0.541543 0.956009 -0.139426
C37   C     C_R   0.764634 0.875227 0.035572 -0.004881
C38   C     C_R   0.267512 0.949098 0.976812 -0.002787
C39   C     C_R   0.234397 0.447220 0.023572 -0.004390
C40   C     C_R   0.767082 0.449317 0.976813 -0.003128
C41   C     C_R   0.718902 0.833171 0.064173 -0.106418
C42   C     C_R   0.284395 0.868385 0.945126 -0.115435
C43   C     C_R   0.220078 0.365402 0.055569 -0.111037
C44   C     C_R   0.787908 0.370723 0.945458 -0.117127
C45   C     C_R   0.553118 0.157788 0.178030 0.541029
C46   C     C_R   0.444438 0.156696 0.823404 0.544412
C47   C     C_R   0.053432 0.657861 0.177879 0.541954
C48   C     C_R   0.944889 0.656656 0.823158 0.533475
C49   C     C_R   0.707641 0.870710 0.112250 0.258387
C50   C     C_R   0.285486 0.883170 0.893132 0.259346
C51   C     C_R   0.218392 0.380721 0.107503 0.261874
C52   C     C_R   0.789071 0.385097 0.893417 0.260030
C53   C     C_R   0.721123 0.842132 0.951427 -0.129067
C54   C     C_R   0.301976 0.873365 0.057713 -0.121165
C55   C     C_R   0.200235 0.368775 0.943329 -0.122353
C56   C     C_R   0.801937 0.373700 0.057833 -0.117802
C57   C     C_R   0.727852 0.829816 0.900338 -0.133298
C58   C     C_R   0.291506 0.850907 0.107537 -0.139788
C59   C     C_R   0.209897 0.347330 0.893319 -0.137822
C60   C     C_R   0.791416 0.350577 0.107576 -0.131049
C61   C     C_R   0.834650 0.829424 0.911248 -0.132042
C62   C     C_R   0.200900 0.951498 0.103853 -0.124207
C63   C     C_R   0.297751 0.454917 0.895251 -0.116558
C64   C     C_R   0.701460 0.452897 0.104449 -0.118526
C65   C     C_R   0.828075 0.840069 0.962196 -0.114073
C66   C     C_R   0.211115 0.973265 0.054394 -0.116515
C67   C     C_R   0.288209 0.476058 0.944913 -0.111894
C68   C     C_R   0.711259 0.474109 0.054918 -0.113484
C69   C     C_R   0.771262 0.848468 0.982721 0.032978
C70   C     C_R   0.260937 0.932567 0.030502 0.048471
C71   C     C_R   0.240333 0.431080 0.969788 0.044566
C72   C     C_R   0.760893 0.433167 0.030696 0.046912
C73   C     C_R   0.784857 0.824157 0.879965 0.020327
C74   C     C_R   0.239756 0.887103 0.130457 0.026367
C75   C     C_R   0.260117 0.387105 0.869483 0.025528
C76   C     C_R   0.740003 0.387524 0.130724 0.025352
C77   C     C_R   0.521445 0.173956 0.367938 -0.024720
C78   C     C_R   0.466215 0.166844 0.626141 -0.007651
C79   C     C_R   0.024005 0.673372 0.369243 -0.020753
C80   C     C_R   0.974206 0.668343 0.629462 -0.011659
C81   C     C_R   0.532447 0.261544 0.397720 0.244089
C82   C     C_R   0.468192 0.262161 0.601207 0.239720
C83   C     C_R   0.033047 0.764152 0.397250 0.246855
C84   C     C_R   0.977421 0.763504 0.604540 0.232466
C85   C     C_R   0.517715 0.259234 0.447652 -0.171488
C86   C     C_R   0.470002 0.263641 0.549319 -0.147313
C87   C     C_R   0.024064 0.762228 0.448231 -0.153251
C88   C     C_R   0.983265 0.764762 0.552946 -0.141032
C89   C     C_R   0.731727 0.000959 0.179598 0.563162
C90   C     C_R   0.269272 0.003872 0.821200 0.579085
C91   C     C_R   0.230886 0.503607 0.178945 0.581100
C92   C     C_R   0.769166 0.503586 0.821129 0.569860
C93   C     C_R   0.483164 0.179070 0.466862 0.054578
C94   C     C_R   0.474964 0.172546 0.521590 0.064701
C95   C     C_R   0.997133 0.677215 0.470905 0.067196
C96   C     C_R   0.992471 0.673581 0.526082 0.069054
C97   C     C_R   0.459826 0.104900 0.433632 0.295642
C98   C     C_R   0.478485 0.077723 0.547030 0.250352
C99   C     C_R   0.975240 0.597044 0.440293 0.294691
C100  C     C_R   0.999670 0.580631 0.552598 0.275066
C101  C     C_R   0.482795 0.098288 0.385345 -0.190682
C102  C     C_R   0.473899 0.075948 0.598854 -0.191823
C103  C     C_R   0.992384 0.592419 0.390341 -0.184959
C104  C     C_R   0.988919 0.578456 0.603743 -0.182631
C105  C     C_R   0.741068 0.961943 0.371548 0.025476
C106  C     C_R   0.259366 0.961706 0.628714 0.033775
C107  C     C_R   0.241291 0.459578 0.371078 0.028055
C108  C     C_R   0.760755 0.465499 0.628011 0.038971
C109  C     C_R   0.736192 0.857358 0.383296 -0.152004
C110  C     C_R   0.247625 0.858058 0.618340 -0.161535
C111  C     C_R   0.242610 0.353778 0.381157 -0.157670
C112  C     C_R   0.734528 0.371191 0.615724 -0.161715
C113  C     C_R   0.742868 0.826440 0.432646 -0.085657
C114  C     C_R   0.240103 0.827125 0.569030 -0.092866
C115  C     C_R   0.250942 0.320395 0.430053 -0.080895
C116  C     C_R   0.727212 0.345166 0.565797 -0.084252
C117  C     C_R   0.752349 0.900925 0.469429 0.093004
C118  C     C_R   0.245618 0.900139 0.531097 0.079551
C119  C     C_R   0.256612 0.393527 0.468055 0.087832
C120  C     C_R   0.745819 0.414405 0.529251 0.082008
C121  C     C_R   0.756487 0.004991 0.457242 -0.116541
C122  C     C_R   0.257357 0.003335 0.542076 -0.100341
C123  C     C_R   0.253169 0.498727 0.457525 -0.108433
C124  C     C_R   0.771738 0.508405 0.542055 -0.127619
C125  C     C_R   0.751221 0.035155 0.408557 -0.124216
C126  C     C_R   0.264274 0.033873 0.590640 -0.104398
C127  C     C_R   0.246168 0.531484 0.409310 -0.115086
C128  C     C_R   0.779457 0.533646 0.591288 -0.103617
C129  C     C_R   0.814509 0.887253 0.543340 0.219624
C130  C     C_R   0.189425 0.918718 0.454506 0.233204
C131  C     C_R   0.315739 0.403767 0.544026 0.221618
C132  C     C_R   0.695857 0.447491 0.450135 0.229356
C133  C     C_R   0.720239 0.345243 0.322761 0.555500
C134  C     C_R   0.281071 0.342198 0.676172 0.550693
C135  C     C_R   0.219715 0.843880 0.323339 0.555293
C136  C     C_R   0.780667 0.843334 0.676706 0.556364
C137  C     C_R   0.819736 0.883997 0.594617 -0.144121
C138  C     C_R   0.188369 0.920188 0.402672 -0.121702
C139  C     C_R   0.317439 0.405195 0.595720 -0.135732
C140  C     C_R   0.694593 0.439845 0.398668 -0.103160
C141  C     C_R   0.714101 0.852109 0.602166 -0.130961
C142  C     C_R   0.280368 0.822782 0.400817 -0.140554
C143  C     C_R   0.221258 0.321110 0.598356 -0.148447
C144  C     C_R   0.779014 0.323818 0.400909 -0.146319
C145  C     C_R   0.707937 0.859909 0.550658 0.218553
C146  C     C_R   0.284105 0.826280 0.452581 0.208746
C147  C     C_R   0.218447 0.322463 0.546502 0.214040
C148  C     C_R   0.781211 0.331123 0.452582 0.207589
C149  C     C_R   0.758651 0.874154 0.521379 0.039860
C150  C     C_R   0.238050 0.874159 0.479019 0.050199
C151  C     C_R   0.265404 0.365027 0.519772 0.062170
C152  C     C_R   0.738932 0.392323 0.476867 0.045471
C153  C     C_R   0.770013 0.865847 0.624341 -0.074451
C154  C     C_R   0.232590 0.869789 0.375480 -0.068939
C155  C     C_R   0.270488 0.363748 0.623352 -0.072741
C156  C     C_R   0.734839 0.376408 0.373733 -0.066277
C157  C     C_R   0.553421 0.159706 0.321039 0.558489
C158  C     C_R   0.444514 0.158742 0.677585 0.564901
C159  C     C_R   0.053683 0.659649 0.321226 0.556889
C160  C     C_R   0.946172 0.659028 0.678548 0.561476
C161  C     C_R   0.732319 0.000651 0.321979 0.540899
C162  C     C_R   0.267441 0.999672 0.678414 0.539148
C163  C     C_R   0.232425 0.500078 0.321790 0.543306
C164  C     C_R   0.767503 0.499819 0.678345 0.540258
C165  C     C_R   0.497176 0.079416 0.108308 -0.141634
C166  C     C_R   0.458128 0.070718 0.903999 -0.128073
C167  C     C_R   0.995894 0.582072 0.108321 -0.132058
C168  C     C_R   0.954041 0.572935 0.904439 -0.126505
C169  C     C_R   0.483247 0.078934 0.057877 0.012770
C170  C     C_R   0.465690 0.073703 0.955096 0.009680
C171  C     C_R   0.981439 0.582062 0.057964 0.015627
C172  C     C_R   0.962474 0.576309 0.955387 0.010264
C173  C     C_R   0.455029 0.985643 0.983741 -0.133059
C174  C     C_R   0.463605 0.988343 0.034927 -0.135967
C175  C     C_R   0.947881 0.491062 0.984737 -0.131078
C176  C     C_R   0.957410 0.493884 0.035789 -0.130453
Cr1   Cr    Cr6+3 0.756570 0.170940 0.251190 1.003833
Cr2   Cr    Cr6+3 0.243430 0.170940 0.748810 1.005178
Cr3   Cr    Cr6+3 0.256570 0.670940 0.251190 1.007627
Cr4   Cr    Cr6+3 0.743430 0.670940 0.748810 1.008803
Cr5   Cr    Cr6+3 0.623740 0.299110 0.249580 1.020196
Cr6   Cr    Cr6+3 0.376260 0.299110 0.750420 1.033459
Cr7   Cr    Cr6+3 0.123740 0.799110 0.249580 1.007156
Cr8   Cr    Cr6+3 0.876260 0.799110 0.750420 1.026965
Cr9   Cr    Cr6+3 0.625990 0.036240 0.250480 1.024410
Cr10  Cr    Cr6+3 0.374010 0.036240 0.749520 1.019941
Cr11  Cr    Cr6+3 0.125990 0.536240 0.250480 1.023214
Cr12  Cr    Cr6+3 0.874010 0.536240 0.749520 1.014960
H1    H     H_    0.443372 0.999236 0.887196 0.132828
H2    H     H_    0.492479 0.009340 0.129704 0.119748
H3    H     H_    0.934999 0.503853 0.888346 0.133454
H4    H     H_    0.988965 0.513093 0.130178 0.122344
H5    H     H_    0.878719 0.825024 0.896074 0.126871
H6    H     H_    0.160434 0.980123 0.120231 0.118242
H7    H     H_    0.336840 0.486873 0.878008 0.123643
H8    H     H_    0.661363 0.482484 0.121108 0.131450
H9    H     H_    0.691820 0.771870 0.048914 0.095472
H10   H     H_    0.294635 0.793740 0.960801 0.089561
H11   H     H_    0.212184 0.289739 0.040157 0.090561
H12   H     H_    0.801391 0.297844 0.961322 0.095530
H13   H     H_    0.473740 0.002238 0.617640 0.123370
H14   H     H_    0.470066 0.035084 0.361302 0.113107
H15   H     H_    0.989984 0.505349 0.623077 0.119106
H16   H     H_    0.981343 0.525533 0.368110 0.111995
H17   H     H_    0.534322 0.320562 0.471119 0.138758
H18   H     H_    0.466885 0.337075 0.530708 0.154358
H19   H     H_    0.039373 0.827320 0.469781 0.151860
H20   H     H_    0.979376 0.837836 0.534150 0.138029
H21   H     H_    0.727854 0.800707 0.354615 0.104875
H22   H     H_    0.243964 0.802321 0.648027 0.103190
H23   H     H_    0.237885 0.298114 0.351498 0.106086
H24   H     H_    0.719731 0.319007 0.644384 0.101700
H25   H     H_    0.863397 0.891504 0.610908 0.205565
H26   H     H_    0.150782 0.953611 0.383561 0.175910
H27   H     H_    0.357254 0.432278 0.614125 0.187634
H28   H     H_    0.658954 0.477171 0.378579 0.167922
H29   H     H_    0.440540 0.914501 0.966506 0.091851
H30   H     H_    0.456297 0.919017 0.056381 0.097173
H31   H     H_    0.929746 0.421813 0.968161 0.090542
H32   H     H_    0.947165 0.426470 0.057771 0.098594
H33   H     H_    0.740903 0.745729 0.442098 0.093696
H34   H     H_    0.230614 0.747384 0.560404 0.116508
H35   H     H_    0.252838 0.238858 0.438289 0.129565
H36   H     H_    0.707042 0.272433 0.555633 0.114092
H37   H     H_    0.675499 0.836684 0.624610 0.141017
H38   H     H_    0.313452 0.779488 0.380726 0.148860
H39   H     H_    0.186185 0.283511 0.618715 0.144914
H40   H     H_    0.809411 0.272054 0.382547 0.144252
H41   H     H_    0.762683 0.063025 0.485653 0.130193
H42   H     H_    0.261464 0.060067 0.512791 0.127635
H43   H     H_    0.255734 0.555613 0.486853 0.120194
H44   H     H_    0.786270 0.561808 0.513749 0.108842
H45   H     H_    0.753111 0.116252 0.399825 0.143337
H46   H     H_    0.273940 0.113906 0.598639 0.131048
H47   H     H_    0.243415 0.613242 0.401807 0.138832
H48   H     H_    0.799459 0.607001 0.600884 0.124833
H49   H     H_    0.487455 0.321649 0.875607 0.116780
H50   H     H_    0.545670 0.327310 0.119697 0.127769
H51   H     H_    0.997783 0.815912 0.873449 0.115490
H52   H     H_    0.053439 0.824486 0.117869 0.128208
H53   H     H_    0.517643 0.416616 0.951060 0.104485
H54   H     H_    0.536315 0.419749 0.040845 0.101685
H55   H     H_    0.031751 0.909572 0.948287 0.107850
H56   H     H_    0.049561 0.914042 0.038169 0.100188
H57   H     H_    0.821861 0.044287 0.118392 0.136932
H58   H     H_    0.237024 0.132538 0.891521 0.137612
H59   H     H_    0.258996 0.634312 0.108258 0.137971
H60   H     H_    0.726476 0.624507 0.890595 0.140988
H61   H     H_    0.676852 0.850006 0.966229 0.102292
H62   H     H_    0.341193 0.842547 0.040173 0.093964
H63   H     H_    0.162360 0.334879 0.961573 0.098400
H64   H     H_    0.841112 0.342759 0.040313 0.090376
H65   H     H_    0.688668 0.825601 0.876850 0.128192
H66   H     H_    0.322276 0.801232 0.127290 0.118245
H67   H     H_    0.179885 0.295460 0.874153 0.120299
H68   H     H_    0.821928 0.300046 0.127103 0.118583
H69   H     H_    0.837396 0.984063 0.035279 0.112760
H70   H     H_    0.239996 0.108707 0.980204 0.117061
H71   H     H_    0.257202 0.608968 0.019617 0.118681
H72   H     H_    0.732438 0.605021 0.978968 0.123096
H73   H     H_    0.867501 0.843468 0.985464 0.118793
H74   H     H_    0.178196 0.017888 0.034231 0.090014
H75   H     H_    0.320219 0.523651 0.964429 0.094487
H76   H     H_    0.677931 0.518398 0.035107 0.097296
O1    O     O_R   0.769900 0.064540 0.196060 -0.536866
O2    O     O_R   0.230100 0.064540 0.803940 -0.533439
O3    O     O_R   0.269900 0.564540 0.196060 -0.532202
O4    O     O_R   0.730100 0.564540 0.803940 -0.539760
O5    O     O_R   0.574760 0.239320 0.300850 -0.456437
O6    O     O_R   0.425240 0.239320 0.699150 -0.443188
O7    O     O_R   0.074760 0.739320 0.300850 -0.457044
O8    O     O_R   0.925240 0.739320 0.699150 -0.446715
O9    O     O_R   0.566290 0.069580 0.305400 -0.526441
O10   O     O_R   0.433710 0.069580 0.694600 -0.533961
O11   O     O_R   0.066290 0.569580 0.305400 -0.525702
O12   O     O_R   0.933710 0.569580 0.694600 -0.530366
O13   O     O_R   0.680760 0.993330 0.302620 -0.497024
O14   O     O_R   0.319240 0.993330 0.697380 -0.499770
O15   O     O_R   0.180760 0.493330 0.302620 -0.497792
O16   O     O_R   0.819240 0.493330 0.697380 -0.498140
O17   O     O_3   0.668770 0.168760 0.250420 -0.247307
O18   O     O_3   0.331230 0.168760 0.749580 -0.255280
O19   O     O_3   0.168770 0.668760 0.250420 -0.248585
O20   O     O_3   0.831230 0.668760 0.749580 -0.275175
O21   O     O_R   0.750800 0.274080 0.199250 -0.505197
O22   O     O_R   0.249200 0.274080 0.800750 -0.509464
O23   O     O_R   0.250800 0.774080 0.199250 -0.508967
O24   O     O_R   0.749200 0.774080 0.800750 -0.507545
O25   O     O_R   0.669990 0.371670 0.194150 -0.528137
O26   O     O_R   0.330010 0.371670 0.805850 -0.525511
O27   O     O_R   0.169990 0.871670 0.194150 -0.533531
O28   O     O_R   0.830010 0.871670 0.805850 -0.511167
O29   O     O_R   0.574600 0.238480 0.197800 -0.509920
O30   O     O_R   0.425400 0.238480 0.802200 -0.504132
O31   O     O_R   0.074600 0.738480 0.197800 -0.513822
O32   O     O_R   0.925400 0.738480 0.802200 -0.524194
O33   O     O_R   0.566130 0.068680 0.194240 -0.532258
O34   O     O_R   0.433870 0.068680 0.805760 -0.525579
O35   O     O_R   0.066130 0.568680 0.194240 -0.520847
O36   O     O_R   0.933870 0.568680 0.805760 -0.523119
O37   O     O_R   0.680610 0.992490 0.199570 -0.458190
O38   O     O_R   0.319390 0.992490 0.800430 -0.477054
O39   O     O_R   0.180610 0.492490 0.199570 -0.476376
O40   O     O_R   0.819390 0.492490 0.800430 -0.475644
O41   O     O_R   0.770060 0.065440 0.307230 -0.522968
O42   O     O_R   0.229940 0.065440 0.692770 -0.518150
O43   O     O_R   0.270060 0.565440 0.307230 -0.517944
O44   O     O_R   0.729940 0.565440 0.692770 -0.511081
O45   O     O_R   0.750960 0.274920 0.302300 -0.507730
O46   O     O_R   0.249040 0.274920 0.697700 -0.504039
O47   O     O_R   0.250960 0.774920 0.302300 -0.505419
O48   O     O_R   0.749040 0.774920 0.697700 -0.493816
O49   O     O_R   0.670160 0.372580 0.305320 -0.501417
O50   O     O_R   0.329840 0.372580 0.694680 -0.503530
O51   O     O_R   0.170160 0.872580 0.305320 -0.503990
O52   O     O_R   0.829840 0.872580 0.694680 -0.501371
O53   O     O_3   0.663658 0.827199 0.141037 -0.550109
C177  C     C_3   0.607400 0.846787 0.119394 0.002844
H77   H     H_    0.601653 0.804175 0.083913 0.106284
H78   H     H_    0.600877 0.930684 0.112603 0.148996
C178  C     C_3   0.559524 0.810075 0.154614 -0.354200
H79   H     H_    0.562571 0.852924 0.190179 0.176395
H80   H     H_    0.515014 0.822982 0.137698 0.074096
H81   H     H_    0.565068 0.726555 0.162134 0.147103
O54   O     O_3   0.300420 0.805191 0.860234 -0.553009
C179  C     C_3   0.352672 0.753421 0.875545 -0.007506
H82   H     H_    0.342029 0.694454 0.903975 0.120478
H83   H     H_    0.386824 0.807593 0.890517 0.111734
C180  C     C_3   0.379099 0.698455 0.831126 -0.360803
H84   H     H_    0.391121 0.755358 0.802155 0.158363
H85   H     H_    0.419611 0.655775 0.842786 0.083065
H86   H     H_    0.346471 0.643065 0.815359 0.166364
O55   O     O_3   0.206269 0.301783 0.140716 -0.554589
C181  C     C_3   0.155573 0.245169 0.125906 -0.007879
H87   H     H_    0.167627 0.187615 0.097237 0.122274
H88   H     H_    0.119477 0.296143 0.111430 0.123214
C182  C     C_3   0.131745 0.187270 0.170533 -0.363059
H89   H     H_    0.118570 0.242579 0.199842 0.156403
H90   H     H_    0.092377 0.141148 0.159303 0.079108
H91   H     H_    0.166326 0.134667 0.185691 0.168789
O56   O     O_3   0.808213 0.309265 0.860891 -0.549959
C183  C     C_3   0.862302 0.264679 0.877004 -0.004823
H92   H     H_    0.853685 0.203892 0.905048 0.129655
H93   H     H_    0.893438 0.323057 0.892752 0.106767
C184  C     C_3   0.892402 0.214515 0.832927 -0.352737
H94   H     H_    0.901897 0.273328 0.804160 0.158571
H95   H     H_    0.934812 0.178486 0.845106 0.084765
H96   H     H_    0.863183 0.154199 0.816716 0.173852
O57   O     O_3   0.559662 0.348550 0.379179 -0.519430
C185  C     C_3   0.514312 0.415849 0.362369 0.014930
H97   H     H_    0.484427 0.437929 0.393283 0.121803
H98   H     H_    0.487400 0.379276 0.332261 0.129898
C186  C     C_3   0.541380 0.513800 0.341624 -0.372187
H99   H     H_    0.572487 0.495009 0.311270 0.172957
H100  H     H_    0.505673 0.564192 0.326589 0.087444
H101  H     H_    0.565306 0.556233 0.371369 0.138857
O58   O     O_3   0.462020 0.353446 0.627053 -0.546276
C187  C     C_3   0.515613 0.409473 0.624739 -0.016201
H102  H     H_    0.524326 0.436138 0.586244 0.127256
H103  H     H_    0.553812 0.362183 0.638237 0.132309
C188  C     C_3   0.510868 0.503975 0.657701 -0.367030
H104  H     H_    0.502865 0.480255 0.696658 0.158756
H105  H     H_    0.552770 0.548780 0.656224 0.109563
H106  H     H_    0.473630 0.553557 0.644777 0.135941
O59   O     O_3   0.055973 0.852376 0.376286 -0.542509
C189  C     C_3   0.008587 0.908778 0.354800 -0.000242
H107  H     H_    0.979440 0.940155 0.384147 0.118230
H108  H     H_    0.981341 0.860471 0.329075 0.129966
C190  C     C_3   0.033158 0.998327 0.324981 -0.367224
H109  H     H_    0.061471 0.969085 0.294603 0.177692
H110  H     H_    0.995979 0.043297 0.308478 0.086267
H111  H     H_    0.059853 0.049903 0.349212 0.120069
O60   O     O_3   0.968930 0.855087 0.629479 -0.559815
C191  C     C_3   0.024468 0.903701 0.635939 -0.013234
H112  H     H_    0.047285 0.915488 0.599892 0.131284
H113  H     H_    0.053548 0.857195 0.661000 0.139192
C192  C     C_3   0.015086 0.008771 0.659380 -0.372971
H114  H     H_    0.993134 0.000123 0.695856 0.160417
H115  H     H_    0.058554 0.047533 0.664960 0.106820
H116  H     H_    0.986802 0.057187 0.634728 0.135490
O61   O     O_3   0.486196 0.987582 0.520949 -0.705888
H117  H     H_    0.490854 0.929373 0.544434 0.303600
O62   O     O_3   0.414589 0.041213 0.448623 -0.686579
H118  H     H_    0.402026 0.997378 0.420295 0.301527
O63   O     O_3   0.017054 0.492838 0.528163 -0.697849
H119  H     H_    0.016786 0.434327 0.551704 0.291832
O64   O     O_3   0.937146 0.524853 0.459487 -0.689670
H120  H     H_    0.924212 0.478106 0.432404 0.293958
O65   O     O_3   0.863951 0.898977 0.513718 -0.553702
C193  C     C_3   0.889163 0.997377 0.521126 -0.020412
H121  H     H_    0.920523 0.995458 0.553202 0.143376
H122  H     H_    0.855080 0.057882 0.527810 0.145605
C194  C     C_3   0.923096 0.027344 0.474860 -0.370219
H123  H     H_    0.892623 0.028965 0.442230 0.176631
H124  H     H_    0.943157 0.104673 0.479545 0.096185
H125  H     H_    0.958931 0.970707 0.468172 0.137494
O66   O     O_3   0.140893 0.946422 0.483131 -0.560143
C195  C     C_3   0.114537 0.039517 0.467721 -0.014262
H126  H     H_    0.084744 0.025869 0.435399 0.144443
H127  H     H_    0.148447 0.098778 0.458553 0.150176
C196  C     C_3   0.076559 0.079391 0.509915 -0.358869
H128  H     H_    0.105124 0.100132 0.542193 0.191299
H129  H     H_    0.051049 0.147931 0.497605 0.091815
H130  H     H_    0.044731 0.019159 0.521619 0.134045
O67   O     O_3   0.365181 0.426376 0.515785 -0.560508
C197  C     C_3   0.387110 0.525789 0.525875 -0.017732
H131  H     H_    0.414943 0.525109 0.560120 0.135790
H132  H     H_    0.350682 0.583066 0.529713 0.154647
C198  C     C_3   0.425870 0.558083 0.482701 -0.353490
H133  H     H_    0.398888 0.561549 0.448023 0.180109
H134  H     H_    0.445674 0.634736 0.489650 0.104304
H135  H     H_    0.462283 0.501486 0.477917 0.136126
O68   O     O_3   0.648835 0.491837 0.475080 -0.554150
C199  C     C_3   0.648476 0.599437 0.468106 -0.000988
H136  H     H_    0.655856 0.622445 0.428850 0.098778
H137  H     H_    0.683051 0.635272 0.492145 0.159056
C200  C     C_3   0.588271 0.640976 0.483271 -0.351391
H138  H     H_    0.580432 0.625109 0.523169 0.162811
H139  H     H_    0.586367 0.725107 0.476782 0.147026
H140  H     H_    0.552884 0.603832 0.460709 0.133452
O69   O     O_3   0.652259 0.854734 0.528968 -0.586574
C201  C     C_3   0.629553 0.955517 0.522315 -0.009932
H141  H     H_    0.663064 0.018401 0.526268 0.105468
H142  H     H_    0.595465 0.969641 0.550873 0.161745
C202  C     C_3   0.601562 0.964517 0.470757 -0.333530
H143  H     H_    0.565141 0.907861 0.466138 0.183392
H144  H     H_    0.583834 0.043363 0.465274 0.138410
H145  H     H_    0.634839 0.949661 0.441713 0.155270
O70   O     O_3   0.328154 0.770484 0.476904 -0.597832
C203  C     C_3   0.371535 0.836953 0.497716 0.013145
H146  H     H_    0.357414 0.918872 0.499889 0.190783
H147  H     H_    0.411751 0.834268 0.474246 0.178373
C204  C     C_3   0.388089 0.801678 0.550251 -0.378731
H148  H     H_    0.429723 0.756182 0.550121 0.101934
H149  H     H_    0.394978 0.869408 0.574749 0.130851
H150  H     H_    0.352599 0.753720 0.566535 0.161670
O71   O     O_3   0.172472 0.274254 0.521532 -0.589437
C205  C     C_3   0.122892 0.340491 0.517747 -0.008266
H151  H     H_    0.130521 0.420220 0.532035 0.149773
H152  H     H_    0.086592 0.306001 0.539720 0.130947
C206  C     C_3   0.102811 0.347824 0.463557 -0.359245
H153  H     H_    0.056504 0.376314 0.460927 0.166841
H154  H     H_    0.131694 0.401972 0.443128 0.159799
H155  H     H_    0.104770 0.271396 0.445353 0.136524
O72   O     O_3   0.819514 0.268254 0.479448 -0.589069
C207  C     C_3   0.870229 0.324542 0.494590 0.002021
H156  H     H_    0.862673 0.409023 0.496368 0.179795
H157  H     H_    0.906839 0.309111 0.468310 0.145439
C208  C     C_3   0.889691 0.290716 0.546357 -0.368508
H158  H     H_    0.925716 0.341604 0.560144 0.117134
H159  H     H_    0.851995 0.295626 0.572400 0.169480
H160  H     H_    0.906608 0.210816 0.545799 0.118611

loop_
_geom_bond_atom_site_label_1
_geom_bond_atom_site_label_2
_ccdc_geom_bond_type
C128  H48   S    
C99   C103  A    
C7    C168  A    
C51   O55   S    
O58   C187  S    
C37   C69   S    
C202  H143  S    
C142  C146  A    
C77   C101  A    
C19   C20   A    
C53   C69   A    
C38   C70   S    
C182  H89   S    
O71   C205  S    
C108  C164  S    
C32   H60   S    
C37   C41   A    
Cr9   O37   S    
Cr10  O34   S    
C55   C59   A    
C26   C50   A    
C167  C171  A    
C95   C99   A    
C29   C33   A    
C100  C104  A    
C187  C188  S    
C3    C74   S    
C9    C13   A    
C192  H116  S    
C207  C208  S    
Cr4   O4    S    
C146  C150  A    
C194  H123  S    
C131  C151  A    
C12   C16   A    
C56   C72   A    
C169  C174  A    
C179  H82   S    
Cr7   O31   S    
Cr8   O28   S    
C172  C175  A    
C141  C145  A    
C190  H111  S    
C138  C154  A    
C6    C165  A    
C207  H156  S    
C21   C22   A    
C92   O40   A    
C199  H137  S    
C88   H20   S    
C91   O3    A    
C41   C49   A    
C186  H100  S    
C18   C170  A    
C165  C169  A    
C188  H106  S    
C160  O8    A    
C59   H67   S    
C46   O34   A    
C28   C32   A    
C121  H41   S    
C62   C66   A    
C183  H92   S    
C206  H155  S    
C193  H122  S    
C98   C102  A    
C60   C76   A    
C15   C19   A    
O72   C207  S    
Cr1   O1    S    
C78   C82   A    
C134  C155  S    
C54   C70   A    
C68   C72   A    
C204  H150  S    
C179  C180  S    
C165  H2    S    
C137  C153  A    
C145  O69   S    
C184  H96   S    
C113  H33   S    
C124  H44   S    
C140  C156  A    
C135  O51   A    
C52   O56   S    
C20   C172  A    
C50   O54   S    
Cr11  O15   S    
O61   H117  S    
C132  C152  A    
C202  H145  S    
C197  H132  S    
C62   H6    S    
O62   H118  S    
C130  C138  A    
C182  H91   S    
Cr12  O16   S    
C207  H157  S    
C30   H58   S    
C177  C178  S    
C127  H47   S    
C84   C88   A    
C143  H39   S    
C183  C184  S    
Cr9   O13   S    
Cr6   O18   S    
C67   H75   S    
Cr10  O10   S    
C119  C123  A    
C26   C90   S    
C5    C46   S    
Cr11  O39   S    
C105  C125  A    
C7    C48   S    
C8    C47   S    
Cr7   O27   S    
O67   C197  S    
C157  O9    A    
C136  C153  S    
C181  C182  S    
Cr1   O21   S    
C66   C70   A    
C163  O15   A    
Cr2   O18   S    
Cr3   O23   S    
C58   H66   S    
C185  H97   S    
C203  H147  S    
C80   C160  S    
C107  C127  A    
C92   O4    A    
C61   C65   A    
C129  C137  A    
C159  O7    A    
C178  H79   S    
C33   H69   S    
C39   C71   S    
C117  C149  S    
C131  O67   S    
C129  C149  A    
C48   O36   A    
C22   H53   S    
C55   C71   A    
C2    C75   S    
C100  O63   S    
Cr12  O20   S    
Cr4   O24   S    
O57   C185  S    
C6    C9    A    
C196  H128  S    
C85   H17   S    
O70   C203  S    
Cr7   O19   S    
Cr1   O45   S    
C64   C68   A    
Cr5   O29   S    
Cr2   O42   S    
C102  H13   S    
Cr3   O47   S    
C60   H68   S    
C118  C122  A    
C57   C73   A    
C148  O72   S    
C191  H112  S    
C177  H78   S    
C205  H151  S    
C85   C93   A    
C78   C158  S    
C87   C95   A    
C130  C150  A    
C23   C24   A    
C27   C91   S    
C2    O26   A    
C174  H30   S    
C47   O31   A    
C110  C114  A    
C67   C71   A    
C48   O32   A    
C89   O37   A    
C44   C52   A    
C91   O39   A    
C180  H85   S    
C79   C103  A    
Cr10  O38   S    
C11   C15   A    
Cr11  O35   S    
C200  H139  S    
C27   C51   A    
C181  H88   S    
Cr5   O5    S    
C7    C12   A    
C194  H125  S    
Cr7   O7    S    
C30   C34   A    
C49   O53   S    
C41   H9    S    
C10   C14   A    
C181  H87   S    
C1    O25   A    
C208  H159  S    
C11   H52   S    
C108  C128  A    
C116  C120  A    
C88   C96   A    
C191  C192  S    
C144  C156  A    
C147  C151  A    
C121  C125  A    
C123  C127  A    
C139  C155  A    
C97   O62   S    
C178  H81   S    
C157  O5    A    
C17   C18   A    
C5    C166  A    
C142  C154  A    
C198  H135  S    
C187  H103  S    
C189  C190  S    
C4    C73   S    
C42   C50   A    
C113  C117  A    
C107  C163  S    
C26   C30   A    
C115  C119  A    
C176  H32   S    
C201  H141  S    
C105  C161  S    
C184  H95   S    
C146  O70   S    
C61   H5    S    
C68   H76   S    
C196  H130  S    
C58   C74   A    
C130  O66   S    
C105  C109  A    
C40   C72   S    
C1    C76   S    
C107  C111  A    
C65   H73   S    
C148  C152  A    
C84   O60   S    
C83   O59   S    
C44   H12   S    
C135  O47   A    
C171  C176  A    
C13   C17   A    
C166  H1    S    
C14   C22   A    
C198  H133  S    
C161  O13   A    
O66   C195  S    
C136  O48   A    
C63   C75   A    
C64   H8    S    
C89   O1    A    
C36   H72   S    
C57   H65   S    
C126  H46   S    
C192  H115  S    
C131  C139  A    
Cr12  O36   S    
C40   C44   A    
C10   H49   S    
C208  H158  S    
C179  H83   S    
C46   O30   A    
Cr9   O17   S    
C81   C85   A    
Cr10  O14   S    
C190  H110  S    
Cr11  O11   S    
C83   C87   A    
Cr4   O44   S    
O68   C199  S    
C6    C45   S    
C93   C97   A    
C78   C102  A    
C133  C156  S    
C81   O57   S    
C133  O49   A    
C80   C84   A    
C1    O21   A    
C186  H99   S    
Cr2   O46   S    
Cr2   O22   S    
C3    O23   A    
C188  H105  S    
Cr3   O19   S    
O69   C201  S    
C135  C154  S    
C80   C104  A    
O55   C181  S    
C115  H35   S    
C191  H113  S    
C79   C159  S    
C183  H93   S    
C206  H154  S    
C112  C116  A    
C94   C98   A    
C34   H70   S    
C118  C150  S    
C189  H107  S    
Cr5   O49   S    
C139  H27   S    
C204  H149  S    
C147  O71   S    
C160  O12   A    
Cr4   O20   S    
C132  O68   S    
C99   O64   S    
C124  C128  A    
C25   C29   A    
C202  H144  S    
Cr5   O25   S    
C110  H22   S    
C175  H31   S    
Cr6   O30   S    
Cr3   O43   S    
C133  O45   A    
C182  H90   S    
C82   O58   S    
C142  H38   S    
C161  O41   A    
Cr8   O8    S    
C104  H15   S    
C53   C57   A    
C185  C186  S    
C61   C73   A    
C134  O50   A    
C27   C31   A    
C33   C37   A    
C56   C60   A    
C205  C206  S    
C45   O33   A    
C116  H36   S    
C47   O35   A    
C4    O28   A    
C8    C167  A    
C141  H37   S    
C194  H124  S    
C90   O38   A    
C42   H10   S    
C208  H160  S    
Cr2   O2    S    
C54   H62   S    
C114  H34   S    
C195  H127  S    
C185  H98   S    
C203  C204  S    
Cr6   O6    S    
C199  H136  S    
C31   C35   A    
C32   C36   A    
C186  H101  S    
O63   H119  S    
C138  H26   S    
Cr11  O19   S    
C29   H57   S    
Cr8   O52   S    
Cr8   O20   S    
O59   C189  S    
C193  H121  S    
C132  C140  A    
C106  C126  A    
C25   C89   S    
C158  O6    A    
C143  C155  A    
Cr8   O32   S    
C103  H16   S    
C82   C86   A    
C79   C83   A    
C43   C51   A    
C65   C69   A    
C56   H64   S    
Cr9   O33   S    
C106  C162  S    
O54   C179  S    
C25   C49   A    
C108  C112  A    
C168  C172  A    
C123  H43   S    
Cr6   O50   S    
C197  H131  S    
C62   C74   A    
C23   H56   S    
C66   H74   S    
C145  C149  A    
C21   H54   S    
C109  H21   S    
C170  C173  A    
Cr3   O3    S    
C93   C94   S    
C180  H84   S    
C14   C18   A    
C35   C39   A    
C95   C96   S    
C3    O27   A    
C144  C148  A    
C141  C153  A    
C86   H18   S    
C193  C194  S    
C200  H138  S    
C162  O14   A    
C173  C174  A    
C136  O52   A    
C143  C147  A    
C167  H4    S    
C199  C200  S    
C35   H71   S    
C4    O24   A    
C168  H3    S    
C129  O65   S    
C112  H24   S    
C90   O2    A    
C111  H23   S    
C19   C171  A    
C38   C42   A    
C101  H14   S    
Cr12  O40   S    
C17   C169  A    
C96   C100  A    
C24   H55   S    
C117  C121  A    
C203  H146  S    
C86   C94   A    
C12   H51   S    
C175  C176  A    
C178  H80   S    
C197  C198  S    
C164  O44   A    
C77   C81   A    
C198  H134  S    
Cr10  O18   S    
Cr1   O41   S    
C16   C20   A    
C2    O22   A    
C15   C23   A    
C16   C24   A    
C201  H142  S    
C195  C196  S    
C31   H59   S    
O53   C177  S    
C196  H129  S    
C158  O10   A    
C189  H108  S    
C119  C151  S    
C122  H42   S    
C63   C67   A    
C120  C152  S    
C13   C21   A    
Cr4   O48   S    
C36   C40   A    
C39   C43   A    
Cr12  O12   S    
C122  C126  A    
Cr5   O17   S    
C177  H77   S    
Cr9   O9    S    
C64   C76   A    
C28   C92   S    
C53   H61   S    
Cr6   O26   S    
C87   H19   S    
C192  H114  S    
C114  C118  A    
C201  C202  S    
Cr1   O17   S    
C134  O46   A    
Cr7   O51   S    
C180  H86   S    
C55   H63   S    
C162  O42   A    
C59   C75   A    
C200  H140  S    
C173  H29   S    
C190  H109  S    
C54   C58   A    
C137  H25   S    
C34   C38   A    
C45   O29   A    
C98   O61   S    
C144  H40   S    
C43   H11   S    
C109  C113  A    
C188  H104  S    
C159  O11   A    
C5    C10   A    
O60   C191  S    
C28   C52   A    
C206  H153  S    
O65   C193  S    
C8    C11   A    
C166  C170  A    
C63   H7    S    
C163  O43   A    
C187  H102  S    
C205  H152  S    
C125  H45   S    
C140  H28   S    
C120  C124  A    
C106  C110  A    
C204  H148  S    
C9    H50   S    
O56   C183  S    
C195  H126  S    
C164  O16   A    
C111  C115  A    
C184  H94   S    
C97   C101  A    
O64   H120  S    
C77   C157  S    
