data_mof_unit_6349.cif
_audit_creation_date              2012-10-26T17:10:30-0400
_audit_creation_method            fapswitch 2.2
_symmetry_space_group_name_H-M    P1
_symmetry_Int_Tables_number       1
_space_group_crystal_system       triclinic
_cell_length_a                    16.87834
_cell_length_b                    16.883655
_cell_length_c                    16.873746
_cell_angle_alpha                 67.439055
_cell_angle_beta                  67.446815
_cell_angle_gamma                 67.431666
_cell_volume                      3939.88762892

loop_
_atom_site_label
_atom_site_type_symbol
_atom_type_description
_atom_site_fract_x
_atom_site_fract_y
_atom_site_fract_z
_atom_type_partial_charge
C1    C     C_R   0.591875 0.030082 0.594486 0.018686
C2    C     C_R   0.169521 0.431650 0.981711 0.559665
C3    C     C_R   0.565455 0.026322 0.829020 0.541221
C4    C     C_R   0.431649 0.981714 0.169526 0.554563
C5    C     C_R   0.434667 0.170979 0.973342 0.535213
C6    C     C_R   0.567112 0.829637 0.021842 0.582418
C7    C     C_R   0.973728 0.434528 0.170967 0.537718
C8    C     C_R   0.018335 0.568333 0.830464 0.559988
C9    C     C_R   0.170995 0.973294 0.434689 0.538266
C10   C     C_R   0.829618 0.021888 0.567094 0.577245
C11   C     C_R   0.539155 0.019463 0.548670 0.058456
C12   C     C_R   0.401243 0.981318 0.405187 0.064188
C13   C     C_R   0.447997 0.994520 0.455557 0.117958
C14   C     C_R   0.005852 0.551918 0.544306 0.118481
C15   C     C_R   0.981094 0.460607 0.451223 0.059483
C16   C     C_R   0.548745 0.539304 0.019118 0.059577
C17   C     C_R   0.455557 0.448052 0.994425 0.117842
C18   C     C_R   0.507301 0.090452 0.480780 -0.103816
C19   C     C_R   0.478830 0.923991 0.524488 -0.060453
C20   C     C_R   0.922469 0.537592 0.565632 -0.066366
C21   C     C_R   0.063942 0.476128 0.428760 -0.076827
C22   C     C_R   0.480597 0.507905 0.090085 -0.104651
C23   C     C_R   0.018954 0.598712 0.594710 0.064574
C24   C     C_R   0.524731 0.478451 0.923918 -0.061314
C25   C     C_R   0.461847 0.078049 0.434493 -0.065782
C26   C     C_R   0.524124 0.936459 0.570850 -0.074517
C27   C     C_R   0.434293 0.462394 0.077816 -0.069902
C28   C     C_R   0.571138 0.523769 0.936264 -0.078043
C29   C     C_R   0.910167 0.492050 0.519378 -0.103607
C30   C     C_R   0.076323 0.521478 0.475120 -0.060922
C31   C     C_R   0.549844 0.042139 0.680113 0.211931
C32   C     C_R   0.436873 0.993376 0.312714 0.184606
C33   C     C_R   0.038858 0.680901 0.550898 0.195528
C34   C     C_R   0.970538 0.407904 0.405357 0.018548
C35   C     C_R   0.976139 0.315959 0.444625 0.199397
C36   C     C_R   0.680229 0.549977 0.041736 0.207505
C37   C     C_R   0.312706 0.436889 0.993342 0.184116
C38   C     C_R   0.319118 0.961266 0.449053 0.195398
C39   C     C_R   0.683854 0.024416 0.555214 0.199822
C40   C     C_R   0.448999 0.319051 0.961399 0.190423
C41   C     C_R   0.555364 0.683990 0.023994 0.198967
C42   C     C_R   0.958332 0.449993 0.319786 0.207450
C43   C     C_R   0.006929 0.563043 0.687183 0.184449
C44   C     C_R   0.601608 0.037668 0.731840 -0.036883
C45   C     C_R   0.594634 0.592035 0.029609 0.018904
C46   C     C_R   0.392202 0.979874 0.264641 -0.026507
C47   C     C_R   0.036513 0.732229 0.602024 -0.034600
C48   C     C_R   0.971098 0.266824 0.395556 0.013080
C49   C     C_R   0.731889 0.601669 0.037475 -0.038266
C50   C     C_R   0.264630 0.392195 0.979898 -0.027535
C51   C     C_R   0.267786 0.963507 0.397973 -0.035056
C52   C     C_R   0.733107 0.029121 0.604380 0.013366
C53   C     C_R   0.397932 0.267747 0.963620 -0.036340
C54   C     C_R   0.604440 0.733160 0.028946 0.012377
C55   C     C_R   0.962534 0.398328 0.268119 -0.038728
C56   C     C_R   0.405162 0.401229 0.981348 0.063565
C57   C     C_R   0.020243 0.607767 0.735321 -0.027076
C58   C     C_R   0.691700 0.034375 0.692141 -0.222976
C59   C     C_R   0.307030 0.967681 0.307593 -0.211920
C60   C     C_R   0.032307 0.692976 0.692413 -0.211391
C61   C     C_R   0.965696 0.308287 0.307841 -0.223290
C62   C     C_R   0.692159 0.691717 0.034290 -0.222746
C63   C     C_R   0.307572 0.307006 0.967776 -0.211648
C64   C     C_R   0.026697 0.829012 0.565320 0.538604
C65   C     C_R   0.978175 0.170363 0.432881 0.576892
C66   C     C_R   0.829036 0.565479 0.026267 0.538030
Cu1   Cu    Cu3+1 0.995180 0.995180 0.424630 1.031086
Cu2   Cu    Cu3+1 0.004820 0.004820 0.575370 1.031407
Cu3   Cu    Cu3+1 0.995180 0.424630 0.995180 1.001771
Cu4   Cu    Cu3+1 0.004820 0.575370 0.004820 1.002190
Cu5   Cu    Cu3+1 0.424630 0.995180 0.995180 1.030859
Cu6   Cu    Cu3+1 0.575370 0.004820 0.004820 1.001985
H1    H     H_    0.548798 0.881104 0.623044 0.126471
H2    H     H_    0.462767 0.519640 0.154310 0.120581
H3    H     H_    0.119250 0.451791 0.376346 0.119766
H4    H     H_    0.867154 0.561417 0.618325 0.121163
H5    H     H_    0.730895 0.032710 0.731029 0.170831
H6    H     H_    0.269651 0.964575 0.269583 0.172040
H7    H     H_    0.035294 0.730371 0.730463 0.172288
H8    H     H_    0.967128 0.269174 0.269010 0.170978
H9    H     H_    0.730986 0.730849 0.032800 0.171225
H10   H     H_    0.269571 0.269636 0.964687 0.172530
H11   H     H_    0.434473 0.104989 0.741381 0.336104
H12   H     H_    0.437718 0.133394 0.381985 0.122428
H13   H     H_    0.504862 0.070792 0.220458 0.341244
H14   H     H_    0.104381 0.740092 0.435854 0.334582
H15   H     H_    0.995549 0.311777 0.554502 0.334725
H16   H     H_    0.741338 0.434582 0.104680 0.337589
H17   H     H_    0.220521 0.505011 0.070695 0.339408
H18   H     H_    0.259994 0.895706 0.564120 0.335140
H19   H     H_    0.687706 0.006124 0.444887 0.334994
H20   H     H_    0.564065 0.259956 0.895831 0.336716
H21   H     H_    0.445471 0.688137 0.004695 0.334402
H22   H     H_    0.895371 0.565407 0.258723 0.338161
H23   H     H_    0.141057 0.531836 0.457946 0.126707
H24   H     H_    0.929573 0.494896 0.779253 0.339607
H25   H     H_    0.845947 0.480330 0.537250 0.120941
H26   H     H_    0.623533 0.548075 0.880919 0.119783
H27   H     H_    0.381618 0.438596 0.133165 0.118741
H28   H     H_    0.468822 0.859153 0.541454 0.128051
H29   H     H_    0.518665 0.154787 0.463116 0.121914
H30   H     H_    0.541868 0.468080 0.859177 0.126915
O1    O     O_R   0.124540 0.978640 0.385460 -0.527245
O2    O     O_R   0.124540 0.385460 0.978640 -0.513418
O3    O     O_R   0.021360 0.875460 0.614540 -0.526855
O4    O     O_R   0.978640 0.124540 0.385460 -0.531846
O5    O     O_R   0.013780 0.867370 0.487190 -0.479546
O6    O     O_R   0.986220 0.132630 0.512810 -0.426873
O7    O     O_R   0.867370 0.487190 0.013780 -0.489334
O8    O     O_R   0.132630 0.512810 0.986220 -0.473534
O9    O     O_R   0.487190 0.013780 0.867370 -0.480505
O10   O     O_R   0.512810 0.986220 0.132630 -0.476058
O11   O     O_R   0.512810 0.132630 0.986220 -0.488456
O12   O     O_R   0.875460 0.021360 0.614540 -0.531909
O13   O     O_R   0.487190 0.867370 0.013780 -0.424483
O14   O     O_R   0.986220 0.512810 0.132630 -0.489252
O15   O     O_R   0.013780 0.487190 0.867370 -0.473287
O16   O     O_R   0.132630 0.986220 0.512810 -0.479491
O17   O     O_R   0.867370 0.013780 0.487190 -0.426618
O18   O     O_3   0.458421 0.056906 0.711494 -0.658401
O19   O     O_3   0.515386 0.017626 0.271612 -0.678075
O20   O     O_3   0.055790 0.710968 0.459213 -0.673649
O21   O     O_3   0.987633 0.272135 0.529403 -0.665470
O22   O     O_3   0.711623 0.458586 0.056429 -0.664543
O23   O     O_R   0.978640 0.385460 0.124540 -0.521445
O24   O     O_3   0.271619 0.515473 0.017446 -0.679127
O25   O     O_3   0.289109 0.944299 0.540742 -0.672553
O26   O     O_3   0.727613 0.013136 0.470356 -0.664888
O27   O     O_3   0.540658 0.288973 0.944530 -0.678757
O28   O     O_3   0.470573 0.727793 0.012574 -0.666746
O29   O     O_3   0.943638 0.541383 0.288412 -0.663180
O30   O     O_3   0.982913 0.484423 0.728230 -0.679027
O31   O     O_R   0.021360 0.614540 0.875460 -0.513493
O32   O     O_R   0.385460 0.124540 0.978640 -0.525180
O33   O     O_R   0.614540 0.875460 0.021360 -0.526457
O34   O     O_R   0.614540 0.021360 0.875460 -0.523114
O35   O     O_R   0.385460 0.978640 0.124540 -0.518817
O36   O     O_R   0.875460 0.614540 0.021360 -0.521027

loop_
_geom_bond_atom_site_label_1
_geom_bond_atom_site_label_2
_ccdc_geom_bond_type
C16   C28   A    
C40   O27   S    
Cu6   O10   S    
C60   H7    S    
C50   C63   A    
C46   C59   A    
C34   C42   A    
C7    C55   S    
H16   O22   S    
C10   C52   S    
Cu5   O32   S    
C38   O25   S    
Cu1   O1    S    
C64   O3    A    
C11   C18   A    
C4    C46   S    
C27   H27   S    
C6    O33   A    
C5    C53   S    
C43   O30   S    
C36   O22   S    
C14   C30   A    
C34   C35   A    
C41   O28   S    
C8    C57   S    
Cu6   O34   S    
C61   H8    S    
C1    C31   A    
C26   H1    S    
C23   C43   A    
C20   H4    S    
C3    O34   A    
C19   C26   A    
C10   O17   A    
C2    C50   S    
C58   H5    S    
Cu2   O16   S    
C4    O35   A    
C37   C56   A    
Cu3   O7    S    
C44   C58   A    
C31   O18   S    
C23   C33   A    
Cu5   O9    S    
H14   O20   S    
C25   H12   S    
H18   O25   S    
H13   O19   S    
C42   O29   S    
C49   C62   A    
C48   C65   S    
Cu4   O8    S    
C15   C34   S    
C10   O12   A    
H17   O24   S    
C39   C52   A    
C4    O10   A    
Cu3   O23   S    
C12   C32   A    
C9    O16   A    
H11   O18   S    
C13   C25   A    
C18   C25   A    
C6    C54   S    
C35   C48   A    
C59   H6    S    
C14   C23   S    
C8    O15   A    
C15   C29   A    
C20   C29   A    
C5    O32   A    
C6    O13   A    
C3    C44   S    
C17   C24   A    
C31   C44   A    
C13   C19   A    
C63   H10   S    
Cu1   Cu2   S    
C17   C27   A    
C14   C20   A    
Cu5   O35   S    
H19   O26   S    
C3    O9    A    
C47   C64   S    
C1    C39   A    
Cu6   O33   S    
C38   C51   A    
C54   C62   A    
C11   C26   A    
C40   C56   A    
Cu6   O11   S    
C49   C66   S    
C18   H29   S    
C7    O14   A    
C30   H23   S    
C42   C55   A    
Cu4   O31   S    
C66   O36   A    
C2    O2    A    
C9    O1    A    
Cu5   O13   S    
C36   C45   A    
C7    O23   A    
C17   C56   S    
C52   C58   A    
C62   H9    S    
Cu4   O36   S    
C22   C27   A    
C33   O20   S    
C33   C47   A    
C51   C59   A    
Cu2   O3    S    
C22   H2    S    
H21   O28   S    
C65   O4    A    
C47   C60   A    
C64   O5    A    
C37   O24   S    
Cu3   O2    S    
C28   H26   S    
C2    O8    A    
C16   C22   A    
C39   O26   S    
C65   O6    A    
C5    O11   A    
C8    O31   A    
C32   C46   A    
C32   O19   S    
C24   C28   A    
C57   C60   A    
C16   C45   S    
C19   H28   S    
Cu1   O4    S    
C21   C30   A    
C21   H3    S    
H22   O29   S    
C29   H25   S    
Cu4   O14   S    
C9    C51   S    
C35   O21   S    
H20   O27   S    
Cu5   Cu6   S    
H24   O30   S    
H15   O21   S    
C37   C50   A    
C53   C63   A    
Cu1   O5    S    
C48   C61   A    
C55   C61   A    
Cu3   O15   S    
C24   H30   S    
C66   O7    A    
C12   C38   A    
Cu3   Cu4   S    
C41   C54   A    
C43   C57   A    
C15   C21   A    
C12   C13   S    
C40   C53   A    
C41   C45   A    
C1    C11   S    
Cu2   O6    S    
Cu1   O17   S    
C36   C49   A    
Cu2   O12   S    
