data_mof_unit_52887.cif
_audit_creation_date              2013-03-05T15:49:06-0500
_audit_creation_method            fapswitch 2.2
_symmetry_space_group_name_H-M    P1
_symmetry_Int_Tables_number       1
_space_group_crystal_system       triclinic
_cell_length_a                    22.213069
_cell_length_b                    7.227319
_cell_length_c                    19.484576
_cell_angle_alpha                 89.813585
_cell_angle_beta                  98.564417
_cell_angle_gamma                 89.812082
_cell_volume                      3093.15232674

loop_
_atom_site_label
_atom_site_type_symbol
_atom_site_description
_atom_site_fract_x
_atom_site_fract_y
_atom_site_fract_z
_atom_type_partial_charge
O1    O     O_R   0.448470 0.506130 0.415700 -0.584889
O2    O     O_R   0.551530 0.006130 0.584300 -0.590668
O3    O     O_R   0.436320 0.174490 0.555800 -0.561371
O4    O     O_R   0.563680 0.674490 0.444200 -0.561225
C1    C     C_R   0.423073 0.343893 0.577456 1.021336
C2    C     C_R   0.577037 0.843891 0.422650 1.021280
O5    O     O_R   0.441350 0.176340 0.414480 -0.580429
O6    O     O_R   0.558650 0.676340 0.585520 -0.576254
O7    O     O_R   0.556600 0.007100 0.441970 -0.575185
O8    O     O_R   0.443400 0.507100 0.558030 -0.573739
C3    C     C_R   0.425866 0.345537 0.390343 0.961323
C4    C     C_R   0.574191 0.844563 0.609692 0.965067
O9    O     O_3   0.537810 0.339550 0.509190 -0.274086
O10   O     O_3   0.462190 0.839550 0.490810 -0.272420
V1    V     V_3+5 0.492990 0.064280 0.498300 1.266057
V2    V     V_3+5 0.507010 0.564280 0.501700 1.269756
C5    C     C_R   0.871219 0.019755 0.700300 0.386516
C6    C     C_R   0.124324 0.443233 0.302115 0.390257
H1    H     H_    0.956427 0.043468 0.767940 0.156712
H2    H     H_    0.039183 0.470312 0.234379 0.154790
H3    H     H_    0.792223 0.989357 0.583660 0.211452
H4    H     H_    0.205524 0.441426 0.417838 0.210247
C7    C     C_R   0.885986 0.946776 0.823106 -0.137689
C8    C     C_R   0.113588 0.439368 0.176782 -0.136380
C9    C     C_R   0.592383 0.813127 0.736027 -0.150068
C10   C     C_R   0.408923 0.336224 0.263635 -0.150723
C11   C     C_R   0.628099 0.813470 0.800787 -0.066957
C12   C     C_R   0.373459 0.341727 0.198774 -0.067109
C13   C     C_R   0.690181 0.848870 0.807431 -0.145841
C14   C     C_R   0.310708 0.365018 0.192328 -0.145131
C15   C     C_R   0.719012 0.884129 0.748746 0.099292
C16   C     C_R   0.280945 0.383738 0.251298 0.099704
C17   C     C_R   0.682053 0.884525 0.681384 -0.066451
C18   C     C_R   0.317654 0.378246 0.318774 -0.072175
C19   C     C_R   0.783386 0.920317 0.755304 0.077526
C20   C     C_R   0.215818 0.406702 0.245017 0.077854
C21   C     C_R   0.808801 0.972014 0.695265 -0.077104
C22   C     C_R   0.188362 0.423026 0.306218 -0.080358
C23   C     C_R   0.772458 0.966782 0.630500 -0.176582
C24   C     C_R   0.225107 0.422602 0.370707 -0.185536
C25   C     C_R   0.711211 0.919545 0.622792 0.307960
C26   C     C_R   0.287728 0.397704 0.377643 0.312658
C27   C     C_R   0.823754 0.905875 0.819246 -0.214914
C28   C     C_R   0.176698 0.414691 0.180106 -0.214376
C29   C     C_R   0.908890 0.005065 0.764032 -0.248720
C30   C     C_R   0.088069 0.454361 0.237430 -0.251765
C31   C     C_R   0.617652 0.849304 0.675821 -0.159850
C32   C     C_R   0.382655 0.354336 0.324145 -0.161023
H5    H     H_    0.808556 0.863432 0.866858 0.107048
H6    H     H_    0.193467 0.403578 0.131192 0.103710
H7    H     H_    0.544119 0.785293 0.732875 0.122099
H8    H     H_    0.457706 0.317759 0.266660 0.123763
H9    H     H_    0.607286 0.786835 0.846666 0.132557
H10   H     H_    0.394931 0.327536 0.152680 0.132833
C33   C     C_3   0.775833 0.872713 0.313127 -0.134256
C34   C     C_3   0.224227 0.374395 0.686898 -0.135103
C35   C     C_3   0.783243 0.042875 0.266160 -0.085404
C36   C     C_3   0.216699 0.543848 0.733840 -0.087539
H11   H     H_    0.812331 0.164979 0.281365 0.146293
H12   H     H_    0.187537 0.666633 0.718611 0.146172
H13   H     H_    0.684459 0.174869 0.239941 0.210801
H14   H     H_    0.315395 0.673976 0.760074 0.210655
C37   C     C_1   0.874709 0.940392 0.120436 -0.267735
C38   C     C_1   0.125277 0.440253 0.879564 -0.267348
C39   C     C_1   0.622134 0.852817 0.375877 -0.135904
C40   C     C_1   0.377969 0.353111 0.624221 -0.134606
C41   C     C_3   0.783063 0.741205 0.251733 -0.251475
C42   C     C_3   0.217063 0.241923 0.748304 -0.250526
C43   C     C_3   0.789618 0.911485 0.205347 0.140624
C44   C     C_3   0.210391 0.411487 0.794665 0.141475
C45   C     C_3   0.713808 0.751290 0.229047 0.388657
C46   C     C_3   0.286308 0.250614 0.771010 0.388925
C47   C     C_3   0.706277 0.878830 0.289672 0.007620
C48   C     C_3   0.293777 0.379106 0.710374 0.007634
C49   C     C_3   0.720186 0.917797 0.181367 -0.227897
C50   C     C_3   0.279817 0.416384 0.818665 -0.227259
C51   C     C_3   0.713217 0.048478 0.243068 -0.157989
C52   C     C_3   0.286720 0.548042 0.756954 -0.159114
C53   C     C_1   0.836275 0.928795 0.158594 0.052106
C54   C     C_1   0.163717 0.428681 0.841408 0.051806
C55   C     C_1   0.659997 0.863383 0.337000 0.130378
C56   C     C_1   0.340086 0.363748 0.663075 0.128225
H15   H     H_    0.697049 0.934056 0.127117 0.164399
H16   H     H_    0.302932 0.431355 0.872919 0.164149
H17   H     H_    0.811112 0.613180 0.254783 0.160124
H18   H     H_    0.189094 0.114352 0.745259 0.160117
O11   O     O_R   0.056650 0.288730 0.942060 -0.583410
O12   O     O_R   0.943350 0.788730 0.057940 -0.583319
O13   O     O_R   0.058660 0.616870 0.085540 -0.585660
O14   O     O_R   0.941340 0.116870 0.914460 -0.588014
C57   C     C_R   0.072981 0.448159 0.110081 0.932860
C58   C     C_R   0.926966 0.949275 0.889810 0.932049
O15   O     O_R   0.063700 0.618520 0.944220 -0.583786
O16   O     O_R   0.936300 0.118520 0.055780 -0.584104
O17   O     O_R   0.948460 0.787610 0.915680 -0.582875
O18   O     O_R   0.051540 0.287610 0.084320 -0.584164
C59   C     C_R   0.078983 0.450032 0.924790 0.956752
C60   C     C_R   0.921002 0.950079 0.075211 0.958137
O19   O     O_3   0.962230 0.453430 0.990860 -0.283986
O20   O     O_3   0.037770 0.953430 0.009140 -0.283198
V3    V     V_3+5 0.007010 0.728750 0.001700 1.186789
V4    V     V_3+5 0.992990 0.228750 0.998300 1.185604
H19   H     H_    0.798688 0.854818 0.367421 0.181775
H20   H     H_    0.201397 0.357771 0.632599 0.184337
N1    N     N_R   0.676645 0.590259 0.207176 0.229098
O21   O     O_R   0.687921 0.493643 0.154333 -0.415602
O22   O     O_R   0.632086 0.542589 0.239803 -0.427131
N2    N     N_R   0.323564 0.088656 0.792913 0.229032
O23   O     O_R   0.312345 0.991328 0.845777 -0.415449
O24   O     O_R   0.368132 0.040810 0.760276 -0.426335
N3    N     N_R   0.896867 0.088922 0.641759 0.233241
O25   O     O_R   0.871090 0.227252 0.605656 -0.359875
O26   O     O_R   0.951316 0.037901 0.632524 -0.349311
N4    N     N_R   0.094979 0.448377 0.363018 0.232739
O27   O     O_R   0.103055 0.313044 0.407701 -0.354169
O28   O     O_R   0.051358 0.566859 0.366750 -0.350918
H21   H     H_    0.714196 0.850496 0.859668 0.112700
H22   H     H_    0.286854 0.367200 0.140052 0.112695
N5    N     N_R   0.681418 0.894962 0.553676 0.195694
O29   O     O_R   0.680273 0.033119 0.510523 -0.409282
O30   O     O_R   0.677083 0.727353 0.529412 -0.413168
N6    N     N_R   0.318981 0.386035 0.446559 0.193611
O31   O     O_R   0.319459 0.226763 0.477871 -0.412973
O32   O     O_R   0.324196 0.536261 0.483516 -0.411162

loop_
_geom_bond_atom_site_label_1
_geom_bond_atom_site_label_2
_geom_bond_distance
_ccdc_geom_bond_type
C14   C16   1.415027 A    
C7    C29   1.390623 A    
O18   V4    2.010141 S    
C11   C13   1.390426 A    
C42   H18   1.110280 S    
N3    O25   1.301495 A    
O1    C3    1.333047 A    
C46   C50   1.537639 S    
O2    C4    1.334124 A    
C50   H16   1.110081 S    
C2    O7    1.337707 A    
O12   V3    1.961875 S    
C23   C25   1.390158 A    
C37   C53   1.215646 T    
O5    C3    1.334224 A    
N1    O22   1.300291 A    
C16   C20   1.442528 A    
C19   C21   1.421997 A    
C5    C29   1.393763 A    
C37   C60   1.452171 S    
C35   H11   1.110158 S    
O16   C60   1.333732 A    
C36   H12   1.110144 S    
C6    C30   1.392892 A    
C7    C27   1.405646 A    
N2    O23   1.300294 A    
O14   V4    2.023657 S    
C57   O18   1.327173 A    
C39   C55   1.215243 T    
C2    C39   1.452628 S    
C46   N2    1.456815 S    
H13   C51   1.109240 S    
C18   C26   1.415937 A    
C15   C17   1.440750 A    
O13   C57   1.328518 A    
C19   C27   1.425828 A    
C9    C31   1.398079 A    
C10   C32   1.397522 A    
C24   C26   1.388432 A    
O6    V2    2.023802 S    
C45   C49   1.537644 S    
C38   C54   1.215655 T    
C6    N4    1.437007 S    
C3    C32   1.489751 S    
C48   C56   1.483957 S    
C4    C31   1.491104 S    
C5    N3    1.437805 S    
C47   C55   1.483952 S    
N4    O27   1.301400 A    
N5    O30   1.300438 A    
C41   H17   1.110274 S    
C34   C48   1.545045 S    
C44   C54   1.483548 S    
C35   C51   1.553923 S    
C34   H20   1.110120 S    
C46   C48   1.529066 S    
O15   V3    1.973331 S    
C45   C47   1.529043 S    
C12   H10   1.082826 S    
C36   C44   1.543468 S    
C14   H22   1.075936 S    
C34   C42   1.556841 S    
C13   H21   1.076584 S    
C58   O17   1.329677 A    
C42   C46   1.537448 S    
C41   C43   1.544589 S    
C16   C18   1.440553 A    
O4    V2    1.973601 S    
C9    H7    1.084197 S    
C10   H8    1.084201 S    
C40   C56   1.215238 T    
O11   V4    1.962351 S    
O14   C58   1.326813 A    
H3    C23   1.082201 S    
O6    C4    1.333130 A    
H4    C24   1.081882 S    
H1    C29   1.084415 S    
N3    O26   1.301367 A    
O1    V2    2.008633 S    
C5    C21   1.419130 A    
C25   N5    1.421258 S    
C33   H19   1.110104 S    
O2    V1    2.004565 S    
C49   C51   1.556652 S    
O4    C2    1.341435 A    
C38   C59   1.452181 S    
C33   C35   1.554306 S    
C44   C50   1.543979 S    
C17   C31   1.442012 A    
C15   C19   1.441430 A    
C43   C53   1.483538 S    
C18   C32   1.441798 A    
N6    O32   1.300710 A    
C20   C22   1.423002 A    
C8    C57   1.468556 S    
O15   C59   1.334156 A    
O3    V1    1.973211 S    
C26   N6    1.418934 S    
C28   H6    1.076831 S    
O13   V3    2.016393 S    
O10   V1    1.762519 S    
H14   C52   1.109260 S    
C27   H5    1.077391 S    
C50   C52   1.556653 S    
C1    C40   1.452717 S    
O3    C1    1.342241 A    
N4    O28   1.301307 A    
N5    O29   1.301014 A    
C11   H9    1.082801 S    
C9    C11   1.386914 A    
N1    O21   1.300300 A    
C10   C12   1.386454 A    
C8    C30   1.389035 A    
C45   N1    1.456817 S    
C6    C22   1.419814 A    
C17   C25   1.416443 A    
C12   C14   1.390405 A    
C13   C15   1.414175 A    
O8    V2    1.958241 S    
C22   C24   1.392700 A    
C49   H15   1.110084 S    
N2    O24   1.300294 A    
C33   C41   1.556837 S    
C8    C28   1.404434 A    
O5    V1    2.016526 S    
O20   V3    1.761823 S    
C34   C36   1.554322 S    
C43   C49   1.543978 S    
C41   C45   1.537457 S    
O7    V1    1.957791 S    
O12   C60   1.329670 A    
C20   C28   1.424778 A    
C36   C52   1.553935 S    
C33   C47   1.545028 S    
C1    O8    1.337898 A    
O19   V4    1.756815 S    
O16   V4    1.973723 S    
C21   C23   1.393793 A    
C48   C52   1.545103 S    
O9    V2    1.757502 S    
C42   C44   1.544576 S    
C47   C51   1.545111 S    
C7    C58   1.471742 S    
C35   C43   1.543450 S    
N6    O31   1.300316 A    
H2    C30   1.084398 S    
O17   V3    2.006022 S    
O11   C59   1.330170 A    
