data_mof_unit_65005.cif
_audit_creation_date              2012-12-10T20:33:26-0500
_audit_creation_method            fapswitch 2.2
_symmetry_space_group_name_H-M    P1
_symmetry_Int_Tables_number       1
_space_group_crystal_system       triclinic
_cell_length_a                    14.150072
_cell_length_b                    10.704015
_cell_length_c                    9.869372
_cell_angle_alpha                 90.617085
_cell_angle_beta                  90.213837
_cell_angle_gamma                 89.912406
_cell_volume                      1494.74181127

loop_
_atom_site_label
_atom_site_type_symbol
_atom_type_description
_atom_site_fract_x
_atom_site_fract_y
_atom_site_fract_z
_atom_type_partial_charge
C1    C     C_R   0.504423 0.260211 0.499538 0.923514
C2    C     C_1   0.772308 0.500192 0.500485 -0.097867
C3    C     C_R   0.483208 0.065290 0.612623 -0.019025
C4    C     C_R   0.518032 0.128716 0.501724 -0.226254
C5    C     C_R   0.572288 0.064068 0.403645 0.257718
C6    C     C_R   0.572495 0.932966 0.404811 0.241770
C7    C     C_R   0.518039 0.871349 0.503786 -0.212854
C8    C     C_R   0.482632 0.938648 0.613677 -0.010058
C9    C     C_3   0.390727 0.934593 0.688928 0.387605
C10   C     C_3   0.391905 0.077645 0.686939 0.113183
C11   C     C_R   0.431499 0.560902 0.071597 0.031047
C12   C     C_R   0.329168 0.500071 0.499835 0.911026
C13   C     C_R   0.572286 0.446270 0.071799 -0.109296
C14   C     C_R   0.572187 0.445764 0.927962 0.717801
C15   C     C_R   0.431235 0.560107 0.929282 -0.064199
C16   C     C_3   0.327135 0.538091 0.922190 0.421518
C17   C     C_3   0.327460 0.538302 0.076226 0.661447
C18   C     C_R   0.504224 0.739834 0.500609 0.956410
C19   C     C_R   0.670858 0.500013 0.500171 0.886787
C20   C     C_1   0.227745 0.500318 0.499521 -0.050906
C21   C     C_1   0.142519 0.500536 0.499540 0.086057
C22   C     C_1   0.042663 0.500641 0.499777 0.080142
C23   C     C_1   0.957421 0.500578 0.500068 0.073051
C24   C     C_1   0.857551 0.500383 0.500387 0.054716
H1    H     H_    0.287655 0.616499 0.875488 0.111794
H2    H     H_    0.335523 0.119851 0.623264 0.137655
H3    H     H_    0.629707 0.402218 0.125820 0.197357
N1    N     N_R   0.499420 0.499140 0.142800 -0.103725
N2    N     N_R   0.499420 0.499180 0.857150 -0.117645
O1    O     O_R   0.500010 0.316790 0.614690 -0.557301
O2    O     O_R   0.500000 0.316760 0.385350 -0.568150
O3    O     O_R   0.373720 0.500020 0.614700 -0.569115
O4    O     O_R   0.373710 0.499980 0.385350 -0.550206
O5    O     O_R   0.500000 0.683240 0.614650 -0.600405
O6    O     O_R   0.499990 0.683210 0.385310 -0.570179
O7    O     O_R   0.626290 0.500020 0.614650 -0.554702
O8    O     O_R   0.626280 0.499980 0.385300 -0.602889
Zn1   Zn    Zn3+2 0.500010 0.500020 0.653130 1.096766
Zn2   Zn    Zn3+2 0.499990 0.499980 0.346870 1.079020
Br1   Br    Br    0.646449 0.151368 0.270981 -0.359169
F1    F     F_    0.304827 0.423374 0.130513 -0.559415
Br2   Br    Br    0.258802 0.676964 0.157499 -0.369047
Br3   Br    Br    0.647212 0.841566 0.273254 -0.352918
Br4   Br    Br    0.286766 0.862682 0.584728 -0.444867
Br5   Br    Br    0.405115 0.858095 0.865388 -0.364860
Br6   Br    Br    0.410269 0.163594 0.860326 -0.207563
F2    F     F_    0.643452 0.388028 0.860619 -0.618085
F3    F     F_    0.304940 0.422426 0.866935 -0.565686

loop_
_geom_bond_atom_site_label_1
_geom_bond_atom_site_label_2
_ccdc_geom_bond_type
N2    Zn1   S    
C10   Br6   S    
O6    Zn2   S    
C23   C24   S    
C13   N1    A    
C9    Br5   S    
C14   F2    S    
C7    C18   S    
O3    Zn1   S    
C18   O6    A    
C6    Br3   S    
C1    C4    S    
C10   H2    S    
O7    Zn1   S    
C2    C19   S    
C7    C8    A    
O8    Zn2   S    
C3    C10   S    
C21   C22   S    
C12   O3    A    
C18   O5    A    
C16   F3    S    
O4    Zn2   S    
C12   C20   S    
C11   N1    A    
C1    O1    A    
O2    Zn2   S    
C15   N2    A    
C6    C7    A    
C19   O7    A    
C22   C23   T    
C2    C24   T    
C5    C6    A    
C13   C14   A    
C17   F1    S    
C14   N2    A    
C3    C4    A    
C1    O2    A    
C20   C21   T    
O1    Zn1   S    
C8    C9    S    
C3    C8    A    
C9    C10   S    
C5    Br1   S    
C16   H1    S    
C17   Br2   S    
C16   C17   S    
C9    Br4   S    
C19   O8    A    
N1    Zn2   S    
C12   O4    A    
O5    Zn1   S    
C11   C15   A    
C13   H3    S    
C15   C16   S    
C4    C5    A    
C11   C17   S    
