data_mof_unit_13033.cif
_audit_creation_date              2013-03-05T16:49:42-0500
_audit_creation_method            fapswitch 2.2
_symmetry_space_group_name_H-M    P1
_symmetry_Int_Tables_number       1
_space_group_crystal_system       triclinic
_cell_length_a                    23.455229
_cell_length_b                    10.847525
_cell_length_c                    22.278475
_cell_angle_alpha                 92.914651
_cell_angle_beta                  90.805252
_cell_angle_gamma                 88.12425
_cell_volume                      5657.53686107

loop_
_atom_site_label
_atom_site_type_symbol
_atom_site_description
_atom_site_fract_x
_atom_site_fract_y
_atom_site_fract_z
_atom_type_partial_charge
O1    O     O_R   0.500000 0.319610 0.550310 -0.575963
O2    O     O_R   0.500000 0.680390 0.449690 -0.575974
O3    O     O_R   0.499990 0.319670 0.449690 -0.581608
O4    O     O_R   0.500010 0.680330 0.550310 -0.581698
C1    C     C_R   0.497037 0.261972 0.498410 0.799536
C2    C     C_R   0.502958 0.738025 0.501590 0.799539
O5    O     O_R   0.417880 0.499930 0.550320 -0.590919
O6    O     O_R   0.582120 0.500070 0.449680 -0.590929
O7    O     O_R   0.417880 0.499990 0.449700 -0.575848
O8    O     O_R   0.582120 0.500010 0.550300 -0.575854
C3    C     C_R   0.390875 0.498354 0.499800 0.798525
C4    C     C_R   0.609124 0.501647 0.500201 0.798557
Cu1   Cu    Cu3+1 0.500000 0.499970 0.559570 0.948326
Cu2   Cu    Cu3+1 0.500000 0.500030 0.440430 0.948386
C5    C     C_R   0.879292 0.603974 0.478000 0.517128
C6    C     C_R   0.120705 0.396030 0.522053 0.517125
N1    N     N_R   0.851457 0.506468 0.498579 -0.460428
N2    N     N_R   0.148541 0.493534 0.501472 -0.460421
C7    C     C_R   0.880125 0.405297 0.519428 0.511912
C8    C     C_R   0.119872 0.594705 0.480624 0.511916
C9    C     C_R   0.940425 0.396466 0.517805 -0.061014
C10   C     C_R   0.059572 0.603538 0.482249 -0.061013
C11   C     C_R   0.969840 0.500082 0.499340 -0.030708
C12   C     C_R   0.030157 0.499922 0.500715 -0.030710
C13   C     C_R   0.938995 0.603867 0.479088 -0.020169
C14   C     C_R   0.061002 0.396137 0.520967 -0.020166
C15   C     C_R   0.972469 0.290183 0.535168 -0.010942
C16   C     C_R   0.027529 0.709820 0.464887 -0.010938
C17   C     C_R   0.031946 0.293491 0.538505 -0.224763
C18   C     C_R   0.968052 0.706514 0.461550 -0.224763
O9    O     O_2   0.849085 0.701070 0.457025 -0.589491
O10   O     O_2   0.150913 0.298932 0.543028 -0.589505
O11   O     O_2   0.850060 0.315942 0.542967 -0.559402
O12   O     O_2   0.149937 0.684060 0.457084 -0.559430
H1    H     H_    0.055670 0.212915 0.553097 0.177777
H2    H     H_    0.944327 0.787090 0.446958 0.177774
C19   C     C_R   0.239237 0.543248 0.550868 -0.143824
C20   C     C_R   0.760691 0.564310 0.547303 -0.138876
C21   C     C_R   0.298531 0.544279 0.550398 -0.242190
C22   C     C_R   0.701282 0.562663 0.547922 -0.232177
H3    H     H_    0.320842 0.586250 0.588690 0.155075
H4    H     H_    0.678691 0.606418 0.585699 0.140998
C23   C     C_R   0.328561 0.494418 0.500255 -0.024337
C24   C     C_R   0.671436 0.505586 0.499758 -0.024321
C25   C     C_R   0.298704 0.437373 0.452092 -0.232227
C26   C     C_R   0.701476 0.455675 0.449632 -0.242175
C27   C     C_R   0.239296 0.435721 0.452723 -0.138889
C28   C     C_R   0.760770 0.456703 0.449176 -0.143765
C29   C     C_R   0.209532 0.490080 0.501804 0.382314
C30   C     C_R   0.790465 0.509913 0.498237 0.382298
C31   C     C_R   0.466174 0.130649 0.296348 0.055565
C32   C     C_R   0.533761 0.870083 0.703727 0.055241
C33   C     C_R   0.470050 0.113088 0.358004 -0.196840
C34   C     C_R   0.529908 0.887000 0.642016 -0.196934
H5    H     H_    0.431414 0.100308 0.382849 0.118949
H6    H     H_    0.568562 0.899555 0.617161 0.119089
C35   C     C_R   0.523083 0.101745 0.387550 0.098940
C36   C     C_R   0.476878 0.898245 0.612453 0.098960
C37   C     C_R   0.574025 0.113829 0.355002 0.035182
C38   C     C_R   0.425929 0.886349 0.645023 0.035033
C39   C     C_R   0.569552 0.128875 0.292744 -0.228853
C40   C     C_R   0.430396 0.871725 0.707321 -0.228698
H7    H     H_    0.607497 0.134948 0.266225 0.159465
H8    H     H_    0.392450 0.865831 0.733857 0.159489
C41   C     C_R   0.516452 0.136243 0.263735 -0.161587
C42   C     C_R   0.483491 0.864734 0.736362 -0.161545
C43   C     C_R   0.530737 0.928832 0.455630 -0.054195
C44   C     C_R   0.469240 0.071158 0.544367 -0.054151
C45   C     C_R   0.506088 0.872653 0.504287 -0.166544
C46   C     C_R   0.493896 0.127337 0.495714 -0.166565
C47   C     C_R   0.478760 0.944440 0.550915 -0.043304
C48   C     C_R   0.521211 0.055540 0.449082 -0.043351
C49   C     C_R   0.536870 0.562791 0.872949 0.496215
C50   C     C_R   0.463124 0.437701 0.127035 0.495961
N3    N     N_R   0.493220 0.505422 0.841815 -0.449677
N4    N     N_R   0.506794 0.494970 0.158183 -0.449637
C51   C     C_R   0.452762 0.445466 0.872047 0.550786
C52   C     C_R   0.547236 0.555007 0.127964 0.550848
C53   C     C_R   0.453735 0.446415 0.935535 -0.027800
C54   C     C_R   0.546246 0.554169 0.064474 -0.027742
C55   C     C_R   0.499129 0.500935 0.967998 -0.029613
C56   C     C_R   0.500855 0.499656 0.032004 -0.029574
C57   C     C_R   0.542915 0.555687 0.936466 -0.066327
C58   C     C_R   0.457049 0.444978 0.063534 -0.066489
C59   C     C_R   0.409500 0.395995 0.967019 -0.219207
C60   C     C_R   0.590426 0.604813 0.032997 -0.219355
C61   C     C_R   0.409457 0.398194 0.030162 -0.012577
C62   C     C_R   0.590437 0.602760 0.969857 -0.012863
O13   O     O_2   0.573225 0.629684 0.842573 -0.540060
O14   O     O_2   0.426777 0.370714 0.157373 -0.540284
O15   O     O_2   0.411543 0.385206 0.840927 -0.569755
O16   O     O_2   0.588456 0.615241 0.159096 -0.569757
H9    H     H_    0.373013 0.359589 0.942414 0.184116
H10   H     H_    0.626873 0.641421 0.057598 0.184124
C63   C     C_R   0.551654 0.441947 0.258559 -0.074770
C64   C     C_R   0.448388 0.558348 0.741425 -0.074573
C65   C     C_R   0.545743 0.443478 0.322111 0.009634
C66   C     C_R   0.454286 0.556677 0.677873 0.009536
H11   H     H_    0.577981 0.397145 0.348659 0.138363
H12   H     H_    0.422064 0.603030 0.651310 0.138354
N5    N     N_R   0.500010 0.500010 0.350920 -0.184797
N6    N     N_R   0.499990 0.499990 0.649080 -0.184823
C67   C     C_R   0.457911 0.556519 0.317029 0.149332
C68   C     C_R   0.542082 0.443490 0.682985 0.149197
C69   C     C_R   0.461497 0.554538 0.254165 -0.280919
C70   C     C_R   0.538503 0.445595 0.745852 -0.281152
H13   H     H_    0.427733 0.598264 0.228205 0.152551
H14   H     H_    0.572255 0.401873 0.771829 0.152559
C71   C     C_R   0.507438 0.497031 0.223785 0.303057
C72   C     C_R   0.492583 0.503243 0.776214 0.303214
C73   C     C_R   0.946615 0.170257 0.545336 0.193468
C74   C     C_R   0.953722 0.115388 0.600836 -0.147037
C75   C     C_R   0.930359 0.000785 0.609636 -0.154745
C76   C     C_R   0.899884 0.940304 0.563180 -0.088712
C77   C     C_R   0.893144 0.993866 0.507691 -0.154364
C78   C     C_R   0.917065 0.107488 0.498411 -0.090308
H15   H     H_    0.977133 0.161536 0.637209 0.121275
H16   H     H_    0.935788 0.958972 0.652513 0.124751
H17   H     H_    0.881661 0.851810 0.570104 0.143329
H18   H     H_    0.869586 0.947167 0.471694 0.160959
H19   H     H_    0.912102 0.147272 0.454948 0.112535
C79   C     C_R   0.053383 0.829748 0.454720 0.193477
C80   C     C_R   0.082933 0.892513 0.501646 -0.090343
C81   C     C_R   0.106854 0.006136 0.492367 -0.154410
C82   C     C_R   0.100114 0.059703 0.436879 -0.088698
C83   C     C_R   0.069637 0.999225 0.390423 -0.154726
C84   C     C_R   0.046275 0.884621 0.399221 -0.147036
H20   H     H_    0.087896 0.852726 0.545108 0.112543
H21   H     H_    0.130413 0.052833 0.528366 0.160966
H22   H     H_    0.118336 0.148197 0.429957 0.143336
H23   H     H_    0.064208 0.041041 0.347547 0.124766
H24   H     H_    0.022864 0.838475 0.362847 0.121279
C85   C     C_R   0.631805 0.106194 0.383565 0.096800
C86   C     C_R   0.642851 0.166381 0.439709 -0.170061
C87   C     C_R   0.697513 0.160587 0.465415 -0.135192
C88   C     C_R   0.741761 0.095226 0.435622 -0.103609
C89   C     C_R   0.731500 0.035117 0.379883 -0.140502
C90   C     C_R   0.677003 0.040846 0.353813 -0.121706
H25   H     H_    0.609837 0.220581 0.463036 0.132265
H26   H     H_    0.706006 0.209428 0.507813 0.164807
H27   H     H_    0.784054 0.092155 0.455544 0.147961
H28   H     H_    0.765790 0.984082 0.356798 0.133779
H29   H     H_    0.670052 0.992354 0.310805 0.132044
C91   C     C_R   0.368153 0.893856 0.616437 0.096855
C92   C     C_R   0.357138 0.833525 0.560320 -0.170150
C93   C     C_R   0.302489 0.839238 0.534579 -0.135186
C94   C     C_R   0.258221 0.904654 0.564311 -0.103647
C95   C     C_R   0.268448 0.964906 0.620022 -0.140559
C96   C     C_R   0.322933 0.959266 0.646126 -0.121643
H30   H     H_    0.390167 0.779284 0.537039 0.132284
H31   H     H_    0.294021 0.790291 0.492202 0.164868
H32   H     H_    0.215937 0.907659 0.544362 0.148072
H33   H     H_    0.234144 0.015991 0.643058 0.133809
H34   H     H_    0.329856 0.007892 0.689105 0.132011
C97   C     C_R   0.572980 0.857484 0.416927 0.144226
C98   C     C_R   0.562082 0.827672 0.355698 -0.115312
C99   C     C_R   0.602521 0.759462 0.321218 -0.142529
C100  C     C_R   0.654364 0.721887 0.347195 -0.132750
C101  C     C_R   0.665623 0.751247 0.407859 -0.106851
C102  C     C_R   0.624955 0.817584 0.442776 -0.132320
H35   H     H_    0.523042 0.858864 0.334199 0.118533
H36   H     H_    0.593957 0.737187 0.274138 0.179694
H37   H     H_    0.686125 0.671373 0.320180 0.134997
H38   H     H_    0.706041 0.723285 0.427780 0.166945
H39   H     H_    0.634249 0.839496 0.489812 0.110206
C103  C     C_R   0.426997 0.142529 0.583064 0.144202
C104  C     C_R   0.375024 0.182422 0.557209 -0.132414
C105  C     C_R   0.334364 0.248816 0.592113 -0.106864
C106  C     C_R   0.345634 0.278261 0.652766 -0.132708
C107  C     C_R   0.397472 0.240680 0.678751 -0.142550
C108  C     C_R   0.437898 0.172397 0.644288 -0.115211
H40   H     H_    0.365726 0.160464 0.510178 0.110214
H41   H     H_    0.293947 0.276768 0.572188 0.166978
H42   H     H_    0.313884 0.328846 0.679769 0.134967
H43   H     H_    0.406042 0.263009 0.725826 0.179559
H44   H     H_    0.476930 0.141192 0.665796 0.118523
C109  C     C_R   0.355731 0.364489 0.058583 0.185326
C110  C     C_R   0.332381 0.248464 0.045302 -0.145748
C111  C     C_R   0.279189 0.221285 0.067935 -0.147565
C112  C     C_R   0.249046 0.309381 0.104043 -0.117493
C113  C     C_R   0.272090 0.424704 0.117750 -0.131019
C114  C     C_R   0.324961 0.452786 0.094691 -0.072422
H45   H     H_    0.355107 0.179736 0.017002 0.119101
H46   H     H_    0.261327 0.131865 0.057509 0.118044
H47   H     H_    0.207903 0.288094 0.121566 0.113291
H48   H     H_    0.248698 0.492842 0.145704 0.119285
H49   H     H_    0.341724 0.543599 0.104459 0.107618
C115  C     C_R   0.644026 0.637295 0.941449 0.185019
C116  C     C_R   0.675209 0.549310 0.905570 -0.072883
C117  C     C_R   0.727923 0.578363 0.882452 -0.131075
C118  C     C_R   0.750384 0.694387 0.895862 -0.116868
C119  C     C_R   0.719819 0.782184 0.931742 -0.146267
C120  C     C_R   0.666791 0.754004 0.954449 -0.144439
H50   H     H_    0.658877 0.458023 0.896009 0.107665
H51   H     H_    0.751642 0.510461 0.854672 0.119157
H52   H     H_    0.791405 0.716439 0.878287 0.113014
H53   H     H_    0.737230 0.872145 0.941938 0.117642
H54   H     H_    0.643729 0.822507 0.982574 0.119056
C121  C     C_R   0.604194 0.383651 0.230905 0.152560
C122  C     C_R   0.601731 0.307849 0.177677 -0.135868
C123  C     C_R   0.651394 0.252584 0.153163 -0.153994
C124  C     C_R   0.704064 0.271254 0.181533 -0.111963
C125  C     C_R   0.707188 0.345320 0.234486 -0.129189
C126  C     C_R   0.657700 0.401237 0.259020 -0.143965
H55   H     H_    0.561471 0.288482 0.155631 0.128525
H56   H     H_    0.648935 0.194253 0.112386 0.128165
H57   H     H_    0.742430 0.227935 0.162604 0.121204
H58   H     H_    0.748005 0.359500 0.256599 0.124424
H59   H     H_    0.661338 0.458530 0.299948 0.109009
C127  C     C_R   0.395875 0.616786 0.769067 0.152648
C128  C     C_R   0.342352 0.599185 0.740992 -0.143838
C129  C     C_R   0.292888 0.655218 0.765522 -0.129153
C130  C     C_R   0.296053 0.729407 0.818434 -0.111995
C131  C     C_R   0.348740 0.748084 0.846765 -0.154211
C132  C     C_R   0.398380 0.692708 0.822252 -0.135845
H60   H     H_    0.338684 0.541783 0.700102 0.108961
H61   H     H_    0.252057 0.641028 0.743440 0.124423
H62   H     H_    0.257705 0.772814 0.837359 0.121238
H63   H     H_    0.351232 0.806510 0.887508 0.128245
H64   H     H_    0.438658 0.712085 0.844258 0.128691
C133  C     C_R   0.405605 0.616736 0.342533 0.168578
C134  C     C_R   0.405759 0.738525 0.367146 -0.118074
C135  C     C_R   0.354599 0.801798 0.381860 -0.192997
C136  C     C_R   0.302596 0.745396 0.370474 -0.100839
C137  C     C_R   0.301768 0.625660 0.344489 -0.118417
C138  C     C_R   0.352946 0.561814 0.330308 -0.188397
H65   H     H_    0.444884 0.786775 0.372976 0.135843
H66   H     H_    0.355257 0.895550 0.400961 0.135687
H67   H     H_    0.262938 0.794895 0.381257 0.153043
H68   H     H_    0.261458 0.582550 0.334880 0.138617
H69   H     H_    0.351532 0.470655 0.308341 0.138258
C139  C     C_R   0.594380 0.383210 0.657489 0.168578
C140  C     C_R   0.594204 0.261426 0.632872 -0.118025
C141  C     C_R   0.645352 0.198110 0.618153 -0.192869
C142  C     C_R   0.697366 0.254468 0.629530 -0.100841
C143  C     C_R   0.698218 0.374201 0.655514 -0.118297
C144  C     C_R   0.647052 0.438084 0.669709 -0.188334
H70   H     H_    0.555072 0.213212 0.627041 0.135845
H71   H     H_    0.644675 0.104361 0.599050 0.135668
H72   H     H_    0.737014 0.204936 0.618743 0.152988
H73   H     H_    0.738537 0.417275 0.665118 0.138608
H74   H     H_    0.648488 0.529230 0.691686 0.137606
H75   H     H_    0.216308 0.584602 0.589056 0.129364
H76   H     H_    0.783623 0.606829 0.585024 0.118986
H77   H     H_    0.321286 0.393651 0.414304 0.141005
H78   H     H_    0.679172 0.413670 0.411344 0.155060
H79   H     H_    0.216357 0.393231 0.414999 0.118948
H80   H     H_    0.783707 0.415317 0.411001 0.129348
H81   H     H_    0.514604 0.147389 0.215793 0.144851
H82   H     H_    0.485357 0.854175 0.784354 0.144976
C145  C     C_R   0.409448 0.135425 0.266215 0.135370
C146  C     C_R   0.400216 0.070468 0.210844 -0.114875
C147  C     C_R   0.345619 0.068022 0.184931 -0.095671
C148  C     C_R   0.299903 0.130649 0.213784 -0.075330
C149  C     C_R   0.308810 0.197674 0.268073 -0.137689
C150  C     C_R   0.363227 0.199879 0.294306 -0.148839
H83   H     H_    0.434749 0.018631 0.188541 0.110496
H84   H     H_    0.338627 0.016345 0.142773 0.113515
H85   H     H_    0.257521 0.127045 0.194129 0.110251
H86   H     H_    0.273450 0.246979 0.290167 0.114563
H87   H     H_    0.369234 0.251397 0.336695 0.110002
C151  C     C_R   0.590459 0.866126 0.733896 0.135758
C152  C     C_R   0.636649 0.800688 0.706270 -0.147153
C153  C     C_R   0.691094 0.803930 0.732405 -0.136292
C154  C     C_R   0.700053 0.873077 0.786099 -0.075433
C155  C     C_R   0.654354 0.936721 0.814496 -0.097420
C156  C     C_R   0.599723 0.933162 0.788706 -0.116845
H88   H     H_    0.630590 0.747731 0.664271 0.109734
H89   H     H_    0.726443 0.753856 0.710667 0.114261
H90   H     H_    0.742460 0.877516 0.805656 0.109786
H91   H     H_    0.661390 0.990054 0.856199 0.113254
H92   H     H_    0.565185 0.985789 0.810601 0.110947

loop_
_geom_bond_atom_site_label_1
_geom_bond_atom_site_label_2
_geom_bond_distance
_ccdc_geom_bond_type
C2    C45   1.462763 S    
C89   H28   1.082287 S    
C42   H82   1.081213 S    
C122  H55   1.080060 S    
C19   H75   1.082840 S    
C41   H81   1.081097 S    
C15   C17   1.397519 A    
C106  C107  1.396932 A    
C109  C114  1.406429 A    
C73   C74   1.404785 A    
C86   H25   1.079715 S    
C58   C61   1.425412 A    
C96   H34   1.082267 S    
C136  C137  1.395471 A    
C27   H79   1.082765 S    
C92   C93   1.397684 A    
C80   H20   1.083238 S    
C28   H80   1.082840 S    
C80   C81   1.396822 A    
C21   H3    1.082784 S    
C130  C131  1.395732 A    
C28   C30   1.397743 A    
O5    C3    1.283342 A    
C69   H13   1.084933 S    
C148  C149  1.395884 A    
C50   N4    1.376407 A    
C144  H74   1.082074 S    
O1    C1    1.288299 A    
C134  H65   1.074304 S    
C43   C97   1.493372 S    
C98   C99   1.397824 A    
C7    C9    1.415300 A    
C12   C14   1.408400 A    
O8    Cu1   1.940083 S    
C75   C76   1.397640 A    
C90   H29   1.082271 S    
C44   C47   1.399995 A    
C101  C102  1.397083 A    
C34   C36   1.403918 A    
C147  C148  1.397064 A    
C60   C62   1.405695 A    
C36   C47   1.485126 S    
C68   C139  1.477921 S    
C107  C108  1.397827 A    
C36   C38   1.419578 A    
C120  H54   1.083155 S    
C70   C72   1.393554 A    
C121  C126  1.408970 A    
O4    Cu1   1.977718 S    
N3    C51   1.371145 A    
C83   H23   1.082240 S    
C143  C144  1.398005 A    
C38   C40   1.406989 A    
C43   C48   1.399904 A    
C31   C41   1.398405 A    
C4    C24   1.463757 S    
C79   C84   1.404785 A    
C45   C47   1.414257 A    
C20   H76   1.082762 S    
C118  H52   1.082330 S    
C40   H8    1.080784 S    
C60   H10   1.084358 S    
C65   H11   1.080266 S    
C84   H24   1.083046 S    
C59   H9    1.084338 S    
C116  H50   1.083408 S    
C99   C100  1.396939 A    
C94   C95   1.394475 A    
C24   C26   1.404385 A    
C153  C154  1.396315 A    
C64   C66   1.423652 A    
C126  H59   1.081006 S    
C122  C123  1.397645 A    
C54   C60   1.401531 A    
C142  C143  1.395462 A    
C100  C101  1.396211 A    
C154  H90   1.081824 S    
C3    C23   1.463799 S    
C73   C78   1.405353 A    
Cu1   Cu2   2.654288 S    
C31   C145  1.482419 S    
C154  C155  1.397133 A    
C92   H30   1.079722 S    
C141  H71   1.082774 S    
C8    O12   1.348581 S    
C33   H5    1.084875 S    
C57   C62   1.425446 A    
C9    C15   1.422724 A    
C89   C90   1.397395 A    
C15   C73   1.482195 S    
C85   C90   1.410134 A    
N5    C67   1.381082 A    
C10   C16   1.422723 A    
C150  H87   1.082475 S    
C105  H41   1.081999 S    
C49   N3    1.376397 A    
C131  H63   1.082335 S    
O2    C2    1.288287 A    
C62   C115  1.482593 S    
C147  H84   1.082310 S    
C68   C70   1.403258 A    
C74   C75   1.398772 A    
C55   C57   1.415504 A    
C32   C34   1.397512 A    
C146  H83   1.082695 S    
C55   C56   1.426727 A    
C34   H6    1.084927 S    
C107  H43   1.081848 S    
C51   C53   1.413805 A    
C6    C14   1.400185 A    
C87   H26   1.078563 S    
C35   C37   1.419483 A    
C26   C28   1.391355 A    
C37   C39   1.406870 A    
C64   C127  1.492875 S    
C124  C125  1.395582 A    
C40   C42   1.396930 A    
C59   C61   1.405724 A    
C118  C119  1.397845 A    
C110  C111  1.398073 A    
C152  C153  1.396797 A    
C95   C96   1.397400 A    
C26   H78   1.082785 S    
C135  C136  1.396708 A    
C27   C29   1.399872 A    
C7    O11   1.348579 S    
C76   C77   1.397258 A    
C25   H77   1.081512 S    
C104  C105  1.397085 A    
C53   C55   1.408016 A    
O7    Cu2   1.940086 S    
C33   C35   1.403890 A    
C135  H66   1.082776 S    
N4    C71   1.460413 S    
Cu2   N5    1.994141 S    
C21   C23   1.404402 A    
C52   O16   1.348742 S    
C113  C114  1.397554 A    
C64   C72   1.420049 A    
C133  C138  1.406008 A    
C37   C85   1.490719 S    
C93   C94   1.394160 A    
C93   H31   1.078572 S    
C103  C108  1.407628 A    
C139  C144  1.406028 A    
C115  C116  1.406392 A    
C31   C33   1.397607 A    
C143  H73   1.082359 S    
C106  H42   1.081593 S    
C140  H70   1.074261 S    
C117  C118  1.396973 A    
C133  C134  1.404497 A    
C61   C109  1.482799 S    
C85   C86   1.405991 A    
C19   C29   1.397739 A    
C156  H92   1.082875 S    
C128  C129  1.397147 A    
C151  C156  1.406975 A    
C54   C56   1.408006 A    
O5    Cu1   1.934268 S    
O6    C4    1.283366 A    
C152  H88   1.082870 S    
C39   H7    1.080780 S    
C137  C138  1.398007 A    
C145  C146  1.406828 A    
C52   C54   1.413885 A    
C116  C117  1.397598 A    
C67   C69   1.403234 A    
C119  H53   1.082405 S    
N6    C68   1.381082 A    
C23   C25   1.401563 A    
O7    C3    1.292266 A    
C151  C152  1.407258 A    
O3    Cu2   1.977718 S    
O8    C4    1.292226 A    
C117  H51   1.082377 S    
C14   C17   1.399405 A    
C100  H37   1.081588 S    
C63   C121  1.492929 S    
C105  C106  1.396213 A    
C8    C10   1.415295 A    
C115  C120  1.405126 A    
C77   H18   1.081505 S    
C66   H12   1.080275 S    
C124  H57   1.082252 S    
C9    C11   1.419276 A    
C63   C71   1.420091 A    
C82   C83   1.397642 A    
C10   C12   1.419277 A    
O4    C2    1.283975 A    
O1    Cu1   1.956847 S    
C141  C142  1.396699 A    
C149  C150  1.396725 A    
C53   C59   1.401504 A    
C32   C42   1.398255 A    
C112  C113  1.396823 A    
N4    C52   1.371198 A    
C77   C78   1.396821 A    
C111  H46   1.082270 S    
C140  C141  1.397388 A    
C16   C79   1.482195 S    
C13   C18   1.399406 A    
C5    N1    1.363129 A    
C69   C71   1.393535 A    
C149  H86   1.082524 S    
C51   O15   1.348757 S    
N3    C72   1.460356 S    
O6    Cu2   1.934263 S    
C91   C96   1.410170 A    
C97   C102  1.405776 A    
C131  C132  1.397648 A    
C109  C110  1.405085 A    
C153  H89   1.082616 S    
C81   C82   1.397258 A    
C110  H45   1.083091 S    
C50   C58   1.425782 A    
C91   C92   1.406003 A    
O3    C1    1.284009 A    
C1    C46   1.462863 S    
N1    C30   1.429755 S    
C98   H35   1.079924 S    
C113  H48   1.082317 S    
C63   C65   1.423758 A    
C5    O9    1.349675 S    
C104  H40   1.083395 S    
C20   C30   1.399880 A    
C111  C112  1.397773 A    
C6    O10   1.349674 S    
C127  C132  1.409829 A    
C32   C151  1.481976 S    
C108  H44   1.079909 S    
C17   H1    1.082248 S    
C86   C87   1.397679 A    
C56   C58   1.415444 A    
C137  H68   1.082360 S    
C123  C124  1.395724 A    
C18   H2    1.082249 S    
C155  H91   1.082776 S    
C130  H62   1.082252 S    
C119  C120  1.398084 A    
C50   O14   1.348453 S    
C102  H39   1.083398 S    
C94   H32   1.081275 S    
Cu1   N6    1.994141 S    
C49   O13   1.348444 S    
C16   C18   1.397518 A    
C19   C21   1.391361 A    
C66   N6    1.369254 A    
C136  H67   1.082460 S    
C67   C133  1.477860 S    
C125  H58   1.082413 S    
C20   C22   1.394419 A    
C145  C150  1.407396 A    
C74   H15   1.083048 S    
C76   H17   1.082460 S    
C70   H14   1.084929 S    
C148  H85   1.081690 S    
C83   C84   1.398774 A    
C22   H4    1.081586 S    
C139  C140  1.404494 A    
N1    C7    1.366403 A    
C88   H27   1.081268 S    
C49   C57   1.425886 A    
C81   H21   1.081506 S    
C128  H60   1.081023 S    
C123  H56   1.082334 S    
N2    C8    1.366405 A    
C114  H49   1.083291 S    
C11   C13   1.408399 A    
C35   C48   1.485038 S    
C134  C135  1.397393 A    
O2    Cu2   1.956846 S    
C65   N5    1.369275 A    
C121  C122  1.409852 A    
C87   C88   1.394168 A    
C155  C156  1.397796 A    
C82   H22   1.082459 S    
C11   C12   1.414603 A    
C75   H16   1.082241 S    
C39   C41   1.396900 A    
C22   C24   1.401590 A    
C25   C27   1.394409 A    
C129  C130  1.395593 A    
C5    C13   1.400185 A    
C6    N2    1.363128 A    
C127  C128  1.408960 A    
C129  H61   1.082412 S    
C112  H47   1.082264 S    
C97   C98   1.407618 A    
C79   C80   1.405353 A    
C44   C46   1.410176 A    
C101  H38   1.082001 S    
C88   C89   1.394477 A    
C46   C48   1.414240 A    
C78   H19   1.083238 S    
C125  C126  1.397141 A    
C43   C45   1.410169 A    
C95   H33   1.082299 S    
C132  H64   1.080067 S    
C99   H36   1.081837 S    
C103  C104  1.405773 A    
C142  H72   1.082456 S    
C38   C91   1.490793 S    
C138  H69   1.082078 S    
N2    C29   1.429749 S    
C146  C147  1.397770 A    
C44   C103  1.493391 S    
