data_mof_unit_62656.cif
_audit_creation_date              2012-10-26T19:41:09-0400
_audit_creation_method            fapswitch 2.2
_symmetry_space_group_name_H-M    P1
_symmetry_Int_Tables_number       1
_space_group_crystal_system       triclinic
_cell_length_a                    11.695918
_cell_length_b                    10.980596
_cell_length_c                    9.833291
_cell_angle_alpha                 109.863587
_cell_angle_beta                  97.905503
_cell_angle_gamma                 91.523981
_cell_volume                      1172.79757735

loop_
_atom_site_label
_atom_site_type_symbol
_atom_type_description
_atom_site_fract_x
_atom_site_fract_y
_atom_site_fract_z
_atom_type_partial_charge
C1    C     C_R   0.486484 0.254443 0.442910 0.557273
C2    C     C_2   0.494303 0.883261 0.583830 -0.073884
C3    C     C_2   0.440741 0.067520 0.515503 0.219961
C4    C     C_2   0.437150 0.928023 0.483972 0.218214
C5    C     C_2   0.501312 0.524249 0.086629 0.354892
C6    C     C_2   0.475370 0.510802 0.926045 0.360023
C7    C     C_R   0.502341 0.745226 0.557148 0.560019
C8    C     C_R   0.284218 0.500008 0.501174 0.564287
C9    C     C_R   0.715781 0.500012 0.498834 0.539864
C10   C     C_1   0.162751 0.500351 0.503000 0.033224
C11   C     C_1   0.837273 0.499711 0.497050 0.007163
C12   C     C_1   0.060085 0.500219 0.501556 -0.000518
C13   C     C_1   0.939950 0.499868 0.498532 -0.010310
C14   C     C_2   0.471800 0.115500 0.415596 -0.074783
Cl1   Cl    Cl    0.353129 0.827940 0.316718 -0.560364
Cl2   Cl    Cl    0.400203 0.163173 0.684009 -0.547575
Cu1   Cu    Cu3+1 0.519790 0.521810 0.644910 1.078762
Cu2   Cu    Cu3+1 0.480210 0.478190 0.355090 1.089923
H1    H     H_    0.537799 0.950963 0.688169 0.116903
H2    H     H_    0.488260 0.049812 0.310417 0.117546
H3    H     H_    0.630445 0.590370 0.921496 0.180011
H4    H     H_    0.397577 0.367388 0.064937 0.205479
H5    H     H_    0.314127 0.455202 0.911653 0.310157
H6    H     H_    0.588111 0.690931 0.140373 0.302839
N1    N     N_2   0.450460 0.445430 0.137370 -0.299970
N2    N     N_2   0.549540 0.554570 0.862630 -0.310493
O1    O     O_R   0.510560 0.332330 0.577400 -0.419275
O2    O     O_3   0.578990 0.622356 0.183235 -0.636586
O3    O     O_R   0.489440 0.667670 0.422600 -0.391451
O4    O     O_R   0.477140 0.295500 0.332650 -0.509538
O5    O     O_R   0.522860 0.704500 0.667350 -0.509227
O6    O     O_R   0.353910 0.518430 0.622380 -0.422839
O7    O     O_R   0.646090 0.481570 0.377620 -0.452988
O8    O     O_R   0.320490 0.481600 0.377630 -0.490341
O9    O     O_R   0.679510 0.518400 0.622370 -0.509762
O10   O     O_3   0.370586 0.452023 0.844423 -0.596633

loop_
_geom_bond_atom_site_label_1
_geom_bond_atom_site_label_2
_ccdc_geom_bond_type
C2    C4    D    
H3    N2    S    
Cu2   O4    S    
C3    C14   D    
C5    O2    S    
C9    C11   S    
C2    C7    S    
C1    O1    A    
C4    Cl1   S    
Cu1   Cu2   S    
Cu2   O3    S    
C8    O8    A    
C9    O7    A    
Cu2   O8    S    
C6    N2    D    
Cu2   N1    S    
C10   C12   T    
C5    N1    D    
Cu1   N2    S    
C1    O4    A    
C6    O10   S    
C5    C6    S    
Cu1   O5    S    
Cu2   O7    S    
C7    O5    A    
C7    O3    A    
Cu1   O1    S    
C14   H2    S    
C11   C13   T    
C12   C13   S    
H6    O2    S    
C8    C10   S    
H5    O10   S    
C9    O9    A    
Cu1   O6    S    
C1    C14   S    
Cu1   O9    S    
C2    H1    S    
C3    Cl2   S    
C3    C4    S    
H4    N1    S    
C8    O6    A    
