data_mof_unit_8909.cif
_audit_creation_date              2012-12-11T14:13:29-0500
_audit_creation_method            fapswitch 2.2
_symmetry_space_group_name_H-M    P1
_symmetry_Int_Tables_number       1
_space_group_crystal_system       triclinic
_cell_length_a                    11.603917
_cell_length_b                    18.490513
_cell_length_c                    9.936705
_cell_angle_alpha                 90.000022
_cell_angle_beta                  111.045241
_cell_angle_gamma                 89.999983
_cell_volume                      1989.82974289

loop_
_atom_site_label
_atom_site_type_symbol
_atom_type_description
_atom_site_fract_x
_atom_site_fract_y
_atom_site_fract_z
_atom_type_partial_charge
C1    C     C_R   0.073329 0.646105 0.140212 0.551594
C2    C     C_2   0.594422 0.076273 0.092945 0.235549
C3    C     C_2   0.594422 0.423727 0.092945 0.235549
C4    C     C_2   0.375018 0.561167 0.973060 0.242697
C5    C     C_2   0.441730 0.981838 0.082905 -0.161587
C6    C     C_2   0.475839 0.056165 0.060207 -0.165336
C7    C     C_2   0.475838 0.443834 0.060207 -0.165337
C8    C     C_2   0.441729 0.518162 0.082905 -0.161585
C9    C     C_2   0.013113 0.923289 0.114209 -0.104217
C10   C     C_2   0.991892 0.078192 0.887724 -0.115169
C11   C     C_2   0.991892 0.421808 0.887724 -0.115169
C12   C     C_R   0.927417 0.353619 0.860057 0.559215
C13   C     C_2   0.013113 0.576711 0.114209 -0.104216
C14   C     C_2   0.028301 0.964847 0.012548 -0.157889
C15   C     C_2   0.985121 0.038161 0.995868 -0.148339
C16   C     C_2   0.985120 0.461839 0.995867 -0.148339
C17   C     C_2   0.028300 0.535153 0.012548 -0.157890
C18   C     C_R   0.469458 0.646973 0.443457 0.519449
C19   C     C_R   0.530247 0.352748 0.555900 0.532428
C20   C     C_R   0.530247 0.147252 0.555900 0.532428
C21   C     C_R   0.469458 0.853027 0.443457 0.519450
C22   C     C_R   0.354751 0.636509 0.004267 0.596335
C23   C     C_R   0.927417 0.146381 0.860057 0.559215
C24   C     C_R   0.623354 0.354932 0.038860 0.586902
C25   C     C_R   0.623354 0.145068 0.038860 0.586902
C26   C     C_R   0.354751 0.863491 0.004267 0.596336
C27   C     C_R   0.505808 0.424288 0.486474 -0.039089
C28   C     C_R   0.493110 0.574875 0.510595 -0.030042
C29   C     C_R   0.493110 0.925125 0.510596 -0.030043
C30   C     C_R   0.505808 0.075712 0.486474 -0.039089
C31   C     C_R   0.282768 0.415439 0.433877 -0.085759
C32   C     C_R   0.716354 0.583405 0.562526 -0.076132
C33   C     C_R   0.716354 0.916595 0.562527 -0.076132
C34   C     C_R   0.073329 0.853895 0.140212 0.551593
C35   C     C_R   0.282768 0.084561 0.433877 -0.085759
C36   C     C_R   0.174577 0.445618 0.439257 -0.130211
C37   C     C_R   0.824289 0.553056 0.556669 -0.126599
C38   C     C_R   0.824289 0.946944 0.556669 -0.126599
C39   C     C_R   0.174578 0.054382 0.439257 -0.130211
C40   C     C_R   0.175107 0.516447 0.485996 -0.095572
C41   C     C_R   0.823307 0.482265 0.509531 -0.093797
C42   C     C_R   0.823308 0.017735 0.509532 -0.093796
C43   C     C_R   0.175107 0.983553 0.485997 -0.095572
C44   C     C_R   0.281434 0.558509 0.518254 -0.014981
C45   C     C_R   0.392449 0.456738 0.471581 0.006953
C46   C     C_R   0.716708 0.440450 0.477086 -0.035794
C47   C     C_R   0.716709 0.059550 0.477086 -0.035793
C48   C     C_R   0.281435 0.941491 0.518255 -0.014981
C49   C     C_R   0.389303 0.530923 0.500798 0.009550
C50   C     C_R   0.609244 0.468201 0.495195 0.000861
C51   C     C_R   0.609244 0.031799 0.495195 0.000862
C52   C     C_R   0.389303 0.969077 0.500799 0.009550
C53   C     C_R   0.606388 0.542337 0.524802 0.008401
C54   C     C_R   0.606388 0.957663 0.524803 0.008401
C55   C     C_R   0.392449 0.043262 0.471581 0.006953
C56   C     C_2   0.375017 0.938833 0.973060 0.242695
Cr1   Cr    Cr6+3 0.187610 0.750000 0.979860 1.015077
Cr2   Cr    Cr6+3 0.812390 0.250000 0.020140 1.023528
Cr3   Cr    Cr6+3 0.245810 0.750000 0.341640 1.002516
Cr4   Cr    Cr6+3 0.754190 0.250000 0.658360 1.005016
Cr5   Cr    Cr6+3 0.485760 0.750000 0.219910 1.016094
Cr6   Cr    Cr6+3 0.514240 0.250000 0.780090 1.010998
H1    H     H_    0.091478 0.413321 0.411655 0.111993
H2    H     H_    0.718544 0.387240 0.432887 0.154937
H3    H     H_    0.718545 0.112760 0.432887 0.154937
H4    H     H_    0.279051 0.888339 0.562354 0.177808
H5    H     H_    0.402136 0.093001 0.000662 0.107616
H6    H     H_    0.479329 0.959711 0.191372 0.110744
H7    H     H_    0.479327 0.540289 0.191372 0.110743
H8    H     H_    0.402136 0.406999 0.000663 0.107617
H9    H     H_    0.940699 0.058082 0.068309 0.187412
H10   H     H_    0.076509 0.945467 0.943593 0.170046
H11   H     H_    0.076508 0.554533 0.943592 0.170045
H12   H     H_    0.907573 0.585188 0.584334 0.114017
H13   H     H_    0.940697 0.441918 0.068307 0.187413
H14   H     H_    0.280990 0.359464 0.400960 0.114778
H15   H     H_    0.718665 0.639302 0.596066 0.126103
H16   H     H_    0.718665 0.860698 0.596066 0.126103
H17   H     H_    0.280990 0.140536 0.400960 0.114778
H18   H     H_    0.667883 0.986451 0.196211 0.334539
H19   H     H_    0.348042 0.011604 0.819505 0.334014
H20   H     H_    0.348045 0.488396 0.819503 0.334014
H21   H     H_    0.667883 0.513549 0.196213 0.334539
H22   H     H_    0.030540 0.056860 0.811000 0.111304
H23   H     H_    0.907573 0.914811 0.584335 0.114017
H24   H     H_    0.970285 0.943830 0.187602 0.121135
H25   H     H_    0.970285 0.556170 0.187602 0.121136
H26   H     H_    0.030541 0.443140 0.811001 0.111303
H27   H     H_    0.091478 0.086679 0.411655 0.111993
H28   H     H_    0.093044 0.538991 0.497443 0.114814
H29   H     H_    0.905170 0.459587 0.497807 0.116581
H30   H     H_    0.905170 0.040413 0.497808 0.116581
H31   H     H_    0.093045 0.961009 0.497444 0.114814
H32   H     H_    0.279050 0.611661 0.562353 0.177808
O1    O     O_R   0.267710 0.668200 0.902110 -0.477687
O2    O     O_R   0.883280 0.330790 0.732340 -0.519391
O3    O     O_R   0.883280 0.169210 0.732340 -0.519391
O4    O     O_R   0.116720 0.830790 0.267660 -0.518580
O5    O     O_R   0.366710 0.675440 0.427590 -0.511400
O6    O     O_R   0.633290 0.324560 0.572410 -0.515632
O7    O     O_R   0.633290 0.175440 0.572410 -0.515632
O8    O     O_R   0.366710 0.824560 0.427590 -0.511400
O9    O     O_R   0.534870 0.669390 0.371760 -0.524238
O10   O     O_R   0.465130 0.330610 0.628240 -0.507316
O11   O     O_R   0.465130 0.169390 0.628240 -0.507316
O12   O     O_R   0.732290 0.331800 0.097890 -0.493362
O13   O     O_R   0.534870 0.830610 0.371760 -0.524238
O14   O     O_R   0.453080 0.674480 0.075160 -0.502667
O15   O     O_R   0.546920 0.325520 0.924840 -0.527144
O16   O     O_R   0.546920 0.174480 0.924840 -0.527144
O17   O     O_R   0.453080 0.825520 0.075160 -0.502667
O18   O     O_3   0.306390 0.750000 0.180470 -0.289079
O19   O     O_3   0.693610 0.250000 0.819530 -0.238871
O20   O     O_3   0.694490 0.032021 0.164428 -0.715453
O21   O     O_3   0.320377 0.962313 0.831664 -0.715469
O22   O     O_3   0.320380 0.537687 0.831664 -0.715468
O23   O     O_R   0.732290 0.168200 0.097890 -0.493361
O24   O     O_3   0.694490 0.467979 0.164427 -0.715453
O25   O     O_R   0.267710 0.831800 0.902110 -0.477686
O26   O     O_R   0.099480 0.674460 0.038850 -0.518626
O27   O     O_R   0.900520 0.325540 0.961150 -0.502942
O28   O     O_R   0.900520 0.174460 0.961150 -0.502942
O29   O     O_R   0.099480 0.825540 0.038850 -0.518626
O30   O     O_R   0.116720 0.669210 0.267660 -0.518580

loop_
_geom_bond_atom_site_label_1
_geom_bond_atom_site_label_2
_ccdc_geom_bond_type
C44   C49   A    
C37   H12   S    
C34   O29   A    
C16   H13   S    
Cr3   O5    S    
C22   O1    A    
C5    C56   D    
C4    C8    D    
C7    H8    S    
C3    C24   S    
C7    C8    S    
Cr6   O11   S    
C20   C30   S    
C8    H7    S    
H21   O24   S    
C47   H3    S    
Cr5   O9    S    
C30   C51   A    
C38   C42   A    
C3    C7    D    
C10   C15   D    
C5    C6    S    
C33   H16   S    
Cr1   O18   S    
C29   C54   A    
Cr3   O30   S    
C11   C16   D    
C35   H17   S    
Cr5   O14   S    
C34   O4    A    
C32   H15   S    
C12   O27   A    
C16   C17   S    
Cr2   O19   S    
C41   C46   A    
C36   H1    S    
C19   C27   S    
C43   C48   A    
C40   C44   A    
C27   C50   A    
Cr1   O25   S    
C27   C45   A    
C17   H11   S    
H19   O21   S    
Cr4   O19   S    
C2    C6    D    
C5    H6    S    
C23   O28   A    
Cr6   O10   S    
Cr2   O28   S    
C50   C53   A    
C38   H23   S    
C35   C55   A    
C36   C40   A    
C18   C28   S    
C26   O25   A    
Cr6   O19   S    
Cr4   O3    S    
C39   C43   A    
C20   O7    A    
C21   C29   S    
Cr2   O23   S    
C46   H2    S    
Cr2   O12   S    
C1    O26   A    
C35   C39   A    
C9    C14   D    
C3    O24   S    
C9    H24   S    
Cr1   O29   S    
C4    C22   S    
C19   O10   A    
Cr6   O16   S    
C45   C49   A    
C11   H26   S    
C28   C53   A    
C13   H25   S    
Cr3   O18   S    
C32   C37   A    
C21   O13   A    
C25   O16   A    
Cr1   O26   S    
C21   O8    A    
Cr4   O2    S    
C6    H5    S    
C23   O3    A    
H18   O20   S    
Cr1   O1    S    
C9    C34   S    
C24   O12   A    
C18   O5    A    
Cr4   O7    S    
Cr5   O17   S    
C32   C53   A    
C20   O11   A    
C25   O23   A    
C33   C54   A    
Cr2   O27   S    
C41   H29   S    
C14   C15   S    
Cr3   O8    S    
C14   H10   S    
C4    O22   S    
C24   O15   A    
Cr4   O6    S    
C26   C56   S    
C47   C51   A    
C19   O6    A    
C52   C55   A    
C10   C23   S    
C15   H9    S    
C30   C55   A    
C46   C50   A    
C33   C38   A    
C13   C17   D    
C51   C54   A    
C48   H4    S    
C1    O30   A    
H20   O22   S    
C18   O9    A    
C2    O20   S    
C31   H14   S    
Cr6   O15   S    
C22   O14   A    
C10   H22   S    
C43   H31   S    
C56   O21   S    
C28   C49   A    
C2    C25   S    
C42   H30   S    
C42   C47   A    
C37   C41   A    
Cr5   O13   S    
C44   H32   S    
C48   C52   A    
C1    C13   S    
C31   C45   A    
Cr3   O4    S    
C31   C36   A    
C12   O2    A    
C40   H28   S    
Cr5   O18   S    
C26   O17   A    
C39   H27   S    
C11   C12   S    
C29   C52   A    
