data_mof_unit_27317.cif
_audit_creation_date              2012-12-11T15:22:28-0500
_audit_creation_method            fapswitch 2.2
_symmetry_space_group_name_H-M    P1
_symmetry_Int_Tables_number       1
_space_group_crystal_system       triclinic
_cell_length_a                    22.320202
_cell_length_b                    12.991671
_cell_length_c                    26.738813
_cell_angle_alpha                 90.078269
_cell_angle_beta                  91.269751
_cell_angle_gamma                 90.002901
_cell_volume                      7751.72213718

loop_
_atom_site_label
_atom_site_type_symbol
_atom_type_description
_atom_site_fract_x
_atom_site_fract_y
_atom_site_fract_z
_atom_type_partial_charge
C1    C     C_R   0.704241 0.304949 0.172997 0.566787
C2    C     C_R   0.295880 0.304734 0.826947 0.567452
C3    C     C_R   0.204628 0.805184 0.173108 0.561151
C4    C     C_R   0.795781 0.805010 0.826985 0.566162
C5    C     C_R   0.476700 0.163091 0.871240 -0.003274
C6    C     C_R   0.521716 0.163575 0.129546 -0.004238
C7    C     C_R   0.975007 0.663754 0.872082 -0.004001
C8    C     C_R   0.018858 0.662269 0.130665 -0.010657
C9    C     C_R   0.516822 0.258154 0.104385 -0.140896
C10   C     C_R   0.482411 0.257707 0.896358 -0.141177
C11   C     C_R   0.009272 0.756748 0.106312 -0.152137
C12   C     C_R   0.977446 0.758080 0.897861 -0.137852
C13   C     C_R   0.505996 0.259681 0.052752 0.011921
C14   C     C_R   0.492405 0.259356 0.948119 0.012719
C15   C     C_R   0.998131 0.758428 0.054622 0.004975
C16   C     C_R   0.985998 0.759305 0.949791 0.012324
C17   C     C_R   0.500668 0.165551 0.026647 0.065268
C18   C     C_R   0.495725 0.165342 0.974433 0.065222
C19   C     C_R   0.996192 0.664592 0.027931 0.061049
C20   C     C_R   0.991714 0.665125 0.975651 0.062185
C21   C     C_R   0.503723 0.352929 0.026378 -0.147064
C22   C     C_R   0.496204 0.352785 0.974358 -0.147127
C23   C     C_R   0.992842 0.851884 0.028679 -0.148799
C24   C     C_R   0.986200 0.852273 0.976571 -0.145612
C25   C     C_R   0.743837 0.941529 0.134157 0.022423
C26   C     C_R   0.256165 0.944452 0.866663 0.022963
C27   C     C_R   0.243777 0.441426 0.134133 0.024966
C28   C     C_R   0.756331 0.442176 0.865959 0.022272
C29   C     C_R   0.802869 0.927555 0.118576 -0.129180
C30   C     C_R   0.199741 0.952878 0.888499 -0.130372
C31   C     C_R   0.302820 0.425700 0.118939 -0.122247
C32   C     C_R   0.697333 0.427221 0.881390 -0.129501
C33   C     C_R   0.813838 0.886625 0.071435 -0.120702
C34   C     C_R   0.191031 0.916671 0.936716 -0.120222
C35   C     C_R   0.313847 0.384408 0.071850 -0.119232
C36   C     C_R   0.686438 0.386402 0.928526 -0.121071
C37   C     C_R   0.765891 0.861194 0.038707 0.034712
C38   C     C_R   0.238573 0.871272 0.963901 0.035249
C39   C     C_R   0.265962 0.360419 0.038770 0.034562
C40   C     C_R   0.734424 0.362160 0.961418 0.034556
C41   C     C_R   0.706946 0.869315 0.055673 -0.116340
C42   C     C_R   0.293870 0.856676 0.940889 -0.117151
C43   C     C_R   0.206932 0.370469 0.055352 -0.115711
C44   C     C_R   0.793392 0.371625 0.944651 -0.116289
C45   C     C_R   0.552354 0.157338 0.178188 0.542778
C46   C     C_R   0.447371 0.157326 0.822017 0.544012
C47   C     C_R   0.051668 0.657193 0.178551 0.537546
C48   C     C_R   0.946995 0.657407 0.822292 0.542934
C49   C     C_R   0.696045 0.908484 0.103135 -0.125517
C50   C     C_R   0.302611 0.892918 0.892567 -0.124261
C51   C     C_R   0.195967 0.409901 0.102756 -0.126831
C52   C     C_R   0.804218 0.410580 0.897192 -0.125599
C53   C     C_R   0.740258 0.769016 0.958389 -0.117334
C54   C     C_R   0.277366 0.874856 0.052106 -0.121063
C55   C     C_R   0.239606 0.269542 0.958213 -0.118559
C56   C     C_R   0.760718 0.270778 0.041711 -0.117314
C57   C     C_R   0.746146 0.758268 0.906758 -0.131776
C58   C     C_R   0.268982 0.861262 0.103166 -0.111087
C59   C     C_R   0.245499 0.259015 0.906572 -0.130925
C60   C     C_R   0.754727 0.259757 0.093303 -0.131163
C61   C     C_R   0.826739 0.883216 0.908774 -0.119318
C62   C     C_R   0.169710 0.793055 0.085536 -0.138227
C63   C     C_R   0.328226 0.379723 0.909115 -0.119251
C64   C     C_R   0.672476 0.381439 0.091150 -0.118678
C65   C     C_R   0.820534 0.894581 0.960094 -0.112300
C66   C     C_R   0.178037 0.805925 0.034520 -0.114674
C67   C     C_R   0.322017 0.390928 0.960468 -0.112046
C68   C     C_R   0.678794 0.393137 0.039869 -0.113081
C69   C     C_R   0.776696 0.838784 0.985409 0.038240
C70   C     C_R   0.231730 0.848037 0.017379 0.028830
C71   C     C_R   0.277004 0.337382 0.985520 0.036468
C72   C     C_R   0.723551 0.339220 0.014645 0.037620
C73   C     C_R   0.788562 0.817072 0.881324 0.019160
C74   C     C_R   0.214656 0.821671 0.120014 0.030818
C75   C     C_R   0.288918 0.316048 0.881373 0.019246
C76   C     C_R   0.711458 0.316932 0.118665 0.019299
C77   C     C_R   0.529791 0.174004 0.371177 -0.024662
C78   C     C_R   0.471846 0.173954 0.628976 -0.020786
C79   C     C_R   0.028160 0.674125 0.371028 -0.020817
C80   C     C_R   0.970160 0.673788 0.628799 -0.024668
C81   C     C_R   0.550362 0.259093 0.398626 -0.126162
C82   C     C_R   0.463040 0.269390 0.605513 -0.124394
C83   C     C_R   0.037081 0.769501 0.394634 -0.124535
C84   C     C_R   0.949611 0.758875 0.601439 -0.125958
C85   C     C_R   0.531804 0.278297 0.447174 0.303113
C86   C     C_R   0.472886 0.283699 0.554350 0.321118
C87   C     C_R   0.027349 0.783722 0.445846 0.321182
C88   C     C_R   0.968263 0.778152 0.552953 0.302974
C89   C     C_R   0.731636 0.000038 0.179851 0.544875
C90   C     C_R   0.268361 0.000433 0.820272 0.546230
C91   C     C_R   0.231632 0.500015 0.179843 0.547032
C92   C     C_R   0.768387 0.500187 0.820166 0.544360
C93   C     C_R   0.498616 0.201067 0.471409 0.076680
C94   C     C_R   0.492950 0.198325 0.526478 0.079672
C95   C     C_R   0.007234 0.698337 0.473587 0.079703
C96   C     C_R   0.001531 0.701007 0.528652 0.076701
C97   C     C_R   0.476474 0.116468 0.443255 -0.167323
C98   C     C_R   0.506778 0.105045 0.551260 -0.174377
C99   C     C_R   0.993284 0.605146 0.448657 -0.174350
C100  C     C_R   0.023613 0.616365 0.556694 -0.167293
C101  C     C_R   0.491753 0.103155 0.393333 -0.149876
C102  C     C_R   0.495563 0.092407 0.601898 -0.151844
C103  C     C_R   0.004410 0.592585 0.397989 -0.151624
C104  C     C_R   0.008242 0.602979 0.606578 -0.149634
C105  C     C_R   0.719083 0.034973 0.382693 0.025123
C106  C     C_R   0.280392 0.033537 0.617304 0.024919
C107  C     C_R   0.219753 0.533330 0.382722 0.025132
C108  C     C_R   0.781058 0.535193 0.617332 0.025099
C109  C     C_R   0.665529 0.010623 0.406846 -0.114495
C110  C     C_R   0.333900 0.009240 0.593147 -0.113099
C111  C     C_R   0.166253 0.509181 0.406900 -0.113043
C112  C     C_R   0.834606 0.510611 0.593202 -0.114577
C113  C     C_R   0.664872 0.999604 0.458719 -0.098584
C114  C     C_R   0.334532 0.998096 0.541324 -0.098960
C115  C     C_R   0.165695 0.497833 0.458703 -0.098774
C116  C     C_R   0.835337 0.499816 0.541309 -0.098751
C117  C     C_R   0.717759 0.013025 0.487213 0.072638
C118  C     C_R   0.281645 0.011286 0.512872 0.070848
C119  C     C_R   0.218648 0.510676 0.487127 0.070964
C120  C     C_R   0.782529 0.513692 0.512782 0.072551
C121  C     C_R   0.770784 0.039153 0.463092 -0.072805
C122  C     C_R   0.228409 0.036786 0.536896 -0.073121
C123  C     C_R   0.271894 0.535960 0.463086 -0.072882
C124  C     C_R   0.729533 0.540160 0.536884 -0.073232
C125  C     C_R   0.771489 0.050838 0.411462 -0.117356
C126  C     C_R   0.227799 0.048613 0.588586 -0.117879
C127  C     C_R   0.272428 0.548022 0.411413 -0.117775
C128  C     C_R   0.728749 0.551569 0.588534 -0.117561
C129  C     C_R   0.750982 0.044726 0.576607 0.078727
C130  C     C_R   0.251568 0.044652 0.423026 0.081323
C131  C     C_R   0.248797 0.544249 0.576990 0.081330
C132  C     C_R   0.749345 0.545170 0.423405 0.078869
C133  C     C_R   0.721923 0.348298 0.321676 0.543936
C134  C     C_R   0.277882 0.348519 0.678546 0.545580
C135  C     C_R   0.222108 0.848565 0.321461 0.543685
C136  C     C_R   0.778065 0.848254 0.678333 0.543810
C137  C     C_R   0.768459 0.001224 0.622447 -0.103981
C138  C     C_R   0.235085 0.002304 0.376617 -0.113869
C139  C     C_R   0.265156 0.502056 0.623408 -0.113225
C140  C     C_R   0.731746 0.501500 0.377577 -0.104113
C141  C     C_R   0.717124 0.843101 0.599806 -0.130462
C142  C     C_R   0.280646 0.840209 0.400840 -0.131114
C143  C     C_R   0.219218 0.340142 0.599182 -0.130978
C144  C     C_R   0.782761 0.343195 0.400213 -0.130444
C145  C     C_R   0.701473 0.884559 0.553430 -0.123700
C146  C     C_R   0.296217 0.881158 0.447316 -0.127485
C147  C     C_R   0.203786 0.380920 0.552685 -0.127194
C148  C     C_R   0.798544 0.384840 0.446566 -0.123919
C149  C     C_R   0.720731 0.983585 0.540412 0.046101
C150  C     C_R   0.279058 0.981593 0.459796 0.042055
C151  C     C_R   0.221207 0.481155 0.540200 0.042228
C152  C     C_R   0.779520 0.484072 0.459578 0.045902
C153  C     C_R   0.753366 0.899114 0.633497 0.003435
C154  C     C_R   0.247083 0.898652 0.366351 -0.000069
C155  C     C_R   0.252916 0.398537 0.633682 0.000309
C156  C     C_R   0.746633 0.399246 0.366534 0.003356
C157  C     C_R   0.554530 0.159271 0.321559 0.535573
C158  C     C_R   0.445815 0.159335 0.678450 0.537732
C159  C     C_R   0.054166 0.659413 0.321539 0.537544
C160  C     C_R   0.945436 0.659188 0.678422 0.536675
C161  C     C_R   0.718979 0.048973 0.328095 0.567470
C162  C     C_R   0.280872 0.048500 0.671849 0.567813
C163  C     C_R   0.219172 0.548468 0.328194 0.566901
C164  C     C_R   0.781062 0.548999 0.671948 0.567824
C165  C     C_R   0.509412 0.071310 0.104121 -0.134241
C166  C     C_R   0.486638 0.070575 0.897073 -0.128156
C167  C     C_R   0.008902 0.569591 0.104805 -0.129015
C168  C     C_R   0.986573 0.571492 0.897639 -0.131697
C169  C     C_R   0.501435 0.071212 0.052663 0.009017
C170  C     C_R   0.493467 0.070752 0.948601 0.011285
C171  C     C_R   0.000208 0.569914 0.053421 0.010068
C172  C     C_R   0.992625 0.571077 0.949287 0.010140
C173  C     C_R   0.494753 0.977499 0.974767 -0.137302
C174  C     C_R   0.497957 0.977753 0.026669 -0.141369
C175  C     C_R   0.996544 0.477499 0.975023 -0.138001
C176  C     C_R   0.999684 0.476875 0.026937 -0.137860
Cr1   Cr    Cr6+3 0.756570 0.170940 0.251190 1.009527
Cr2   Cr    Cr6+3 0.243430 0.170940 0.748810 1.010593
Cr3   Cr    Cr6+3 0.256570 0.670940 0.251190 1.011974
Cr4   Cr    Cr6+3 0.743430 0.670940 0.748810 1.008843
Cr5   Cr    Cr6+3 0.623740 0.299110 0.249580 1.000521
Cr6   Cr    Cr6+3 0.376260 0.299110 0.750420 0.996146
Cr7   Cr    Cr6+3 0.123740 0.799110 0.249580 0.999736
Cr8   Cr    Cr6+3 0.876260 0.799110 0.750420 1.001452
Cr9   Cr    Cr6+3 0.625990 0.036240 0.250480 1.014370
Cr10  Cr    Cr6+3 0.374010 0.036240 0.749520 1.012300
Cr11  Cr    Cr6+3 0.125990 0.536240 0.250480 1.012906
Cr12  Cr    Cr6+3 0.874010 0.536240 0.749520 1.015453
H1    H     H_    0.483241 0.997205 0.877807 0.131536
H2    H     H_    0.512014 0.998140 0.123542 0.129722
H3    H     H_    0.985448 0.498481 0.877912 0.130784
H4    H     H_    0.014377 0.496201 0.123650 0.132791
H5    H     H_    0.860970 0.927748 0.890570 0.126757
H6    H     H_    0.128578 0.759385 0.098188 0.115518
H7    H     H_    0.363317 0.422556 0.891090 0.127023
H8    H     H_    0.637521 0.424485 0.109291 0.127631
H9    H     H_    0.669006 0.851657 0.031221 0.106052
H10   H     H_    0.330899 0.820334 0.960888 0.103058
H11   H     H_    0.169019 0.354073 0.030662 0.106017
H12   H     H_    0.831369 0.355053 0.969220 0.106599
H13   H     H_    0.650043 0.919041 0.114204 0.128049
H14   H     H_    0.346559 0.885216 0.876589 0.125983
H15   H     H_    0.149964 0.421857 0.113511 0.126293
H16   H     H_    0.850196 0.422051 0.886265 0.127914
H17   H     H_    0.583856 0.309359 0.383054 0.143341
H18   H     H_    0.443997 0.331462 0.626634 0.134551
H19   H     H_    0.056123 0.831551 0.373576 0.134485
H20   H     H_    0.916077 0.809106 0.617036 0.143413
H21   H     H_    0.524138 0.039967 0.530747 0.108580
H22   H     H_    0.449293 0.058116 0.460684 0.115251
H23   H     H_    0.050821 0.558043 0.539199 0.115211
H24   H     H_    0.975883 0.540077 0.469070 0.108668
H25   H     H_    0.502818 0.017958 0.619168 0.137141
H26   H     H_    0.475972 0.036079 0.372876 0.138148
H27   H     H_    0.024007 0.535909 0.626955 0.138619
H28   H     H_    0.997065 0.518179 0.380599 0.137440
H29   H     H_    0.624245 0.999046 0.385658 0.143170
H30   H     H_    0.375174 0.997807 0.614330 0.141013
H31   H     H_    0.124916 0.498070 0.385744 0.140949
H32   H     H_    0.875817 0.498629 0.614417 0.143221
H33   H     H_    0.794324 0.046688 0.649168 0.150886
H34   H     H_    0.211891 0.049406 0.349013 0.143786
H35   H     H_    0.288457 0.549168 0.651011 0.143905
H36   H     H_    0.705961 0.546948 0.350860 0.150867
H37   H     H_    0.492348 0.904522 0.955129 0.102154
H38   H     H_    0.498994 0.904952 0.046421 0.101762
H39   H     H_    0.996577 0.404870 0.955027 0.102778
H40   H     H_    0.003164 0.403823 0.046317 0.103054
H41   H     H_    0.623544 0.978189 0.476482 0.101698
H42   H     H_    0.375837 0.976563 0.523549 0.100071
H43   H     H_    0.124375 0.476495 0.476483 0.100004
H44   H     H_    0.876640 0.478134 0.523554 0.101727
H45   H     H_    0.677578 0.836544 0.526527 0.137822
H46   H     H_    0.318216 0.831914 0.474709 0.144877
H47   H     H_    0.181662 0.331684 0.525291 0.144648
H48   H     H_    0.822328 0.336815 0.473466 0.138105
H49   H     H_    0.704133 0.764800 0.607991 0.123940
H50   H     H_    0.291535 0.760722 0.393111 0.126043
H51   H     H_    0.208114 0.260797 0.606919 0.125799
H52   H     H_    0.795558 0.264739 0.392040 0.124180
H53   H     H_    0.812273 0.047110 0.484017 0.122469
H54   H     H_    0.186749 0.043972 0.515883 0.124508
H55   H     H_    0.313603 0.542870 0.484077 0.124741
H56   H     H_    0.688107 0.548530 0.515925 0.122257
H57   H     H_    0.813362 0.070417 0.394126 0.123350
H58   H     H_    0.185919 0.067860 0.606013 0.126027
H59   H     H_    0.314302 0.567163 0.393973 0.125954
H60   H     H_    0.686884 0.571332 0.605857 0.123096
H61   H     H_    0.475274 0.329331 0.876334 0.117239
H62   H     H_    0.525595 0.329679 0.124162 0.118669
H63   H     H_    0.968823 0.829601 0.878139 0.119395
H64   H     H_    0.015807 0.828438 0.126507 0.124538
H65   H     H_    0.493565 0.425526 0.954659 0.099412
H66   H     H_    0.507845 0.425754 0.045950 0.100245
H67   H     H_    0.981478 0.925138 0.957216 0.100552
H68   H     H_    0.994220 0.924513 0.048633 0.106494
H69   H     H_    0.840447 0.951379 0.142172 0.126567
H70   H     H_    0.163081 0.992025 0.869329 0.127336
H71   H     H_    0.340391 0.448310 0.142830 0.126987
H72   H     H_    0.659707 0.450025 0.857638 0.126120
H73   H     H_    0.706848 0.723516 0.977075 0.104901
H74   H     H_    0.318799 0.909094 0.039915 0.111832
H75   H     H_    0.205351 0.225522 0.976659 0.106427
H76   H     H_    0.794795 0.226546 0.023101 0.104239
H77   H     H_    0.717465 0.704188 0.886774 0.136055
H78   H     H_    0.304338 0.883219 0.129462 0.127338
H79   H     H_    0.215933 0.206658 0.886386 0.134051
H80   H     H_    0.784028 0.206805 0.113316 0.135895
H81   H     H_    0.859792 0.878774 0.059835 0.115449
H82   H     H_    0.148060 0.929562 0.953696 0.107232
H83   H     H_    0.359851 0.375050 0.060603 0.113021
H84   H     H_    0.640470 0.377526 0.939942 0.113219
H85   H     H_    0.848821 0.949990 0.979563 0.100732
H86   H     H_    0.142506 0.783252 0.008524 0.122513
H87   H     H_    0.351199 0.444674 0.980131 0.104743
H88   H     H_    0.649847 0.447417 0.020391 0.101122
O1    O     O_R   0.769900 0.064540 0.196060 -0.527557
O2    O     O_R   0.230100 0.064540 0.803940 -0.528802
O3    O     O_R   0.269900 0.564540 0.196060 -0.516877
O4    O     O_R   0.730100 0.564540 0.803940 -0.527888
O5    O     O_R   0.574760 0.239320 0.300850 -0.506175
O6    O     O_R   0.425240 0.239320 0.699150 -0.507680
O7    O     O_R   0.074760 0.739320 0.300850 -0.507479
O8    O     O_R   0.925240 0.739320 0.699150 -0.505634
O9    O     O_R   0.566290 0.069580 0.305400 -0.527360
O10   O     O_R   0.433710 0.069580 0.694600 -0.527487
O11   O     O_R   0.066290 0.569580 0.305400 -0.527218
O12   O     O_R   0.933710 0.569580 0.694600 -0.526710
O13   O     O_R   0.680760 0.993330 0.302620 -0.483965
O14   O     O_R   0.319240 0.993330 0.697380 -0.485752
O15   O     O_R   0.180760 0.493330 0.302620 -0.485812
O16   O     O_R   0.819240 0.493330 0.697380 -0.483978
O17   O     O_3   0.668770 0.168760 0.250420 -0.285034
O18   O     O_3   0.331230 0.168760 0.749580 -0.283328
O19   O     O_3   0.168770 0.668760 0.250420 -0.283307
O20   O     O_3   0.831230 0.668760 0.749580 -0.285794
O21   O     O_R   0.750800 0.274080 0.199250 -0.495139
O22   O     O_R   0.249200 0.274080 0.800750 -0.496167
O23   O     O_R   0.250800 0.774080 0.199250 -0.499574
O24   O     O_R   0.749200 0.774080 0.800750 -0.495014
O25   O     O_R   0.669990 0.371670 0.194150 -0.513692
O26   O     O_R   0.330010 0.371670 0.805850 -0.514764
O27   O     O_R   0.169990 0.871670 0.194150 -0.503324
O28   O     O_R   0.830010 0.871670 0.805850 -0.514084
O29   O     O_R   0.574600 0.238480 0.197800 -0.516164
O30   O     O_R   0.425400 0.238480 0.802200 -0.516476
O31   O     O_R   0.074600 0.738480 0.197800 -0.516714
O32   O     O_R   0.925400 0.738480 0.802200 -0.515673
O33   O     O_R   0.566130 0.068680 0.194240 -0.520379
O34   O     O_R   0.433870 0.068680 0.805760 -0.519421
O35   O     O_R   0.066130 0.568680 0.194240 -0.519564
O36   O     O_R   0.933870 0.568680 0.805760 -0.519489
O37   O     O_R   0.680610 0.992490 0.199570 -0.494858
O38   O     O_R   0.319390 0.992490 0.800430 -0.496360
O39   O     O_R   0.180610 0.492490 0.199570 -0.497386
O40   O     O_R   0.819390 0.492490 0.800430 -0.495156
O41   O     O_R   0.770060 0.065440 0.307230 -0.513441
O42   O     O_R   0.229940 0.065440 0.692770 -0.512414
O43   O     O_R   0.270060 0.565440 0.307230 -0.514173
O44   O     O_R   0.729940 0.565440 0.692770 -0.513458
O45   O     O_R   0.750960 0.274920 0.302300 -0.512845
O46   O     O_R   0.249040 0.274920 0.697700 -0.512013
O47   O     O_R   0.250960 0.774920 0.302300 -0.513288
O48   O     O_R   0.749040 0.774920 0.697700 -0.513019
O49   O     O_R   0.670160 0.372580 0.305320 -0.516990
O50   O     O_R   0.329840 0.372580 0.694680 -0.518508
O51   O     O_R   0.170160 0.872580 0.305320 -0.518513
O52   O     O_R   0.829840 0.872580 0.694680 -0.517099
O53   O     O_3   0.553738 0.364026 0.472625 -0.539803
C177  C     C_3   0.537229 0.455688 0.446514 0.024550
H89   H     H_    0.489497 0.473934 0.453271 0.172807
H90   H     H_    0.541427 0.451280 0.405251 0.107428
C178  C     C_3   0.577625 0.544066 0.464037 -0.264959
H91   H     H_    0.581889 0.544603 0.505478 0.164362
H92   H     H_    0.622760 0.531984 0.448483 0.184060
C179  C     C_3   0.553608 0.648079 0.446269 -0.481965
H93   H     H_    0.550778 0.650297 0.404755 0.163458
H94   H     H_    0.584205 0.710234 0.459550 0.171293
H95   H     H_    0.508489 0.662362 0.461572 0.133555
O54   O     O_3   0.455368 0.374204 0.530005 -0.551900
C180  C     C_3   0.468202 0.464199 0.558810 0.009415
H96   H     H_    0.487207 0.523163 0.534111 0.145235
H97   H     H_    0.503205 0.452522 0.588708 0.126183
C181  C     C_3   0.410787 0.511104 0.579306 -0.272869
H98   H     H_    0.384304 0.545246 0.547952 0.173585
H99   H     H_    0.382685 0.451340 0.596746 0.185278
C182  C     C_3   0.425300 0.595192 0.617630 -0.466456
H100  H     H_    0.449721 0.561988 0.650466 0.147588
H101  H     H_    0.383300 0.630863 0.630671 0.180896
H102  H     H_    0.453199 0.656105 0.600622 0.147252
O55   O     O_3   0.044995 0.874131 0.470342 -0.551897
C183  C     C_3   0.032202 0.964208 0.441709 0.009390
H103  H     H_    0.013451 0.023270 0.466568 0.145033
H104  H     H_    0.997021 0.952699 0.411922 0.126433
C184  C     C_3   0.089591 0.010863 0.421073 -0.272981
H105  H     H_    0.116116 0.045382 0.452344 0.173065
H106  H     H_    0.117684 0.950915 0.403693 0.185499
C185  C     C_3   0.075021 0.094528 0.382659 -0.466028
H107  H     H_    0.050648 0.060923 0.349850 0.148210
H108  H     H_    0.116993 0.130199 0.369601 0.180936
H109  H     H_    0.047055 0.155528 0.399594 0.147161
O56   O     O_3   0.946351 0.863869 0.527596 -0.539997
C186  C     C_3   0.962846 0.955517 0.553841 0.024525
H110  H     H_    0.010652 0.973544 0.547295 0.172884
H111  H     H_    0.958372 0.951190 0.595076 0.107756
C187  C     C_3   0.922677 0.044033 0.536235 -0.264871
H112  H     H_    0.918568 0.044421 0.494785 0.164410
H113  H     H_    0.877459 0.032244 0.551656 0.184201
C188  C     C_3   0.946811 0.148000 0.554113 -0.481683
H114  H     H_    0.949461 0.150377 0.595633 0.163679
H115  H     H_    0.916386 0.210262 0.540762 0.171401
H116  H     H_    0.992027 0.161986 0.538956 0.133461
I1    I     I_    0.769965 0.203045 0.565074 -0.468156
I2    I     I_    0.235022 0.203596 0.434932 -0.476351
I3    I     I_    0.265631 0.703061 0.565113 -0.476189
I4    I     I_    0.730616 0.703624 0.434955 -0.467683

loop_
_geom_bond_atom_site_label_1
_geom_bond_atom_site_label_2
_ccdc_geom_bond_type
C99   C103  A    
C7    C168  A    
C146  H46   S    
C55   C59   A    
C126  H58   S    
C142  C146  A    
C131  C151  A    
C19   C20   A    
C45   O29   A    
C53   C69   A    
C92   O40   A    
C178  H91   S    
C108  C164  S    
C37   C69   S    
C26   C50   A    
C95   C99   A    
C29   C33   A    
C100  C104  A    
C185  H109  S    
C3    C74   S    
C9    C13   A    
C163  O43   A    
C21   H66   S    
C146  C150  A    
C77   C101  A    
Cr7   O51   S    
C12   C16   A    
C56   C72   A    
C169  C174  A    
C124  H56   S    
C172  C175  A    
C141  C145  A    
C188  H116  S    
C138  C154  A    
C6    C165  A    
C21   C22   A    
C119  C151  S    
C41   C49   A    
Cr12  O16   S    
C50   H14   S    
C165  C169  A    
C177  H89   S    
C27   C31   A    
C143  H51   S    
C28   C32   A    
Cr9   O13   S    
O54   C180  S    
Cr10  O10   S    
C62   C66   A    
C167  C171  A    
C98   C102  A    
C60   C76   A    
C29   H69   S    
Cr6   O30   S    
Cr8   O52   S    
C44   H12   S    
C128  H60   S    
Cr2   O2    S    
C102  H25   S    
C134  C155  S    
C54   C70   A    
C36   C40   A    
C16   C20   A    
C183  H103  S    
C165  H2    S    
C137  C153  A    
C2    O26   A    
C3    O23   A    
Cr8   O28   S    
C20   C172  A    
C132  C152  A    
C62   H6    S    
C130  C138  A    
C178  C179  S    
C139  H35   S    
C160  O8    A    
C84   C88   A    
C179  H93   S    
Cr6   O6    S    
C119  C123  A    
C26   C90   S    
C5    C46   S    
C105  C125  A    
C7    C48   S    
Cr6   O26   S    
Cr3   O23   S    
C8    C47   S    
C107  C127  A    
C173  H37   S    
C136  C153  S    
C66   C70   A    
C131  I3    S    
C140  C156  A    
C61   C65   A    
C158  O6    A    
C129  C137  A    
C39   C71   S    
C185  H108  S    
C47   O31   A    
C4    O24   A    
C148  H48   S    
C89   O37   A    
C103  H28   S    
C55   C71   A    
C2    C75   S    
C92   O4    A    
Cr10  O38   S    
C147  C151  A    
O55   C183  S    
C134  O46   A    
Cr4   O4    S    
C46   O34   A    
C6    C9    A    
C123  H55   S    
C129  C149  A    
C12   H63   S    
C32   C36   A    
Cr5   O17   S    
O56   C186  S    
C138  H34   S    
C183  C184  S    
C53   H73   S    
C144  H52   S    
C25   C29   A    
C161  O41   A    
Cr8   O32   S    
C81   H17   S    
C57   C73   A    
C83   H19   S    
C85   C93   A    
C78   C158  S    
C42   H10   S    
C87   C95   A    
C130  C150  A    
C23   C24   A    
C27   C91   S    
C110  C114  A    
C44   C52   A    
C130  I2    S    
C164  O44   A    
C116  H44   S    
C79   C103  A    
C111  H31   S    
C179  H95   S    
C27   C51   A    
C180  H97   S    
C112  H32   S    
C7    C12   A    
C176  H40   S    
C98   H21   S    
C49   H13   S    
C30   C34   A    
C65   H85   S    
C32   H72   S    
C41   H9    S    
C10   C14   A    
C164  O16   A    
C140  H36   S    
C133  O49   A    
C108  C128  A    
C116  C120  A    
C144  C156  A    
C161  O13   A    
C121  C125  A    
C84   H20   S    
C123  C127  A    
C139  C155  A    
C89   O1    A    
C17   C18   A    
C36   H84   S    
C5    C166  A    
C142  C154  A    
C91   O3    A    
C187  C188  S    
C4    C73   S    
Cr12  O20   S    
C42   C50   A    
C113  C117  A    
C184  H106  S    
C107  C163  S    
C26   C30   A    
C115  C119  A    
C186  C187  S    
C105  C161  S    
Cr9   O17   S    
Cr10  O14   S    
C61   H5    S    
C82   H18   S    
Cr11  O19   S    
C58   C74   A    
Cr4   O44   S    
C184  H105  S    
C105  C109  A    
C40   C72   S    
C30   H70   S    
C1    C76   S    
C107  C111  A    
C34   H82   S    
C148  C152  A    
C23   H68   S    
C117  C149  S    
C113  H41   S    
C117  C121  A    
C171  C176  A    
C100  H23   S    
C11   H64   S    
C13   C17   A    
C166  H1    S    
C14   C22   A    
C9    H62   S    
Cr3   O47   S    
C182  H102  S    
C141  C153  A    
C63   C75   A    
C64   H8    S    
C37   C41   A    
C163  O15   A    
C109  H29   S    
C40   C44   A    
C181  H98   S    
C125  H57   S    
C81   C85   A    
C188  H115  S    
C83   C87   A    
C88   C96   A    
Cr1   O17   S    
C6    C45   S    
C145  H45   S    
C78   C102  A    
C133  C156  S    
C88   O56   S    
Cr3   O19   S    
Cr2   O22   S    
Cr7   O19   S    
C80   C84   A    
C15   C19   A    
C135  C154  S    
C177  H90   S    
C80   C104  A    
C1    O21   A    
C60   H80   S    
C79   C159  S    
C80   C160  S    
C112  C116  A    
C94   C98   A    
C135  O47   A    
C137  H33   S    
C175  H39   S    
C47   O35   A    
C4    O28   A    
C118  C150  S    
C187  H112  S    
C22   H65   S    
C90   O38   A    
Cr12  O12   S    
C177  C178  S    
C183  H104  S    
C159  O7    A    
C186  H110  S    
Cr11  O39   S    
C46   O30   A    
C124  C128  A    
C18   C170  A    
Cr4   O20   S    
Cr1   O21   S    
Cr7   O31   S    
Cr6   O18   S    
C51   H15   S    
C178  H92   S    
C162  O42   A    
C179  H94   S    
C182  H100  S    
C53   C57   A    
C157  O9    A    
C61   C73   A    
C173  C174  A    
C33   C37   A    
C56   C60   A    
C52   H16   S    
C48   O36   A    
Cr12  O36   S    
C35   C39   A    
C8    C167  A    
C93   C97   A    
Cr4   O48   S    
C181  C182  S    
C77   C81   A    
C101  H26   S    
Cr9   O33   S    
Cr11  O35   S    
C38   C70   S    
C63   H7    S    
C66   H86   S    
Cr1   O41   S    
C64   C68   A    
Cr3   O43   S    
C133  O45   A    
C121  H53   S    
C142  H50   S    
C104  H27   S    
Cr8   O8    S    
C162  O14   A    
C132  C140  A    
C106  C126  A    
C25   C89   S    
C143  C155  A    
C90   O2    A    
C174  H38   S    
C45   O33   A    
Cr4   O24   S    
Cr12  O40   S    
C82   C86   A    
C79   C83   A    
C43   C51   A    
C65   C69   A    
C86   O54   S    
C67   C71   A    
C106  C162  S    
C67   H87   S    
Cr10  O18   S    
C25   C49   A    
Cr11  O15   S    
C108  C112  A    
C168  C172  A    
Cr7   O7    S    
C134  O50   A    
C62   C74   A    
C31   H71   S    
C145  C149  A    
C170  C173  A    
C147  H47   S    
C93   C94   S    
Cr2   O46   S    
O53   C177  S    
C14   C18   A    
C95   C96   S    
C85   O53   S    
C144  C148  A    
Cr8   O20   S    
C122  H54   S    
C180  H96   S    
C143  C147  A    
C167  H4    S    
C168  H3    S    
C129  I1    S    
C55   H75   S    
C56   H76   S    
C19   C171  A    
C38   C42   A    
C118  C122  A    
C17   C169  A    
C96   C100  A    
C78   C82   A    
C132  I4    S    
Cr9   O9    S    
C86   C94   A    
Cr11  O11   S    
C175  C176  A    
Cr5   O29   S    
Cr2   O18   S    
C59   H79   S    
C115  H43   S    
C68   C72   A    
Cr5   O49   S    
C15   C23   A    
Cr3   O3    S    
C16   C24   A    
C186  H111  S    
C1    O25   A    
Cr1   O45   S    
C2    O22   A    
Cr2   O42   S    
C3    O27   A    
C99   H24   S    
C135  O51   A    
C63   C67   A    
C120  C152  S    
C97   H22   S    
C13   C21   A    
C54   H74   S    
C48   O32   A    
C131  C139  A    
C91   O39   A    
C39   C43   A    
C159  O11   A    
C160  O12   A    
C122  C126  A    
C24   H67   S    
Cr5   O5    S    
C182  H101  S    
C68   H88   S    
C58   H78   S    
C64   C76   A    
Cr5   O25   S    
C28   C92   S    
C109  C113  A    
Cr7   O27   S    
C114  C118  A    
C181  H99   S    
C11   C15   A    
C59   C75   A    
C157  O5    A    
C188  H114  S    
C54   C58   A    
C180  C181  S    
C158  O10   A    
C141  H49   S    
C33   H81   S    
C34   C38   A    
C35   H83   S    
C87   O55   S    
C114  H42   S    
C43   H11   S    
Cr1   O1    S    
Cr9   O37   S    
Cr6   O50   S    
Cr10  O34   S    
C10   H61   S    
C5    C10   A    
C28   C52   A    
C8    C11   A    
C166  C170  A    
C136  O48   A    
C31   C35   A    
C185  H107  S    
C110  H30   S    
C187  H113  S    
C136  O52   A    
C57   H77   S    
C184  C185  S    
C127  H59   S    
C106  C110  A    
C111  C115  A    
C97   C101  A    
C120  C124  A    
C77   C157  S    
