data_mof_unit_51997.cif
_audit_creation_date              2012-12-10T17:00:39-0500
_audit_creation_method            fapswitch 2.2
_symmetry_space_group_name_H-M    P1
_symmetry_Int_Tables_number       1
_space_group_crystal_system       triclinic
_cell_length_a                    27.770541
_cell_length_b                    10.946068
_cell_length_c                    9.859016
_cell_angle_alpha                 89.122268
_cell_angle_beta                  90.617534
_cell_angle_gamma                 92.171699
_cell_volume                      2994.26635682

loop_
_atom_site_label
_atom_site_type_symbol
_atom_type_description
_atom_site_fract_x
_atom_site_fract_y
_atom_site_fract_z
_atom_type_partial_charge
C1    C     C_R   0.498957 0.265609 0.500859 0.875006
C2    C     C_R   0.278425 0.494463 0.372419 0.544108
C3    C     C_R   0.253735 0.513630 0.493474 0.269067
C4    C     C_R   0.101883 0.513180 0.490717 -0.056105
C5    C     C_R   0.126193 0.413463 0.546968 -0.012995
C6    C     C_R   0.099596 0.313792 0.601642 -0.176651
C7    C     C_R   0.128639 0.613577 0.436006 -0.032398
C8    C     C_R   0.354684 0.504748 0.497273 -0.092406
C9    C     C_R   0.645402 0.498703 0.501292 -0.026077
C10   C     C_R   0.973863 0.398516 0.511246 -0.033012
C11   C     C_R   0.975415 0.618299 0.453257 -0.130301
C12   C     C_R   0.407686 0.501014 0.499269 0.826918
C13   C     C_R   0.949263 0.507308 0.483272 -0.043419
C14   C     C_R   0.946840 0.285687 0.513227 0.418645
C15   C     C_R   0.896846 0.284929 0.523496 -0.225198
C16   C     C_R   0.872194 0.393625 0.511947 -0.050646
C17   C     C_R   0.898155 0.504478 0.485435 -0.112604
C18   C     C_R   0.872905 0.611562 0.458726 -0.197755
C19   C     C_R   0.822405 0.607584 0.473058 0.552731
C20   C     C_R   0.821719 0.392926 0.517766 0.558408
C21   C     C_R   0.721610 0.484828 0.623252 -0.107050
C22   C     C_R   0.671344 0.486294 0.623794 -0.223264
C23   C     C_R   0.499852 0.734375 0.498806 0.842186
C24   C     C_R   0.670671 0.509643 0.378614 -0.215366
C25   C     C_R   0.720801 0.508826 0.378489 -0.120974
C26   C     C_R   0.746418 0.496429 0.500577 0.357537
C27   C     C_R   0.024473 0.405467 0.530958 0.037045
C28   C     C_R   0.050804 0.511892 0.488131 0.072970
C29   C     C_R   0.026495 0.615970 0.440564 0.071842
C30   C     C_R   0.049561 0.310066 0.594357 -0.197712
C31   C     C_R   0.104346 0.711102 0.377319 -0.178386
C32   C     C_R   0.949107 0.726617 0.436126 0.344377
C33   C     C_R   0.898927 0.719631 0.421064 0.414707
C34   C     C_R   0.592335 0.499797 0.500587 0.746167
C35   C     C_R   0.054214 0.711696 0.378052 -0.198730
C36   C     C_2   0.489271 0.933629 0.385904 0.536146
C37   C     C_2   0.502444 0.867415 0.495927 -0.402250
C38   C     C_2   0.494895 0.069114 0.388490 -0.271366
C39   C     C_2   0.494883 0.132806 0.503729 -0.360741
C40   C     C_2   0.470075 0.433482 0.922953 0.677403
C41   C     C_2   0.477212 0.419536 0.075978 0.008254
C42   C     C_R   0.176720 0.416169 0.547674 0.528695
C43   C     C_R   0.179207 0.612379 0.438466 0.603398
C44   C     C_R   0.279404 0.526858 0.615672 -0.188793
C45   C     C_R   0.329473 0.522339 0.617733 -0.209856
C46   C     C_R   0.328864 0.492396 0.374500 -0.291439
Cu1   Cu    Cu3+1 0.500010 0.500020 0.638630 1.010585
Cu2   Cu    Cu3+1 0.499990 0.499980 0.361370 0.989398
H1    H     H_    0.347584 0.480445 0.280068 0.170954
H2    H     H_    0.260413 0.540559 0.709261 0.167938
H3    H     H_    0.123985 0.787206 0.329406 0.188015
H4    H     H_    0.651813 0.519528 0.282628 0.144985
H5    H     H_    0.739875 0.518207 0.283439 0.123891
H6    H     H_    0.038004 0.785830 0.323369 0.195201
H7    H     H_    0.518190 0.910173 0.585245 0.102649
H8    H     H_    0.497835 0.118594 0.292679 0.169796
H9    H     H_    0.489592 0.088635 0.601872 0.159212
H10   H     H_    0.462438 0.336983 0.124290 0.065699
H11   H     H_    0.117328 0.237721 0.649614 0.187077
H12   H     H_    0.652874 0.477605 0.719840 0.170020
H13   H     H_    0.741312 0.475853 0.718031 0.134812
H14   H     H_    0.877314 0.197604 0.532073 0.200096
H15   H     H_    0.030945 0.233010 0.642577 0.183916
H16   H     H_    0.348411 0.533783 0.713483 0.181577
N1    N     N_R   0.202089 0.514461 0.493543 -0.452103
N2    N     N_R   0.798050 0.499117 0.499284 -0.467396
N3    N     N_2   0.499480 0.498660 0.846910 -0.008100
N4    N     N_2   0.499460 0.498630 0.153040 0.010091
O1    O     O_R   0.500010 0.321960 0.617040 -0.547486
O2    O     O_2   0.796443 0.287034 0.540777 -0.540338
O3    O     O_2   0.205312 0.708285 0.386813 -0.517749
O4    O     O_2   0.797762 0.711380 0.464332 -0.512104
O5    O     O_R   0.499990 0.321920 0.382900 -0.598276
O6    O     O_R   0.430270 0.500040 0.617060 -0.547537
O7    O     O_R   0.430260 0.500000 0.382910 -0.579706
O8    O     O_R   0.500010 0.678080 0.617100 -0.625094
O9    O     O_R   0.499990 0.678040 0.382960 -0.517240
O10   O     O_R   0.569740 0.500000 0.617090 -0.578345
O11   O     O_R   0.569730 0.499960 0.382940 -0.615959
O12   O     O_2   0.200369 0.320766 0.600590 -0.550249
O13   O     O_3   0.971114 0.842116 0.434725 -0.623845
C47   C     C_3   0.983174 0.876719 0.569148 0.063414
H17   H     H_    0.010703 0.952766 0.562405 0.186010
H18   H     H_    0.000261 0.802319 0.628878 0.125381
C48   C     C_3   0.938973 0.921163 0.643707 -0.274205
H19   H     H_    0.918367 0.982631 0.576016 0.277334
H20   H     H_    0.914887 0.841568 0.671514 0.197044
C49   C     C_3   0.953484 0.989304 0.772480 -0.914139
H21   H     H_    0.973058 0.928543 0.843522 0.251198
H22   H     H_    0.920607 0.020186 0.822588 0.259448
H23   H     H_    0.976878 0.070920 0.748074 0.276186
O14   O     O_3   0.876495 0.822119 0.370861 -0.570186
C50   C     C_3   0.860499 0.802017 0.235254 0.115281
H24   H     H_    0.840353 0.883305 0.202483 0.176883
H25   H     H_    0.834676 0.722121 0.228331 0.147839
C51   C     C_3   0.902110 0.786224 0.135771 -0.423115
H26   H     H_    0.928958 0.863105 0.145725 0.252228
H27   H     H_    0.920407 0.699754 0.159150 0.209186
C52   C     C_3   0.883608 0.780729 0.989658 -0.905050
H28   H     H_    0.856148 0.705001 0.978395 0.258487
H29   H     H_    0.913960 0.763717 0.921019 0.263670
H30   H     H_    0.867414 0.868440 0.959553 0.263266
O15   O     O_3   0.467112 0.873179 0.276627 -0.532257
C53   C     C_3   0.480224 0.926265 0.150467 -0.268284
H31   H     H_    0.519580 0.949325 0.145148 0.124714
H32   H     H_    0.458609 0.007638 0.128020 0.154508
H33   H     H_    0.471704 0.858819 0.070030 0.208643
O16   O     O_3   0.253130 0.484272 0.251374 -0.562850
C54   C     C_3   0.250914 0.360451 0.213728 -0.312782
H34   H     H_    0.233914 0.301229 0.294164 0.181336
H35   H     H_    0.287244 0.328070 0.189013 0.153557
H36   H     H_    0.228161 0.351386 0.121000 0.202057
O17   O     O_3   0.432806 0.368632 0.857470 -0.585790
C55   C     C_3   0.389748 0.368790 0.932292 -0.402211
H37   H     H_    0.382617 0.460903 0.972498 0.162744
H38   H     H_    0.390127 0.299219 0.015411 0.164236
H39   H     H_    0.359271 0.342813 0.863659 0.217477
O18   O     O_3   0.544358 0.522393 0.896224 -0.514840
C56   C     C_3   0.559131 0.642967 0.853646 -0.043952
H40   H     H_    0.531665 0.710823 0.877034 0.142315
H41   H     H_    0.568983 0.656094 0.748051 0.168876
H42   H     H_    0.593791 0.668327 0.904249 0.070279
O19   O     O_3   0.507722 0.612496 0.102188 -0.480356
C57   C     C_3   0.555062 0.652261 0.143288 0.020615
H43   H     H_    0.582329 0.584630 0.117730 0.131413
H44   H     H_    0.560701 0.674251 0.249263 0.161235
H45   H     H_    0.564005 0.741588 0.093687 0.055406
O20   O     O_3   0.967905 0.174576 0.495090 -0.647109
C58   C     C_3   0.983363 0.165222 0.359112 0.071244
H46   H     H_    0.010221 0.092678 0.356666 0.180911
H47   H     H_    0.002248 0.250197 0.320513 0.138785
C59   C     C_3   0.941225 0.128783 0.264511 -0.341965
H48   H     H_    0.923968 0.041518 0.301303 0.272934
H49   H     H_    0.913843 0.200127 0.264364 0.213944
C60   C     C_3   0.958218 0.114085 0.119337 -0.929581
H50   H     H_    0.974174 0.201913 0.079604 0.262167
H51   H     H_    0.926925 0.086715 0.054286 0.262817
H52   H     H_    0.985473 0.042596 0.114839 0.259105

loop_
_geom_bond_atom_site_label_1
_geom_bond_atom_site_label_2
_ccdc_geom_bond_type
C10   C27   A    
C24   H4    S    
C60   H52   S    
C21   C26   A    
C42   O12   S    
C50   H24   S    
C12   O6    A    
C23   O8    A    
C5    C42   A    
O20   C58   S    
C53   H32   S    
C55   H37   S    
O19   C57   S    
C48   H19   S    
C2    C46   A    
C32   O13   S    
C46   H1    S    
C36   O15   S    
Cu2   O11   S    
C20   N2    A    
C28   C29   A    
C25   H5    S    
C41   H10   S    
C58   H46   S    
C54   H35   S    
C22   H12   S    
C38   C39   D    
C9    C22   A    
C48   C49   S    
C15   C16   A    
C39   H9    S    
C51   C52   S    
C14   O20   S    
O16   C54   S    
C19   N2    A    
C18   C19   A    
O18   C56   S    
Cu1   O1    S    
C8    C45   A    
C40   O17   S    
C59   H48   S    
C40   N3    D    
C51   H27   S    
C42   N1    A    
C7    C43   A    
C8    C12   S    
C21   H13   S    
C43   N1    A    
C58   C59   S    
C48   H20   S    
C50   H25   S    
C21   C22   A    
C1    O1    A    
C35   H6    S    
Cu2   O7    S    
C20   O2    S    
C19   O4    S    
C3    N1    S    
C4    C7    A    
Cu2   O5    S    
N4    O19   S    
Cu1   N3    S    
C53   H31   S    
C4    C28   A    
O13   C47   S    
C41   N4    D    
C56   H41   S    
C3    C44   A    
C7    C31   A    
C26   N2    S    
C60   H50   S    
C24   C25   A    
C10   C14   A    
C33   O14   S    
C16   C17   A    
C25   C26   A    
C23   C37   S    
Cu2   N4    S    
Cu2   O9    S    
C34   O11   A    
Cu1   Cu2   S    
C49   H23   S    
C16   C20   A    
C51   H26   S    
C17   C18   A    
C23   O9    A    
C57   H45   S    
C40   C41   S    
C6    C30   A    
C49   H22   S    
C11   C32   A    
C50   C51   S    
C47   H18   S    
C9    C34   S    
C31   C35   A    
C54   H36   S    
O15   C53   S    
C44   C45   A    
C57   H44   S    
O17   C55   S    
C56   H42   S    
C44   H2    S    
C60   H51   S    
C36   C37   D    
C43   O3    S    
C52   H29   S    
C6    H11   S    
Cu1   O6    S    
C31   H3    S    
C4    C5    A    
C10   C13   A    
Cu1   O8    S    
C55   H38   S    
C56   H40   S    
C9    C24   A    
N3    O18   S    
C47   C48   S    
C29   C35   A    
C45   H16   S    
C52   H28   S    
C13   C17   A    
C1    O5    A    
C32   C33   A    
C36   C38   S    
C2    C3    A    
C54   H34   S    
C34   O10   A    
C11   C13   A    
C5    C6    A    
C59   C60   S    
C2    O16   S    
O14   C50   S    
C15   H14   S    
C18   C33   A    
C8    C46   A    
C55   H39   S    
C1    C39   S    
C37   H7    S    
C52   H30   S    
C38   H8    S    
C49   H21   S    
C11   C29   A    
C59   H49   S    
C47   H17   S    
C12   O7    A    
C27   C28   A    
C14   C15   A    
Cu1   O10   S    
C58   H47   S    
C30   H15   S    
C53   H33   S    
C57   H43   S    
C27   C30   A    
