data_mof_unit_32438.cif
_audit_creation_date              2012-12-11T14:13:22-0500
_audit_creation_method            fapswitch 2.2
_symmetry_space_group_name_H-M    P1
_symmetry_Int_Tables_number       1
_space_group_crystal_system       triclinic
_cell_length_a                    8.543863
_cell_length_b                    15.101501
_cell_length_c                    17.423076
_cell_angle_alpha                 94.845295
_cell_angle_beta                  96.512596
_cell_angle_gamma                 99.043282
_cell_volume                      2193.72610744

loop_
_atom_site_label
_atom_site_type_symbol
_atom_type_description
_atom_site_fract_x
_atom_site_fract_y
_atom_site_fract_z
_atom_type_partial_charge
Ba1   Ba    Ba6+2 0.849890 0.543710 0.463630 1.754905
Ba2   Ba    Ba6+2 0.339940 0.456360 0.536380 1.769222
C1    C     C_3   0.727390 0.879363 0.195136 0.207489
C2    C     C_3   0.667558 0.807489 0.249524 0.505152
C3    C     C_3   0.422531 0.341418 0.301109 0.334321
C4    C     C_3   0.420760 0.333135 0.213232 -0.241356
C5    C     C_3   0.113735 0.265935 0.739894 0.306924
C6    C     C_3   0.109604 0.241424 0.822658 -0.293247
C7    C     C_3   0.530833 0.209693 0.712707 0.226560
C8    C     C_3   0.441217 0.120405 0.734977 0.374048
C9    C     C_R   0.278599 0.539789 0.280736 -0.270126
C10   C     C_R   0.130028 0.486462 0.255054 0.091944
C11   C     C_R   0.073823 0.471176 0.174788 -0.157130
C12   C     C_3   0.077179 0.742518 0.230207 0.169635
C13   C     C_R   0.168684 0.507620 0.120243 -0.045484
C14   C     C_R   0.322626 0.555917 0.147324 -0.037405
C15   C     C_R   0.376002 0.573618 0.227379 0.042511
C16   C     C_R   0.112146 0.529227 0.831553 0.309387
C17   C     C_R   0.056063 0.518620 0.749695 -0.069198
C18   C     C_R   0.796307 0.439466 0.776599 -0.021656
C19   C     C_R   0.855327 0.444082 0.855313 -0.151730
C20   C     C_R   0.011898 0.487413 0.883602 -0.068085
C21   C     C_1   0.064150 0.491283 0.967441 0.176176
C22   C     C_1   0.109945 0.496534 0.037013 0.146619
C23   C     C_3   0.049467 0.790847 0.155836 0.198046
C24   C     C_R   0.897831 0.474183 0.724657 -0.344773
C25   C     C_R   0.769557 0.227172 0.505961 -0.292324
C26   C     C_R   0.861604 0.168670 0.538485 0.047965
C27   C     C_R   0.793809 0.076837 0.535909 -0.042943
C28   C     C_R   0.631810 0.044159 0.502229 0.016531
C29   C     C_R   0.542162 0.108653 0.473489 -0.101661
C30   C     C_R   0.610615 0.199002 0.475596 -0.003784
C31   C     C_R   0.398977 0.912516 0.457089 -0.064535
C32   C     C_R   0.336109 0.820165 0.444517 0.092594
C33   C     C_R   0.579946 0.787226 0.513529 0.109866
C34   C     C_3   0.272036 0.728355 0.630598 0.294742
C35   C     C_R   0.643695 0.879537 0.524809 -0.075855
C36   C     C_R   0.557300 0.944713 0.495038 0.030024
C37   C     C_R   0.427691 0.758068 0.472712 -0.188774
C38   C     C_3   0.309951 0.829836 0.652961 -0.321377
C39   C     C_3   0.906611 0.265630 0.352459 0.332165
C40   C     C_3   0.865001 0.165600 0.320625 0.710236
C41   C     C_3   0.782494 0.672613 0.703010 0.222193
C42   C     C_3   0.831940 0.711026 0.787966 -0.243482
H1    H     H_    0.399012 0.845498 0.705936 0.192737
H2    H     H_    0.359472 0.864848 0.605731 0.020728
H3    H     H_    0.199413 0.855855 0.664557 0.116412
H4    H     H_    0.794315 0.291643 0.359809 -0.067171
H5    H     H_    0.984991 0.272717 0.408730 -0.033493
H6    H     H_    0.793785 0.128737 0.360925 -0.128243
H7    H     H_    0.889778 0.657519 0.677656 -0.041333
H8    H     H_    0.692365 0.610888 0.702163 0.013292
H9    H     H_    0.858032 0.896491 0.203275 -0.015190
H10   H     H_    0.878697 0.659335 0.821498 0.037228
H11   H     H_    0.725698 0.728368 0.813274 0.180394
H12   H     H_    0.693271 0.944952 0.213625 0.170433
H13   H     H_    0.300715 0.346074 0.314977 0.034830
H14   H     H_    0.505216 0.404452 0.325228 0.006653
H15   H     H_    0.373971 0.263055 0.187214 0.187092
H16   H     H_    0.344095 0.378015 0.187017 0.010255
H17   H     H_    0.543335 0.353431 0.198577 0.156710
H18   H     H_    0.110240 0.862221 0.165667 0.122408
H19   H     H_    0.234745 0.302298 0.735009 0.085198
H20   H     H_    0.025586 0.311556 0.729208 0.006421
H21   H     H_    0.136766 0.303840 0.863703 0.063295
H22   H     H_    0.989239 0.205124 0.829334 0.184808
H23   H     H_    0.199802 0.198174 0.837534 0.173869
H24   H     H_    0.463751 0.222427 0.657457 -0.028739
H25   H     H_    0.441857 0.064935 0.688835 -0.024616
H26   H     H_    0.314744 0.126142 0.737459 0.043922
H27   H     H_    0.402197 0.578882 0.106236 0.174068
H28   H     H_    0.777776 0.415005 0.895020 0.129953
H29   H     H_    0.957552 0.430759 0.155181 0.113914
H30   H     H_    0.323413 0.549822 0.342025 0.051279
H31   H     H_    0.321821 0.956654 0.434673 0.093045
H32   H     H_    0.869409 0.033306 0.561018 0.087554
H33   H     H_    0.760515 0.898321 0.557690 0.075835
H34   H     H_    0.188460 0.717105 0.231889 0.127604
H35   H     H_    0.419725 0.091173 0.447838 0.132256
H36   H     H_    0.378305 0.686922 0.464423 0.031803
H37   H     H_    0.824484 0.294632 0.500314 0.118033
H38   H     H_    0.921522 0.788925 0.143036 0.074319
H39   H     H_    0.383217 0.703376 0.619461 0.013586
H40   H     H_    0.182541 0.714133 0.577698 0.026378
O1    O     O_2   0.849470 0.455720 0.314640 -0.420559
O2    O     O_3   0.711752 0.735275 0.662803 -0.625018
O3    O     O_3   0.067213 0.804706 0.296668 -0.609619
O4    O     O_2   0.340240 0.544310 0.685400 -0.425522
O5    O     O_3   0.079710 0.546180 0.591070 -0.501576
O6    O     O_3   0.542640 0.381210 0.637190 -0.494549
O7    O     O_3   0.211050 0.688823 0.692854 -0.598306
O8    O     O_3   0.602990 0.392320 0.460230 -0.482979
O9    O     O_3   0.114850 0.335810 0.598580 -0.461134
O10   O     O_2   0.198711 0.176940 0.557337 -0.469255
O11   O     O_3   0.077295 0.187266 0.687229 -0.584179
O12   O     O_3   0.110000 0.453900 0.408940 -0.501486
O13   O     O_3   0.586730 0.607760 0.539780 -0.513311
O14   O     O_2   0.329480 0.280220 0.460820 -0.420847
O15   O     O_3   0.470853 0.264734 0.330300 -0.582861
O16   O     O_2   0.469447 0.443618 0.774157 -0.467336
O17   O     O_3   0.530314 0.280077 0.771537 -0.585077
O18   O     O_3   0.647080 0.618870 0.362820 -0.399829
O19   O     O_2   0.661481 0.542976 0.224547 -0.484058
O20   O     O_3   0.988843 0.312569 0.299990 -0.598372
O21   O     O_3   0.674389 0.717025 0.217071 -0.606632
O22   O     O_2   0.860230 0.719810 0.539220 -0.454209
O23   O     O_3   0.074870 0.664270 0.401430 -0.427383
O24   O     O_2   0.024942 0.822584 0.445107 -0.466852
P1    P     P_3+3 0.017890 0.428700 0.326140 1.059170
P2    P     P_3+3 0.687140 0.705880 0.561850 1.010345
P3    P     P_3+3 0.131341 0.777961 0.392702 1.088816
P4    P     P_3+3 0.171830 0.571380 0.673870 1.057140
P5    P     P_3+3 0.063110 0.217439 0.591848 1.022926
P6    P     P_3+3 0.586652 0.620451 0.261696 1.131585
P7    P     P_3+3 0.500228 0.281487 0.431894 1.033475
P8    P     P_3+3 0.585134 0.386942 0.739460 0.957491
C43   C     C_2   0.763513 0.831581 0.327824 0.533518
H41   H     H_    0.851083 0.892576 0.340286 0.051110
O25   O     O_2   0.735458 0.787038 0.380879 -0.532519
S1    S     S_3+6 0.745983 0.150143 0.226460 -0.010273
O26   O     O_2   0.729343 0.239234 0.196858 -0.327563
O27   O     O_2   0.582006 0.100994 0.233530 -0.255474
O28   O     O_3   0.827670 0.089682 0.160926 -0.477435
H42   H     H_    0.905424 0.134119 0.139987 0.369275
S2    S     S_3+6 0.043700 0.117684 0.317360 -0.073973
O29   O     O_2   0.133711 0.126840 0.397354 -0.333595
O30   O     O_2   0.003018 0.019684 0.288759 -0.338829
O31   O     O_3   0.158684 0.170095 0.257338 -0.519428
H43   H     H_    0.236476 0.129739 0.247023 0.385298
C44   C     C_2   0.958325 0.793448 0.795699 0.683965
H44   H     H_    0.076341 0.788180 0.780804 0.030707
O32   O     O_2   0.929937 0.866751 0.819836 -0.464273
S3    S     S_3+6 0.475770 0.826219 0.262073 -0.131158
O33   O     O_2   0.381396 0.817992 0.183874 -0.279259
O34   O     O_2   0.410508 0.756616 0.310772 -0.444166
O35   O     O_3   0.481492 0.930467 0.305793 -0.559239
H45   H     H_    0.373311 0.944750 0.291630 0.380251
S4    S     S_3+6 0.656326 0.854149 0.092552 0.099031
O36   O     O_2   0.596994 0.755054 0.071462 -0.148965
O37   O     O_2   0.523171 0.905267 0.071050 -0.171892
O38   O     O_3   0.805839 0.886302 0.040656 -0.424380
H46   H     H_    0.839168 0.951751 0.056073 0.361539
C45   C     C_2   0.698717 0.201910 0.697926 0.490461
H47   H     H_    0.769521 0.257522 0.675961 -0.067161
O39   O     O_2   0.755127 0.133742 0.708082 -0.539314
S5    S     S_3+6 0.520196 0.088688 0.826875 0.017333
O40   O     O_2   0.384154 0.059161 0.871615 -0.240542
O41   O     O_2   0.608293 0.011376 0.812736 -0.203913
O42   O     O_3   0.645816 0.175305 0.879281 -0.490233
H48   H     H_    0.688426 0.150036 0.926408 0.376613
C46   C     C_2   0.957973 0.658878 0.220879 0.437719
H49   H     H_    0.893427 0.631465 0.164554 0.076125
O43   O     O_2   0.938365 0.616099 0.275209 -0.511327
S6    S     S_3+6 0.290273 0.604482 0.873982 0.004726
O44   O     O_2   0.239312 0.686806 0.910881 -0.157903
O45   O     O_2   0.377022 0.560839 0.936538 -0.300430
O46   O     O_3   0.420631 0.640050 0.813541 -0.470689
H50   H     H_    0.516703 0.613206 0.828443 0.351221
C47   C     C_2   0.833806 0.465079 0.642779 0.562359
H51   H     H_    0.770606 0.514357 0.617961 0.010569
O47   O     O_2   0.849278 0.399554 0.601495 -0.602690
S7    S     S_3+6 0.090143 0.740418 0.064838 0.017297
O48   O     O_2   0.953242 0.667358 0.031344 -0.282142
O49   O     O_2   0.241607 0.702082 0.071948 -0.213288
O50   O     O_3   0.105235 0.820224 0.003128 -0.380625
H52   H     H_    0.194936 0.867142 0.028104 0.381700

loop_
_geom_bond_atom_site_label_1
_geom_bond_atom_site_label_2
_ccdc_geom_bond_type
C38   H3    S    
C6    H22   S    
O46   H50   S    
C39   C40   S    
C33   C37   A    
O16   P8    D    
C40   S1    S    
O31   H43   S    
S3    O33   D    
C7    C45   S    
O42   H48   S    
O28   H42   S    
C27   H32   S    
C17   P4    S    
C38   H2    S    
O5    P4    S    
Ba2   P4    S    
O50   H52   S    
C3    H14   S    
C4    H17   S    
C26   C27   A    
O2    P2    S    
C35   C36   A    
O11   P5    S    
C12   O3    S    
C16   C17   A    
O1    P1    D    
C43   O25   D    
O15   P7    S    
C3    C4    S    
C41   H8    S    
O3    P3    S    
C34   H39   S    
C42   C44   S    
C45   H47   S    
S5    O42   S    
C28   C36   S    
Ba1   Ba2   S    
Ba2   O6    S    
C17   C24   A    
C40   S2    S    
Ba1   P1    S    
C31   H31   S    
C47   H51   S    
Ba2   O13   S    
C14   C15   A    
C12   C46   S    
S3    O35   S    
C21   C22   T    
C47   O47   D    
Ba2   O4    S    
O6    P8    S    
C7    C8    S    
S5    O41   D    
C16   S6    S    
S1    O28   S    
Ba1   O22   S    
C12   H34   S    
C6    H21   S    
C12   C23   S    
C19   C20   A    
C32   P3    S    
C14   H27   S    
O23   P3    S    
C39   H5    S    
C10   P1    S    
O12   P1    S    
O10   P5    D    
S1    O27   D    
C15   P6    S    
S7    O49   D    
C20   C21   S    
Ba1   O1    S    
C38   H1    S    
C19   H28   S    
C32   C37   A    
C4    H16   S    
O21   P6    S    
C34   C38   S    
O19   P6    D    
S6    O46   S    
S4    O36   D    
Ba1   O13   S    
C18   P8    S    
C35   H33   S    
C9    H30   S    
O7    P4    S    
Ba2   O5    S    
C44   O32   D    
C41   C42   S    
C27   C28   A    
O18   P6    S    
Ba1   P2    S    
S2    O31   S    
S7    O50   S    
C1    H12   S    
C29   C30   A    
C25   H37   S    
C23   S7    S    
C46   H49   S    
C31   C32   A    
C24   C47   S    
C1    S4    S    
O9    P5    S    
C10   C11   A    
Ba2   O8    S    
C5    H19   S    
S6    O44   D    
C33   P2    S    
S4    O37   D    
C40   H6    S    
C8    H26   S    
C34   O7    S    
C13   C22   S    
Ba1   O23   S    
Ba1   O8    S    
C11   C13   A    
C23   H38   S    
C2    C43   S    
C1    C2    S    
C8    S5    S    
S1    O26   D    
S3    O34   D    
S5    O40   D    
O22   P2    D    
C45   O39   D    
C28   C29   A    
C9    C15   A    
Ba1   O5    S    
C33   C35   A    
C25   C30   A    
C16   C20   A    
C41   O2    S    
S6    O45   D    
C4    H15   S    
Ba2   O9    S    
C11   H29   S    
O35   H45   S    
S4    O38   S    
C9    C10   A    
O24   P3    D    
C29   H35   S    
C3    O15   S    
S7    O48   D    
C5    O11   S    
C2    O21   S    
C31   C36   A    
C39   O20   S    
C3    H13   S    
C37   H36   S    
Ba2   O12   S    
C44   H44   S    
C7    H24   S    
C43   H41   S    
O13   P2    S    
C1    H9    S    
C42   H11   S    
C41   H7    S    
O14   P7    D    
S2    O29   D    
C18   C24   A    
C34   H40   S    
Ba1   O12   S    
C39   H4    S    
C23   H18   S    
C46   O43   D    
C30   P7    S    
O8    P7    S    
C5    H20   S    
C5    C6    S    
C26   P5    S    
O4    P4    D    
C8    H25   S    
C42   H10   S    
C18   C19   A    
Ba2   O14   S    
C6    H23   S    
C7    O17   S    
C25   C26   A    
S2    O30   D    
O17   P8    S    
O20   P1    S    
O38   H46   S    
Ba1   O18   S    
C13   C14   A    
C2    S3    S    
