data_mof_unit_5975.cif
_audit_creation_date              2012-12-10T18:59:18-0500
_audit_creation_method            fapswitch 2.2
_symmetry_space_group_name_H-M    P1
_symmetry_Int_Tables_number       1
_space_group_crystal_system       triclinic
_cell_length_a                    10.880286
_cell_length_b                    10.856317
_cell_length_c                    9.54176
_cell_angle_alpha                 90.633859
_cell_angle_beta                  89.415944
_cell_angle_gamma                 91.38522
_cell_volume                      1126.6172357

loop_
_atom_site_label
_atom_site_type_symbol
_atom_type_description
_atom_site_fract_x
_atom_site_fract_y
_atom_site_fract_z
_atom_type_partial_charge
C1    C     C_R   0.494759 0.262379 0.499240 0.863333
C2    C     C_R   0.459921 0.933678 0.373167 0.525624
C3    C     C_R   0.481585 0.870860 0.499200 -0.330936
C4    C     C_R   0.261200 0.498497 0.501354 0.856437
C5    C     C_R   0.481984 0.938544 0.624359 -0.031813
C6    C     C_3   0.571806 0.939347 0.741471 -0.356621
C7    C     C_3   0.565251 0.078597 0.743638 0.223331
C8    C     C_R   0.551601 0.596938 0.074540 0.249754
C9    C     C_R   0.435530 0.413003 0.074081 0.011447
C10   C     C_R   0.434769 0.413561 0.925195 -0.072928
C11   C     C_R   0.555087 0.594888 0.926732 0.241360
C12   C     C_R   0.056324 0.479783 0.632313 0.018004
C13   C     C_3   0.689237 0.628112 0.927287 0.142561
C14   C     C_3   0.681200 0.641415 0.084804 -0.444037
C15   C     C_R   0.496744 0.737858 0.500197 0.875162
C16   C     C_R   0.735971 0.482900 0.499377 0.832054
C17   C     C_R   0.105646 0.503502 0.767319 -0.097246
C18   C     C_R   0.045057 0.460397 0.887038 -0.144370
C19   C     C_R   0.933150 0.396922 0.875305 -0.171344
C20   C     C_R   0.874502 0.391141 0.746406 -0.129511
C21   C     C_R   0.931478 0.442536 0.626291 0.026275
C22   C     C_R   0.125437 0.485703 0.504099 -0.209669
C23   C     C_R   0.064833 0.456683 0.376773 0.312348
C24   C     C_R   0.935682 0.452003 0.373342 0.305248
C25   C     C_R   0.868461 0.455612 0.499352 -0.204126
C26   C     C_R   0.478571 0.065467 0.624046 0.108161
C27   C     C_R   0.478071 0.129342 0.498083 -0.380546
C28   C     C_R   0.458603 0.062280 0.372591 0.534177
Cu1   Cu    Cu3+1 0.499990 0.499980 0.640670 0.945066
Cu2   Cu    Cu3+1 0.500010 0.500020 0.359330 1.042432
F1    F     F_    0.445208 0.119911 0.248275 -0.620504
F2    F     F_    0.446663 0.872367 0.249167 -0.613788
H1    H     H_    0.663419 0.908572 0.705286 0.174091
H2    H     H_    0.888410 0.357815 0.966831 0.162790
H3    H     H_    0.785445 0.344808 0.741127 0.147138
H4    H     H_    0.533358 0.894549 0.837138 0.267484
H5    H     H_    0.087780 0.365011 0.203409 0.327325
H6    H     H_    0.569266 0.129499 0.937398 0.354843
H7    H     H_    0.746036 0.719185 0.766994 0.334733
H8    H     H_    0.925343 0.477268 0.173802 0.316140
H9    H     H_    0.652941 0.128661 0.717210 0.082856
H10   H     H_    0.385186 0.341278 0.129522 0.212260
H11   H     H_    0.383207 0.342727 0.869070 0.198514
H12   H     H_    0.748129 0.551885 0.892354 0.135655
H13   H     H_    0.739719 0.576763 0.139235 0.216404
H14   H     H_    0.687866 0.738182 0.124047 0.240721
H15   H     H_    0.188692 0.556973 0.785006 0.171854
H16   H     H_    0.086434 0.475084 0.988391 0.164356
N1    N     N_R   0.500790 0.500930 0.147930 -0.206795
N2    N     N_R   0.500790 0.500890 0.852020 -0.235679
O1    O     O_R   0.500000 0.319640 0.618810 -0.586010
O2    O     O_3   0.505503 0.123150 0.863918 -0.667917
O3    O     O_3   0.716526 0.740277 0.862838 -0.718637
O4    O     O_3   0.874441 0.438303 0.248414 -0.744445
O5    O     O_R   0.500010 0.319680 0.381230 -0.529970
O6    O     O_R   0.319640 0.499980 0.618820 -0.619787
O7    O     O_R   0.319650 0.500020 0.381230 -0.509244
O8    O     O_R   0.499990 0.680320 0.618770 -0.577436
O9    O     O_R   0.500000 0.680360 0.381190 -0.528576
O10   O     O_R   0.680350 0.499980 0.618770 -0.623677
O11   O     O_R   0.680360 0.500020 0.381180 -0.536905
O12   O     O_3   0.132468 0.430219 0.257381 -0.727418

loop_
_geom_bond_atom_site_label_1
_geom_bond_atom_site_label_2
_ccdc_geom_bond_type
C4    O7    A    
C12   C17   A    
C2    C28   A    
C23   C24   A    
C6    H1    S    
C6    C7    S    
Cu1   O6    S    
Cu1   Cu2   S    
C11   C13   S    
C9    C10   A    
H8    O4    S    
C19   C20   A    
Cu1   O10   S    
C28   F1    S    
Cu2   O9    S    
H5    O12   S    
C26   C27   A    
C3    C15   S    
C14   H14   S    
C11   N2    A    
C13   C14   S    
C24   C25   A    
C1    O1    A    
C9    H10   S    
H7    O3    S    
C7    C26   S    
C8    C11   A    
C16   O10   A    
Cu1   O8    S    
C2    F2    S    
Cu2   N1    S    
C6    H4    S    
C7    O2    S    
C2    C3    A    
C14   H13   S    
C13   O3    S    
Cu1   N2    S    
C7    H9    S    
C13   H12   S    
Cu1   O1    S    
C5    C6    S    
C15   O8    A    
C1    O5    A    
C8    N1    A    
H6    O2    S    
C16   O11   A    
C24   O4    S    
C5    C26   A    
C10   N2    A    
Cu2   O7    S    
C12   C22   A    
C27   C28   A    
C9    N1    A    
C20   C21   A    
C17   C18   A    
C18   C19   A    
Cu2   O5    S    
Cu2   O11   S    
C16   C25   S    
C1    C27   S    
C4    C22   S    
C21   C25   A    
C22   C23   A    
C8    C14   S    
C10   H11   S    
C20   H3    S    
C15   O9    A    
C12   C21   A    
C23   O12   S    
C4    O6    A    
C17   H15   S    
C3    C5    A    
C19   H2    S    
C18   H16   S    
