data_mof_unit_10185.cif
_audit_creation_date              2012-12-10T17:58:16-0500
_audit_creation_method            fapswitch 2.2
_symmetry_space_group_name_H-M    P1
_symmetry_Int_Tables_number       1
_space_group_crystal_system       triclinic
_cell_length_a                    9.521326
_cell_length_b                    10.832294
_cell_length_c                    15.499436
_cell_angle_alpha                 89.79153
_cell_angle_beta                  73.928723
_cell_angle_gamma                 90.007397
_cell_volume                      1536.09099746

loop_
_atom_site_label
_atom_site_type_symbol
_atom_type_description
_atom_site_fract_x
_atom_site_fract_y
_atom_site_fract_z
_atom_type_partial_charge
C1    C     C_R   0.999928 0.262080 0.500069 0.795774
C2    C     C_R   0.000062 0.737923 0.499954 0.795595
C3    C     C_R   0.584282 0.529125 0.093239 0.000816
C4    C     C_R   0.419796 0.444190 0.907421 -0.146808
C5    C     C_R   0.710863 0.593810 0.044990 -0.203936
C6    C     C_R   0.284794 0.392641 0.956758 -0.075236
C7    C     C_R   0.872194 0.063834 0.500347 -0.157507
C8    C     C_R   0.127772 0.936177 0.499734 -0.156410
C9    C     C_R   0.872253 0.936118 0.500269 -0.155797
C10   C     C_R   0.127718 0.063894 0.499804 -0.164909
C11   C     C_R   0.000036 0.871777 0.499975 -0.016819
C12   C     C_R   0.999939 0.128231 0.500087 -0.014295
C13   C     C_R   0.554095 0.410799 0.544958 0.052197
C14   C     C_R   0.446426 0.588240 0.453930 0.031594
C15   C     C_R   0.405151 0.411157 0.545331 0.019910
C16   C     C_R   0.595140 0.588315 0.454066 0.028161
C17   C     C_R   0.917686 0.502724 0.671956 0.861787
C18   C     C_R   0.082325 0.496979 0.328027 0.866688
C19   C     C_R   0.870932 0.522669 0.768838 -0.114799
C20   C     C_R   0.128855 0.474951 0.231328 -0.117168
C21   C     C_R   0.887159 0.638140 0.898525 -0.151142
C22   C     C_R   0.099498 0.366766 0.101779 -0.164263
C23   C     C_R   0.941662 0.610228 0.807830 -0.187449
C24   C     C_R   0.046404 0.398749 0.191686 -0.239560
C25   C     C_R   0.742023 0.467589 0.819861 0.554033
C26   C     C_R   0.266094 0.516477 0.181197 0.587396
C27   C     C_R   0.672867 0.510201 0.907071 0.004036
C28   C     C_R   0.330370 0.470441 0.094142 0.009636
C29   C     C_R   0.756383 0.583284 0.950588 -0.022028
C30   C     C_R   0.239715 0.405769 0.050816 0.024212
C31   C     C_R   0.524932 0.480794 0.952931 0.020972
C32   C     C_R   0.479330 0.493575 0.047717 0.024023
Cu1   Cu    Cu3+1 0.140660 0.500020 0.500000 0.991718
Cu2   Cu    Cu3+1 0.859340 0.499980 0.500000 0.999525
H1    H     H_    0.940429 0.364644 0.230024 0.188484
H2    H     H_    0.039545 0.656271 0.768320 0.180987
H3    H     H_    0.948009 0.703140 0.926932 0.179949
H4    H     H_    0.028160 0.313723 0.072528 0.185640
H5    H     H_    0.772276 0.111844 0.500609 0.149281
H6    H     H_    0.227688 0.888168 0.499476 0.153651
H7    H     H_    0.772386 0.888062 0.500448 0.154388
H8    H     H_    0.227589 0.111952 0.499616 0.149354
H9    H     H_    0.593866 0.339277 0.580983 0.162333
H10   H     H_    0.407325 0.658703 0.416704 0.163565
H11   H     H_    0.332659 0.340235 0.582060 0.144398
H12   H     H_    0.667819 0.658875 0.416986 0.150734
N1    N     N_R   0.352080 0.500030 0.499980 -0.186710
N2    N     N_R   0.647920 0.499970 0.500020 -0.184005
O1    O     O_R   0.118740 0.319660 0.500000 -0.601948
O2    O     O_R   0.881260 0.680340 0.500000 -0.595395
O3    O     O_R   0.881170 0.319630 0.500010 -0.597858
O4    O     O_R   0.118830 0.680370 0.499990 -0.594716
O5    O     O_R   0.055570 0.500030 0.629830 -0.573813
O6    O     O_R   0.944430 0.499970 0.370170 -0.579534
O7    O     O_R   0.818000 0.500000 0.629840 -0.530799
O8    O     O_R   0.182000 0.500000 0.370160 -0.537637
C33   C     C_2   0.798403 0.665381 0.093755 0.944479
O9    O     O_2   0.740097 0.748657 0.143798 -0.481917
O10   O     O_R   0.945430 0.638820 0.084500 -0.727456
H13   H     H_    0.981692 0.566125 0.043611 0.298956
C34   C     C_2   0.182916 0.338796 0.909749 0.792908
O11   O     O_2   0.126974 0.404566 0.864238 -0.587625
O12   O     O_R   0.150432 0.212786 0.918646 -0.736827
H14   H     H_    0.079345 0.186876 0.883983 0.346428
F1    F     F_    0.331255 0.608255 0.215858 -0.659376
F2    F     F_    0.692058 0.365966 0.786488 -0.683261
C35   C     C_2   0.576225 0.476484 0.184152 0.905319
O13   O     O_2   0.631451 0.529981 0.235961 -0.578421
O14   O     O_R   0.506330 0.363108 0.209653 -0.766289
H15   H     H_    0.506673 0.337016 0.272494 0.333781
C36   C     C_2   0.438272 0.478185 0.811580 1.000822
O15   O     O_2   0.465052 0.585139 0.787500 -0.557606
O16   O     O_R   0.425888 0.390286 0.748308 -0.724541
H16   H     H_    0.419172 0.302666 0.772166 0.320326

loop_
_geom_bond_atom_site_label_1
_geom_bond_atom_site_label_2
_ccdc_geom_bond_type
C10   H8    S    
O16   H16   S    
C15   N1    A    
C16   N2    A    
Cu1   O4    S    
Cu2   O3    S    
C6    C34   S    
C33   O10   S    
C27   C29   A    
Cu1   O1    S    
C22   H4    S    
C22   C24   A    
C34   O12   S    
C2    O2    A    
C20   C24   A    
C17   O7    A    
C18   O8    A    
Cu1   O8    S    
O10   H13   S    
C34   O11   D    
C1    C12   S    
C2    C11   S    
C10   C12   A    
C5    C29   A    
Cu1   O5    S    
C7    C12   A    
Cu2   O2    S    
C24   H1    S    
C27   C31   A    
C35   O13   D    
C28   C32   A    
C4    C6    A    
C16   H12   S    
C36   O16   S    
C21   C29   A    
C35   O14   S    
C19   C23   A    
C9    C11   A    
C31   C32   A    
Cu1   Cu2   S    
C3    C32   A    
C1    O3    A    
C2    O4    A    
C6    C30   A    
Cu2   O6    S    
C13   C15   A    
Cu1   N1    S    
C14   C16   A    
Cu2   N2    S    
C15   H11   S    
C17   O5    A    
C13   H9    S    
C14   H10   S    
C7    C9    A    
C22   C30   A    
C26   F1    S    
C26   C28   A    
C3    C35   S    
C25   F2    S    
C3    C5    A    
C13   N2    A    
C14   N1    A    
C25   C27   A    
C9    H7    S    
C5    C33   S    
C21   C23   A    
C36   O15   D    
C33   O9    D    
C20   C26   A    
C8    C11   A    
C28   C30   A    
C17   C19   S    
C18   C20   S    
O14   H15   S    
C19   C25   A    
C4    C31   A    
C18   O6    A    
O12   H14   S    
Cu2   O7    S    
C21   H3    S    
C8    C10   A    
C23   H2    S    
C7    H5    S    
C8    H6    S    
C1    O1    A    
C4    C36   S    
