data_mof_unit_47713.cif
_audit_creation_date              2012-12-11T17:03:22-0500
_audit_creation_method            fapswitch 2.2
_symmetry_space_group_name_H-M    P1
_symmetry_Int_Tables_number       1
_space_group_crystal_system       triclinic
_cell_length_a                    16.696213
_cell_length_b                    7.082642
_cell_length_c                    15.218991
_cell_angle_alpha                 89.999931
_cell_angle_beta                  94.618167
_cell_angle_gamma                 90.0
_cell_volume                      1793.85300596

loop_
_atom_site_label
_atom_site_type_symbol
_atom_type_description
_atom_site_fract_x
_atom_site_fract_y
_atom_site_fract_z
_atom_type_partial_charge
O1    O     O_R   0.413460 0.494300 0.415980 -0.537727
O2    O     O_R   0.586540 0.994300 0.584020 -0.537731
O3    O     O_R   0.577100 0.822370 0.413730 -0.536024
O4    O     O_R   0.422900 0.322370 0.586270 -0.536022
C1    C     C_R   0.604026 0.655363 0.393581 0.720638
C2    C     C_R   0.395974 0.155363 0.606419 0.720653
O5    O     O_R   0.413490 0.823910 0.405510 -0.541992
O6    O     O_R   0.586510 0.323910 0.594490 -0.541995
O7    O     O_R   0.421770 0.995890 0.575740 -0.530914
O8    O     O_R   0.578230 0.495890 0.424260 -0.530918
C3    C     C_R   0.385524 0.655323 0.383467 0.717374
C4    C     C_R   0.614476 0.155323 0.616533 0.717343
O9    O     O_3   0.502910 0.661350 0.555860 -0.374578
O10   O     O_3   0.497090 0.161350 0.444140 -0.374578
V1    V     V_3+5 0.499460 0.935550 0.489640 1.440213
V2    V     V_3+5 0.500540 0.435550 0.510360 1.440212
C5    C     C_R   0.744824 0.013718 0.679155 0.084208
C6    C     C_R   0.255177 0.513715 0.320845 0.084092
C7    C     C_R   0.683978 0.148164 0.683330 -0.148937
C8    C     C_R   0.316022 0.648164 0.316668 -0.148926
C9    C     C_R   0.693111 0.282603 0.751413 -0.139818
C10   C     C_R   0.306894 0.782591 0.248580 -0.139788
H1    H     H_    0.647846 0.390970 0.756177 0.133724
H2    H     H_    0.352162 0.890950 0.243813 0.133719
C11   C     C_R   0.756493 0.270001 0.818401 0.231983
C12   C     C_R   0.243512 0.769988 0.181592 0.231921
C13   C     C_R   0.816211 0.125902 0.815393 -0.172427
C14   C     C_R   0.183791 0.625897 0.184604 -0.172520
C15   C     C_R   0.810478 0.005542 0.741684 0.040022
C16   C     C_R   0.189525 0.505532 0.258310 0.040392
C17   C     C_3   0.812210 0.794463 0.736836 0.274971
C18   C     C_3   0.187810 0.294453 0.263141 0.275360
C19   C     C_3   0.739428 0.804600 0.669858 -0.425174
C20   C     C_3   0.260583 0.304600 0.330129 -0.425353
H3    H     H_    0.799742 0.726518 0.799815 0.057729
H4    H     H_    0.200293 0.226545 0.200160 0.057621
H5    H     H_    0.684028 0.746284 0.695506 0.138094
H6    H     H_    0.315990 0.246313 0.304486 0.138108
H7    H     H_    0.750182 0.757133 0.602206 0.219014
H8    H     H_    0.249824 0.257107 0.397773 0.219057
C21   C     C_1   0.165885 0.120577 0.831121 -0.148573
C22   C     C_1   0.834115 0.620577 0.168880 -0.148808
C23   C     C_1   0.218483 0.128555 0.779769 0.044420
C24   C     C_1   0.781517 0.628555 0.220231 0.044340
C25   C     C_1   0.280633 0.138167 0.719566 0.037759
C26   C     C_1   0.719367 0.638167 0.280435 0.037740
C27   C     C_1   0.333333 0.146216 0.668327 -0.167889
C28   C     C_1   0.666667 0.646216 0.331673 -0.167909
O11   O     O_R   0.921840 0.772560 0.075830 -0.529241
O12   O     O_R   0.078160 0.272560 0.924170 -0.529262
O13   O     O_R   0.086520 0.441250 0.094510 -0.542333
O14   O     O_R   0.913480 0.941250 0.905490 -0.542480
C29   C     C_R   0.115228 0.610554 0.115984 0.691415
C30   C     C_R   0.884772 0.110555 0.884015 0.691081
O15   O     O_R   0.922920 0.442940 0.086290 -0.532270
O16   O     O_R   0.077080 0.942940 0.913710 -0.532293
O17   O     O_R   0.913440 0.271120 0.915960 -0.530891
O18   O     O_R   0.086560 0.771120 0.084040 -0.530906
C31   C     C_R   0.896569 0.611540 0.106769 0.700165
C32   C     C_R   0.103431 0.111540 0.893232 0.700045
O19   O     O_3   0.997130 0.604020 0.944190 -0.348377
O20   O     O_3   0.002870 0.104020 0.055810 -0.348284
V3    V     V_3+5 0.000530 0.329760 0.010360 1.533567
V4    V     V_3+5 0.999470 0.829760 0.989640 1.533482
N1    N     N_3   0.753500 0.393694 0.892657 -0.687095
H9    H     H_    0.755205 0.312320 0.950098 0.215728
H10   H     H_    0.803171 0.483360 0.896184 0.245242
N2    N     N_3   0.246505 0.893675 0.107334 -0.687070
H11   H     H_    0.244777 0.812287 0.049891 0.215699
H12   H     H_    0.196839 0.983357 0.103817 0.245256
S1    S     S_3+6 0.900258 0.706689 0.690431 0.075441
O21   O     O_2   0.893689 0.495893 0.681397 -0.290606
O22   O     O_2   0.907961 0.791708 0.600939 -0.286106
O23   O     O_3   0.982686 0.759136 0.756541 -0.466623
H13   H     H_    0.992436 0.895038 0.746267 0.336413
S2    S     S_3+6 0.099763 0.206615 0.309519 0.075256
O24   O     O_2   0.106361 0.995830 0.318580 -0.290619
O25   O     O_2   0.092024 0.291667 0.398998 -0.286272
O26   O     O_3   0.017350 0.258964 0.243365 -0.466863
H14   H     H_    0.007274 0.394549 0.254006 0.336694

loop_
_geom_bond_atom_site_label_1
_geom_bond_atom_site_label_2
_ccdc_geom_bond_type
O15   C31   A    
C13   C15   A    
C5    C15   A    
O1    C3    A    
S2    O26   S    
O2    C4    A    
C2    O7    A    
C13   C30   S    
O5    C3    A    
C19   H7    S    
C22   C24   T    
C20   H8    S    
C18   H4    S    
C10   H2    S    
C7    C9    A    
S2    O25   D    
C17   H3    S    
C24   C26   S    
N2    H11   S    
N1    H10   S    
O15   V3    S    
C17   C19   S    
C6    C16   A    
O5    V1    S    
O6    V2    S    
O11   V4    S    
O12   V3    S    
C21   C23   T    
C5    C19   S    
O14   C30   A    
O17   V3    S    
C25   C27   T    
C9    H1    S    
O18   V4    S    
C1    C28   S    
C26   C28   T    
C3    C8    S    
C2    C27   S    
O13   V3    S    
S2    O24   D    
O4    C2    A    
O23   H13   S    
S1    O22   D    
C19   H5    S    
O16   C32   A    
O13   C29   A    
C18   C20   S    
O4    V2    S    
O19   V4    S    
O20   V3    S    
C23   C25   S    
O6    C4    A    
O16   V4    S    
C11   N1    S    
O1    V2    S    
C14   C29   S    
O2    V1    S    
C6    C20   S    
C8    C10   A    
O9    V1    S    
O14   V4    S    
O10   V2    S    
O3    V1    S    
C9    C11   A    
C20   H6    S    
C21   C32   S    
O3    C1    A    
C22   C31   S    
C18   S2    S    
S1    O23   S    
C29   O18   A    
C11   C13   A    
C12   C14   A    
O11   C31   A    
C12   N2    S    
C14   C16   A    
O7    V1    S    
O12   C32   A    
C1    O8    A    
C15   C17   S    
O8    V2    S    
C16   C18   S    
C4    C7    S    
C17   S1    S    
C5    C7    A    
C6    C8    A    
O26   H14   S    
S1    O21   D    
N2    H12   S    
N1    H9    S    
C10   C12   A    
O9    V2    S    
O10   V1    S    
C30   O17   A    
