data_mof_unit_16469.cif
_audit_creation_date              2012-12-11T15:29:47-0500
_audit_creation_method            fapswitch 2.2
_symmetry_space_group_name_H-M    P1
_symmetry_Int_Tables_number       1
_space_group_crystal_system       triclinic
_cell_length_a                    21.528158
_cell_length_b                    7.3055
_cell_length_c                    14.882276
_cell_angle_alpha                 90.000018
_cell_angle_beta                  73.839164
_cell_angle_gamma                 90.000014
_cell_volume                      2248.10390589

loop_
_atom_site_label
_atom_site_type_symbol
_atom_type_description
_atom_site_fract_x
_atom_site_fract_y
_atom_site_fract_z
_atom_type_partial_charge
O1    O     O_R   0.464160 0.506670 0.130070 -0.519413
O2    O     O_R   0.535840 0.006670 0.869930 -0.519412
O3    O     O_R   0.589710 0.179080 0.006710 -0.524351
O4    O     O_R   0.410290 0.679080 0.993290 -0.524351
C1    C     C_R   0.616239 0.343127 0.000599 0.806985
C2    C     C_R   0.383761 0.843127 0.999401 0.806986
O5    O     O_R   0.467940 0.177220 0.138010 -0.552814
O6    O     O_R   0.532060 0.677220 0.861990 -0.552814
O7    O     O_R   0.413200 0.002810 0.002170 -0.546519
O8    O     O_R   0.586800 0.502810 0.997830 -0.546519
C3    C     C_R   0.455771 0.346021 0.174143 0.810650
C4    C     C_R   0.544229 0.846021 0.825857 0.810650
O9    O     O_3   0.482180 0.337850 0.955280 -0.382354
O10   O     O_3   0.517820 0.837850 0.044720 -0.382354
V1    V     V_3+5 0.503310 0.064600 0.008300 1.556918
V2    V     V_3+5 0.496690 0.564600 0.991700 1.556917
C5    C     C_R   0.570997 0.861129 0.723900 -0.139758
C6    C     C_R   0.429003 0.361129 0.276099 -0.139758
C7    C     C_R   0.928627 0.858106 0.275486 -0.087087
C8    C     C_R   0.071373 0.358106 0.724514 -0.087087
C9    C     C_R   0.561702 0.966941 0.573162 0.287937
C10   C     C_R   0.438298 0.466939 0.426839 0.287937
C11   C     C_R   0.533051 0.932545 0.669576 0.273612
C12   C     C_R   0.466949 0.432543 0.330425 0.273612
C13   C     C_R   0.636500 0.823741 0.683604 -0.199796
C14   C     C_R   0.363500 0.323742 0.316395 -0.199797
C15   C     C_R   0.667627 0.868992 0.589280 0.040634
C16   C     C_R   0.332373 0.368993 0.410720 0.040634
C17   C     C_R   0.627922 0.926952 0.533075 -0.008870
C18   C     C_R   0.372078 0.426951 0.466925 -0.008870
C19   C     C_R   0.736353 0.853560 0.548240 0.012941
C20   C     C_R   0.263647 0.353561 0.451760 0.012941
C21   C     C_R   0.762416 0.867728 0.448374 -0.049919
C22   C     C_R   0.237583 0.367728 0.551625 -0.049919
C23   C     C_R   0.718193 0.893255 0.393720 0.248850
C24   C     C_R   0.281807 0.393254 0.606280 0.248850
C25   C     C_R   0.653974 0.937047 0.436357 -0.124490
C26   C     C_R   0.346026 0.437045 0.563643 -0.124491
C27   C     C_R   0.780190 0.830100 0.603490 0.371213
C28   C     C_R   0.219810 0.330103 0.396509 0.371213
C29   C     C_R   0.844466 0.781511 0.561041 -0.246366
C30   C     C_R   0.155533 0.281515 0.438958 -0.246366
C31   C     C_R   0.870041 0.790687 0.464795 0.044796
C32   C     C_R   0.129958 0.290689 0.535205 0.044796
C33   C     C_R   0.831091 0.851856 0.408292 0.104039
C34   C     C_R   0.168908 0.351856 0.591708 0.104039
C35   C     C_R   0.935860 0.751255 0.425582 -0.234310
C36   C     C_R   0.064140 0.251257 0.574418 -0.234310
C37   C     C_R   0.964901 0.777582 0.329831 0.376127
C38   C     C_R   0.035099 0.277583 0.670168 0.376127
C39   C     C_R   0.863504 0.902866 0.315529 -0.227368
C40   C     C_R   0.136496 0.402865 0.684471 -0.227368
H1    H     H_    0.622740 0.964670 0.392033 0.206068
H2    H     H_    0.377260 0.464666 0.607967 0.206068
H3    H     H_    0.839760 0.980795 0.273396 0.178876
H4    H     H_    0.160240 0.480793 0.726604 0.178876
H5    H     H_    0.876160 0.749982 0.604272 0.167417
H6    H     H_    0.123840 0.249986 0.395728 0.167417
H7    H     H_    0.661341 0.755165 0.727592 0.203330
H8    H     H_    0.338659 0.255169 0.272407 0.203331
H9    H     H_    0.964591 0.699795 0.469505 0.126075
H10   H     H_    0.035409 0.199798 0.530495 0.126075
C41   C     C_3   0.212675 0.653180 0.992833 0.032985
C42   C     C_3   0.787325 0.153180 0.007167 0.032984
H11   H     H_    0.211494 0.604585 0.922489 0.163481
H12   H     H_    0.788505 0.104585 0.077511 0.163481
C43   C     C_3   0.284647 0.645621 0.998128 0.117814
C44   C     C_3   0.715353 0.145621 0.001872 0.117814
H13   H     H_    0.313686 0.573991 0.934434 0.127812
H14   H     H_    0.686314 0.073990 0.065566 0.127812
H15   H     H_    0.184134 0.793185 0.153458 0.222925
H16   H     H_    0.815866 0.293185 0.846542 0.222925
H17   H     H_    0.283682 0.884145 0.155560 0.209755
H18   H     H_    0.716317 0.384146 0.844440 0.209756
C45   C     C_3   0.197979 0.909520 0.104237 0.119612
C46   C     C_3   0.802021 0.409520 0.895763 0.119611
C47   C     C_3   0.228981 0.974129 0.924024 0.578388
C48   C     C_3   0.771019 0.474129 0.075976 0.578387
C49   C     C_3   0.186267 0.855052 0.007603 -0.202490
C50   C     C_3   0.813733 0.355052 0.992397 -0.202489
C51   C     C_3   0.312356 0.844865 0.002126 -0.206281
C52   C     C_3   0.687644 0.344865 0.997874 -0.206281
C53   C     C_3   0.271085 0.939874 0.093287 -0.452528
C54   C     C_3   0.728914 0.439874 0.906713 -0.452528
C55   C     C_3   0.303015 0.956368 0.917861 0.161203
C56   C     C_3   0.696985 0.456368 0.082139 0.161203
H19   H     H_    0.322905 0.095890 0.921862 0.166151
H20   H     H_    0.677095 0.595890 0.078138 0.166150
H21   H     H_    0.281966 0.088493 0.091291 0.218005
H22   H     H_    0.718034 0.588493 0.908709 0.218005
O11   O     O_R   0.913210 0.208550 0.002110 -0.528633
O12   O     O_R   0.086790 0.708550 0.997890 -0.528633
O13   O     O_R   0.032060 0.539960 0.861980 -0.545035
O14   O     O_R   0.967940 0.039960 0.138020 -0.545035
C57   C     C_R   0.044264 0.372240 0.825924 0.777039
C58   C     C_R   0.955736 0.872240 0.174076 0.777039
O15   O     O_R   0.910290 0.538020 0.993280 -0.500945
O16   O     O_R   0.089710 0.038020 0.006720 -0.500945
O17   O     O_R   0.964160 0.712340 0.130090 -0.532454
O18   O     O_R   0.035840 0.212340 0.869910 -0.532454
C59   C     C_R   0.885069 0.368303 0.993312 0.778647
C60   C     C_R   0.114931 0.868303 0.006688 0.778647
O19   O     O_3   0.017820 0.379210 0.044690 -0.361120
O20   O     O_3   0.982180 0.879210 0.955310 -0.361120
V3    V     V_3+5 0.996690 0.652500 0.991710 1.649738
V4    V     V_3+5 0.003310 0.152500 0.008290 1.649739
Br1   Br    Br    0.155520 0.485299 0.082393 -0.412469
Br2   Br    Br    0.844480 0.985299 0.917607 -0.412469
Br3   Br    Br    0.297856 0.491955 0.100118 -0.532355
Br4   Br    Br    0.702144 0.991955 0.899881 -0.532355
O21   O     O_3   0.210714 0.159599 0.936422 -0.595439
H23   H     H_    0.225650 0.207324 0.988925 0.334483
O22   O     O_3   0.789286 0.659599 0.063578 -0.595439
H24   H     H_    0.774350 0.707324 0.011075 0.334483
O23   O     O_3   0.219003 0.913696 0.838954 -0.619172
H25   H     H_    0.177760 0.966453 0.833286 0.318261
O24   O     O_3   0.780997 0.413696 0.161046 -0.619172
H26   H     H_    0.822239 0.466453 0.166714 0.318261
O25   O     O_3   0.340192 0.885025 0.831534 -0.591882
H27   H     H_    0.321411 0.766856 0.819606 0.331093
O26   O     O_3   0.659808 0.385025 0.168465 -0.591882
H28   H     H_    0.678589 0.266856 0.180393 0.331093
Br5   Br    Br    0.141699 0.088680 0.181525 -0.490897
Br6   Br    Br    0.858301 0.588680 0.818475 -0.490898
O27   O     O_3   0.028722 0.731268 0.288570 -0.619120
H29   H     H_    0.047113 0.676240 0.336471 0.306641
O28   O     O_3   0.971277 0.231270 0.711430 -0.619120
H30   H     H_    0.952887 0.176243 0.663528 0.306642
O29   O     O_3   0.526998 0.043599 0.517160 -0.645295
H31   H     H_    0.493424 0.125589 0.555822 0.315802
O30   O     O_3   0.473002 0.543595 0.482840 -0.645296
H32   H     H_    0.506576 0.625586 0.444179 0.315801
O31   O     O_3   0.468102 0.961163 0.712067 -0.617448
H33   H     H_    0.443870 0.945446 0.664968 0.333792
O32   O     O_3   0.531899 0.461159 0.287933 -0.617449
H34   H     H_    0.556130 0.445443 0.335032 0.333793
Br7   Br    Br    0.733823 0.833507 0.263368 -0.531620
Br8   Br    Br    0.266177 0.333505 0.736632 -0.531620
O33   O     O_3   0.761542 0.869887 0.697674 -0.617487
H35   H     H_    0.799490 0.864686 0.722989 0.365988
O34   O     O_3   0.238458 0.369891 0.302326 -0.617487
H36   H     H_    0.200509 0.364691 0.277011 0.365988

loop_
_geom_bond_atom_site_label_1
_geom_bond_atom_site_label_2
_ccdc_geom_bond_type
C32   C36   A    
C41   H11   S    
C3    C6    S    
C10   O30   S    
C15   C17   A    
O24   H26   S    
C21   C33   A    
O21   H23   S    
O1    C3    A    
H16   C46   S    
O2    C4    A    
C46   C54   S    
C2    O7    A    
O32   H34   S    
C27   C29   A    
C41   C49   S    
C36   C38   A    
O5    C3    A    
C5    C11   A    
C54   H22   S    
C6    C12   A    
C42   C44   S    
C10   C12   A    
C23   C25   A    
O29   H31   S    
C48   C50   S    
C33   C39   A    
O23   H25   S    
C58   O17   A    
C34   C40   A    
C18   C26   A    
C47   O21   S    
C55   O25   S    
C8    C38   A    
O13   V3    S    
C43   Br3   S    
C6    C14   A    
C4    C5    S    
C19   C21   A    
C49   C60   S    
C22   C34   A    
C31   C35   A    
C29   C31   A    
C39   H3    S    
O12   C60   A    
C25   H1    S    
C48   C56   S    
O5    V1    S    
C47   C55   S    
O6    V2    S    
C2    C51   S    
C28   O34   S    
C42   C50   S    
O11   V4    S    
C30   H6    S    
C30   C32   A    
O11   C59   A    
C53   H21   S    
O20   V3    S    
C51   C53   S    
C32   C34   A    
C42   Br2   S    
C27   O33   S    
C55   H19   S    
O17   V3    S    
C41   C43   S    
C11   O31   S    
C56   H20   S    
C15   C19   A    
C46   Br6   S    
C16   C20   A    
C48   O24   S    
C35   C37   A    
C57   O18   A    
C52   C56   S    
C9    C17   A    
C43   H13   S    
C42   H12   S    
O4    V2    S    
C44   C52   S    
C7    C37   A    
C36   H10   S    
C26   H2    S    
O6    C4    A    
C56   O26   S    
C47   C49   S    
O1    V2    S    
C44   Br4   S    
O25   H27   S    
O14   C58   A    
O2    V1    S    
C31   C33   A    
C9    O29   S    
O26   H28   S    
C12   O32   S    
O4    C2    A    
C8    C57   S    
C43   C51   S    
C52   C54   S    
C9    C11   A    
O31   H33   S    
C45   Br5   S    
C48   O22   S    
C41   Br1   S    
O30   H32   S    
O3    V1    S    
C14   H8    S    
O22   H24   S    
O14   V4    S    
C10   C18   A    
C14   C16   A    
C46   C50   S    
H18   C54   S    
O3    C1    A    
C35   H9    S    
O33   H35   S    
O28   H30   S    
C13   C15   A    
C37   O27   S    
O18   V4    S    
O16   V4    S    
C50   C59   S    
C5    C13   A    
C24   C26   A    
O7    V1    S    
O15   V3    S    
C16   C18   A    
C8    C40   A    
O16   C60   A    
O34   H36   S    
C23   Br7   S    
H15   C45   S    
C1    C52   S    
C45   C53   S    
O27   H29   S    
C45   C49   S    
C28   C30   A    
C21   C23   A    
C19   C27   A    
O19   V4    S    
C22   C24   A    
C20   C28   A    
C51   C55   S    
C29   H5    S    
C7    C39   A    
O12   V3    S    
C1    O8    A    
O13   C57   A    
O9    V2    S    
C17   C25   A    
C44   H14   S    
O10   V1    S    
O8    V2    S    
C38   O28   S    
C13   H7    S    
C47   O23   S    
C24   Br8   S    
H17   C53   S    
O15   C59   A    
C7    C58   S    
C40   H4    S    
C20   C22   A    
