data_mof_unit_43666.cif
_audit_creation_date              2012-12-11T16:37:28-0500
_audit_creation_method            fapswitch 2.2
_symmetry_space_group_name_H-M    P1
_symmetry_Int_Tables_number       1
_space_group_crystal_system       triclinic
_cell_length_a                    19.228927
_cell_length_b                    6.927032
_cell_length_c                    17.966585
_cell_angle_alpha                 89.654804
_cell_angle_beta                  108.47461
_cell_angle_gamma                 89.78772
_cell_volume                      2269.72489209

loop_
_atom_site_label
_atom_site_type_symbol
_atom_type_description
_atom_site_fract_x
_atom_site_fract_y
_atom_site_fract_z
_atom_type_partial_charge
O1    O     O_R   0.561710 0.369960 0.440200 -0.525358
O2    O     O_R   0.061710 0.630040 0.940200 -0.536899
O3    O     O_R   0.412630 0.033330 0.406330 -0.515510
O4    O     O_R   0.912630 0.966670 0.906330 -0.532490
O5    O     O_R   0.438290 0.869790 0.559800 -0.520557
O6    O     O_R   0.938290 0.130210 0.059800 -0.541354
C1    C     C_R   0.383865 0.204751 0.383882 0.737844
C2    C     C_R   0.883572 0.797679 0.884458 0.719408
O7    O     O_R   0.559570 0.039810 0.430640 -0.544843
O8    O     O_R   0.059570 0.960190 0.930640 -0.542593
O9    O     O_R   0.586280 0.876320 0.584290 -0.552580
O10   O     O_R   0.086280 0.123680 0.084290 -0.545997
C3    C     C_R   0.580943 0.209028 0.415753 0.732257
C4    C     C_R   0.081055 0.791399 0.915736 0.711867
O11   O     O_R   0.413720 0.363440 0.415710 -0.538128
O12   O     O_R   0.913720 0.636560 0.915710 -0.535016
O13   O     O_3   0.508590 0.205630 0.550380 -0.395450
O14   O     O_3   0.008590 0.794370 0.050380 -0.388211
V1    V     V_3+5 0.498410 0.928130 0.490650 1.522022
V2    V     V_3+5 0.998410 0.071870 0.990650 1.461270
O15   O     O_R   0.587370 0.546990 0.593670 -0.555544
O16   O     O_R   0.087370 0.453010 0.093670 -0.556875
C5    C     C_R   0.616180 0.716319 0.615678 0.685697
C6    C     C_R   0.116582 0.282172 0.114524 0.698511
O17   O     O_R   0.440430 0.540520 0.569360 -0.546706
O18   O     O_R   0.940430 0.459480 0.069360 -0.528972
C7    C     C_R   0.423795 0.709085 0.589945 0.829115
C8    C     C_R   0.920890 0.290200 0.087008 0.832109
V3    V     V_3+5 0.501590 0.428960 0.509350 1.474737
V4    V     V_3+5 0.001590 0.571040 0.009350 1.439501
O19   O     O_3   0.491410 0.701330 0.449620 -0.353020
O20   O     O_3   0.991410 0.298670 0.949620 -0.370427
C9    C     C_R   0.339127 0.899622 0.740112 0.490482
C10   C     C_R   0.777038 0.103877 0.174306 0.504205
C11   C     C_R   0.381968 0.881164 0.689950 -0.287992
C12   C     C_R   0.825377 0.119535 0.130073 -0.194850
H1    H     H_    0.420820 0.993064 0.689020 0.147659
H2    H     H_    0.824554 0.009350 0.087353 0.198029
C13   C     C_R   0.376789 0.718387 0.642121 -0.143509
C14   C     C_R   0.872859 0.278244 0.138150 -0.152251
C15   C     C_R   0.326508 0.570730 0.645309 0.244975
C16   C     C_R   0.872385 0.421646 0.194250 0.215551
C17   C     C_R   0.282048 0.593273 0.693203 -0.033092
C18   C     C_R   0.825663 0.402649 0.239873 -0.041865
H3    H     H_    0.242101 0.483145 0.692774 0.186237
H4    H     H_    0.826236 0.512208 0.282859 0.231143
C19   C     C_R   0.288280 0.754191 0.741619 -0.042113
C20   C     C_R   0.777886 0.246093 0.230529 -0.119779
C21   C     C_R   0.255728 0.694646 0.867135 0.545537
C22   C     C_R   0.749717 0.141272 0.353114 0.518705
C23   C     C_R   0.202702 0.700165 0.905860 -0.255499
C24   C     C_R   0.699810 0.130342 0.395623 -0.269311
H5    H     H_    0.216229 0.642850 0.965073 0.154780
H6    H     H_    0.715468 0.057093 0.451994 0.161356
C25   C     C_R   0.133361 0.783183 0.870544 -0.163791
C26   C     C_R   0.630547 0.218808 0.367642 -0.121879
C27   C     C_R   0.116427 0.861382 0.794092 0.203886
C28   C     C_R   0.610367 0.319363 0.295441 0.206793
C29   C     C_R   0.168297 0.851084 0.754198 -0.093534
C30   C     C_R   0.659453 0.325769 0.251644 -0.076606
H7    H     H_    0.154040 0.907532 0.694815 0.172966
H8    H     H_    0.643847 0.400502 0.195546 0.172516
C31   C     C_R   0.238097 0.769289 0.789640 -0.063888
C32   C     C_R   0.728615 0.236443 0.279439 -0.018552
C33   C     C_R   0.761339 0.637911 0.814272 -0.009722
C34   C     C_R   0.263139 0.377827 0.308520 0.078396
C35   C     C_R   0.812550 0.786234 0.818978 -0.131346
C36   C     C_R   0.313939 0.222879 0.316597 -0.130782
C37   C     C_R   0.792607 0.925407 0.758092 -0.138047
C38   C     C_R   0.294404 0.079055 0.258319 -0.070096
H9    H     H_    0.827693 0.048147 0.759551 0.123927
H10   H     H_    0.330384 0.956845 0.261589 0.114048
C39   C     C_R   0.729190 0.901211 0.691951 -0.164704
C40   C     C_R   0.230144 0.096108 0.192848 -0.097385
H11   H     H_    0.717096 0.008665 0.645515 0.129886
H12   H     H_    0.218193 0.985136 0.148535 0.116805
C41   C     C_R   0.684010 0.736057 0.683980 -0.124605
C42   C     C_R   0.184296 0.260300 0.182309 -0.110493
C43   C     C_R   0.700576 0.611268 0.748347 0.110818
C44   C     C_R   0.202487 0.396321 0.241010 0.014102
C45   C     C_3   0.704958 0.396608 0.756269 -0.086110
C46   C     C_3   0.208526 0.607456 0.232638 -0.076824
C47   C     C_3   0.767411 0.427782 0.833977 0.303698
C48   C     C_3   0.270983 0.595474 0.310338 0.360225
H13   H     H_    0.723104 0.327699 0.709721 0.076161
H14   H     H_    0.227316 0.648001 0.182098 0.082234
H15   H     H_    0.820726 0.363462 0.834996 0.034258
H16   H     H_    0.324840 0.642866 0.306440 0.011673
S1    S     S_3+6 0.351687 0.103343 0.801443 0.079342
O21   O     O_2   0.278860 0.197872 0.791495 -0.317422
O22   O     O_2   0.384585 0.040854 0.885569 -0.241100
O23   O     O_3   0.407758 0.263389 0.779177 -0.492657
H17   H     H_    0.458050 0.215983 0.806864 0.359215
S2    S     S_3+6 0.713863 0.910348 0.155320 0.040966
O24   O     O_2   0.711802 0.820131 0.230860 -0.336168
O25   O     O_2   0.638921 0.987601 0.111093 -0.281083
O26   O     O_3   0.737409 0.740970 0.101037 -0.493958
H18   H     H_    0.703022 0.633124 0.098336 0.390240
N1    N     N_3   0.638217 0.312134 0.764331 -0.529371
H19   H     H_    0.597952 0.315827 0.709361 0.232483
H20   H     H_    0.649136 0.166107 0.778485 0.266394
N2    N     N_3   0.142741 0.713414 0.234456 -0.519416
H21   H     H_    0.105625 0.621997 0.248804 0.262498
H22   H     H_    0.116440 0.768883 0.178428 0.241751
S3    S     S_3+6 0.744698 0.388266 0.922649 0.059002
O27   O     O_2   0.665574 0.433805 0.911955 -0.265886
O28   O     O_2   0.759912 0.180821 0.947359 -0.326832
O29   O     O_3   0.796475 0.532403 0.993083 -0.497644
H23   H     H_    0.779765 0.665355 0.975598 0.354000
S4    S     S_3+6 0.247175 0.701370 0.389882 0.018110
O30   O     O_2   0.315800 0.720063 0.456701 -0.375616
O31   O     O_2   0.214487 0.899432 0.368385 -0.290428
O32   O     O_3   0.187632 0.560166 0.415961 -0.486362
H24   H     H_    0.182223 0.620856 0.463624 0.372045
N3    N     N_3   0.318327 0.396694 0.600639 -0.613636
H25   H     H_    0.367293 0.317970 0.619644 0.258198
H26   H     H_    0.306380 0.431086 0.541294 0.279243
N4    N     N_3   0.919551 0.586180 0.207851 -0.608133
H27   H     H_    0.903941 0.674890 0.157996 0.265222
H28   H     H_    0.973551 0.538964 0.218617 0.220034
S5    S     S_3+6 0.342761 0.597967 0.920666 0.125656
O33   O     O_2   0.374142 0.717803 0.992936 -0.291919
O34   O     O_2   0.332677 0.395545 0.945759 -0.265716
O35   O     O_3   0.401993 0.596187 0.869132 -0.455596
H29   H     H_    0.448631 0.546974 0.906237 0.405309
S6    S     S_3+6 0.839038 0.043460 0.395079 0.062540
O36   O     O_2   0.892913 0.206790 0.415909 -0.319130
O37   O     O_2   0.844272 0.930521 0.468372 -0.293904
O38   O     O_3   0.860393 0.896535 0.331155 -0.468845
H30   H     H_    0.900317 0.961780 0.317120 0.358410
N5    N     N_3   0.046323 0.946923 0.754817 -0.619151
H31   H     H_    0.005661 0.846565 0.754215 0.222057
H32   H     H_    0.039488 0.067054 0.786763 0.243657
N6    N     N_3   0.539860 0.412382 0.266654 -0.630329
H33   H     H_    0.534634 0.486632 0.214294 0.270112
H34   H     H_    0.500104 0.304235 0.253111 0.223585

loop_
_geom_bond_atom_site_label_1
_geom_bond_atom_site_label_2
_ccdc_geom_bond_type
C47   H15   S    
S6    O36   D    
C21   C31   A    
C22   C32   A    
C34   C36   A    
O4    C2    A    
V1    O19   S    
O26   H18   S    
C13   C15   A    
C23   C25   A    
C28   N6    S    
S3    O28   D    
O9    V1    S    
C40   H12   S    
C33   C43   A    
C11   H1    S    
O32   H24   S    
O3    C1    A    
C19   C31   S    
C11   C13   A    
C42   C44   A    
C20   C32   S    
C8    C14   S    
O12   V4    S    
N3    H25   S    
O13   V3    S    
O29   H23   S    
C30   H8    S    
C37   H9    S    
O7    C3    A    
S4    O30   D    
S5    O35   S    
O13   V1    S    
C1    C36   S    
O5    C7    A    
O7    V1    S    
O6    C8    A    
O8    V2    S    
C33   C35   A    
C38   C40   A    
C22   C24   A    
C37   C39   A    
O14   V4    S    
S1    O22   D    
O14   V2    S    
S2    O25   D    
C3    C26   S    
C14   C16   A    
C4    C25   S    
C2    O12   A    
N4    H27   S    
C15   C17   A    
S2    O24   D    
C16   C18   A    
C15   N3    S    
C45   C47   S    
C24   H6    S    
O11   V3    S    
N4    H28   S    
C41   C43   A    
O17   V3    S    
S3    O29   S    
C29   H7    S    
C10   S2    S    
C12   C14   A    
C44   C46   S    
O8    C4    A    
C7    C13   S    
C43   C45   S    
C16   N4    S    
N6    H34   S    
C1    O11   A    
C45   N1    S    
S6    O38   S    
C21   C23   A    
C46   H14   S    
O15   V3    S    
C48   S4    S    
C47   S3    S    
C23   H5    S    
C33   C47   S    
N2    H22   S    
C9    S1    S    
N1    H19   S    
C21   S5    S    
O10   V2    S    
O1    V3    S    
C46   N2    S    
C5    C41   S    
S1    O23   S    
O3    V1    S    
C17   H3    S    
S4    O32   S    
S5    O33   D    
C22   S6    S    
C6    C42   S    
N1    H20   S    
O18   V4    S    
C46   C48   S    
C25   C27   A    
C9    C19   A    
O16   C6    A    
O1    C3    A    
C39   H11   S    
N5    H31   S    
O6    V2    S    
O38   H30   S    
V2    O20   S    
N3    H26   S    
S6    O37   D    
O16   V4    S    
O18   C8    A    
C27   N5    S    
C48   H16   S    
N5    H32   S    
N6    H33   S    
O5    V1    S    
O17   C7    A    
C34   C44   A    
S3    O27   D    
O10   C6    A    
C29   C31   A    
S2    O26   S    
O2    V4    S    
C30   C32   A    
O15   C5    A    
V3    O19   S    
C12   H2    S    
V4    O20   S    
C17   C19   A    
O9    C5    A    
O23   H17   S    
C9    C11   A    
C26   C28   A    
C10   C12   A    
N2    H21   S    
O2    C4    A    
S4    O31   D    
S5    O34   D    
C27   C29   A    
C34   C48   S    
O4    V2    S    
C18   C20   A    
C10   C20   A    
C2    C35   S    
C36   C38   A    
C40   C42   A    
C39   C41   A    
C38   H10   S    
C35   C37   A    
S1    O21   D    
C28   C30   A    
C18   H4    S    
C45   H13   S    
C24   C26   A    
O35   H29   S    
