data_mof_unit_64564.cif
_audit_creation_date              2012-12-10T19:49:03-0500
_audit_creation_method            fapswitch 2.2
_symmetry_space_group_name_H-M    P1
_symmetry_Int_Tables_number       1
_space_group_crystal_system       triclinic
_cell_length_a                    28.374038
_cell_length_b                    18.255285
_cell_length_c                    21.57381
_cell_angle_alpha                 90.019571
_cell_angle_beta                  139.961603
_cell_angle_gamma                 89.924537
_cell_volume                      7188.69597846

loop_
_atom_site_label
_atom_site_type_symbol
_atom_type_description
_atom_site_fract_x
_atom_site_fract_y
_atom_site_fract_z
_atom_type_partial_charge
C1    C     C_R   0.858717 0.000050 0.858888 0.923919
C2    C     C_R   0.141283 0.999950 0.141112 0.923868
C3    C     C_R   0.358717 0.500050 0.858889 0.924005
C4    C     C_R   0.641283 0.499949 0.141111 0.923777
C5    C     C_1   0.717361 0.000112 0.717934 -0.149815
C6    C     C_1   0.282639 0.999888 0.282066 -0.149800
C7    C     C_1   0.217361 0.500112 0.717934 -0.149793
C8    C     C_1   0.782639 0.499888 0.282066 -0.149833
C9    C     C_R   0.000046 0.858742 0.500101 0.995602
C10   C     C_R   0.999954 0.141258 0.499904 0.995665
C11   C     C_R   0.500046 0.358742 0.500099 0.995225
C12   C     C_R   0.499953 0.641258 0.499904 0.996028
C13   C     C_R   0.000386 0.002481 0.621945 0.904207
C14   C     C_R   0.999614 0.997534 0.378053 0.904137
C15   C     C_R   0.500386 0.502481 0.621945 0.904260
C16   C     C_R   0.499611 0.497604 0.378047 0.903397
C17   C     C_R   0.500049 0.140820 0.500038 0.917872
C18   C     C_R   0.499949 0.859179 0.499959 0.917855
C19   C     C_R   0.000049 0.640820 0.500039 0.917865
C20   C     C_R   0.999950 0.359179 0.499961 0.917842
C21   C     C_R   0.640822 0.000033 0.641034 0.915200
C22   C     C_R   0.359177 0.999967 0.358965 0.915236
C23   C     C_R   0.140823 0.500033 0.641035 0.915230
C24   C     C_R   0.859177 0.499967 0.358965 0.915219
C25   C     C_1   0.000141 0.782198 0.500017 -0.132634
C26   C     C_1   0.999857 0.217802 0.499986 -0.132750
C27   C     C_1   0.500141 0.282198 0.500019 -0.132544
C28   C     C_1   0.499854 0.717802 0.499982 -0.133076
C29   C     C_1   0.500133 0.217361 0.500040 -0.172666
C30   C     C_1   0.499861 0.782639 0.499957 -0.172250
C31   C     C_1   0.000134 0.717361 0.500038 -0.172471
C32   C     C_1   0.999864 0.282639 0.499962 -0.172370
C33   C     C_R   0.997783 0.999955 0.876322 0.881463
C34   C     C_R   0.002241 0.000046 0.123701 0.881419
C35   C     C_R   0.497776 0.499954 0.876316 0.881449
C36   C     C_R   0.502322 0.500044 0.123778 0.881313
C37   C     C_3   0.984855 0.922197 0.769172 -0.423750
C38   C     C_3   0.015393 0.077771 0.231068 -0.423816
C39   C     C_3   0.062425 0.946798 0.276281 -0.463170
C40   C     C_3   0.937449 0.053039 0.723598 -0.463315
C41   C     C_3   0.484797 0.422204 0.769116 -0.423769
C42   C     C_3   0.516181 0.577663 0.231821 -0.424060
C43   C     C_3   0.562002 0.446267 0.275886 -0.462828
C44   C     C_3   0.437471 0.553071 0.723621 -0.463244
C45   C     C_3   0.972183 0.926780 0.686141 -0.245684
C46   C     C_3   0.028003 0.073170 0.314045 -0.245580
C47   C     C_3   0.056535 0.939083 0.341868 -0.254775
C48   C     C_3   0.943332 0.060801 0.658004 -0.254736
C49   C     C_3   0.472149 0.426791 0.686106 -0.245675
C50   C     C_3   0.528608 0.573019 0.314642 -0.245247
C51   C     C_3   0.556085 0.438726 0.341452 -0.254867
C52   C     C_3   0.443354 0.560825 0.658026 -0.254734
C53   C     C_3   0.073565 0.028551 0.862730 -0.419797
C54   C     C_3   0.926374 0.971677 0.137200 -0.419784
C55   C     C_3   0.573576 0.528501 0.862744 -0.419778
C56   C     C_3   0.426180 0.472409 0.136980 -0.419646
C57   C     C_3   0.998077 0.000519 0.808800 0.017801
C58   C     C_3   0.001946 0.999486 0.191222 0.017808
C59   C     C_3   0.498069 0.500517 0.808793 0.017788
C60   C     C_3   0.502017 0.499498 0.191287 0.017849
C61   C     C_3   0.001013 0.003074 0.690819 -0.156882
C62   C     C_3   0.998988 0.996945 0.309181 -0.156972
C63   C     C_3   0.501012 0.503074 0.690818 -0.156900
C64   C     C_3   0.498985 0.497032 0.309173 -0.157298
C65   C     C_3   0.079855 0.021603 0.797934 0.678318
C66   C     C_3   0.920105 0.978612 0.202018 0.678398
C67   C     C_3   0.579859 0.521570 0.797941 0.678306
C68   C     C_3   0.419964 0.479359 0.201853 0.678736
C69   C     C_1   0.782193 0.000136 0.782677 -0.167439
C70   C     C_1   0.217807 0.999864 0.217323 -0.167422
C71   C     C_1   0.282193 0.500136 0.782678 -0.167447
C72   C     C_1   0.717807 0.499864 0.217322 -0.167433
H1    H     H_    0.033005 0.886969 0.828546 0.240503
H2    H     H_    0.967364 0.113147 0.171781 0.240565
H3    H     H_    0.059171 0.892829 0.249344 0.234517
H4    H     H_    0.940533 0.107005 0.750385 0.234486
H5    H     H_    0.532915 0.386940 0.828471 0.240489
H6    H     H_    0.468519 0.613488 0.172812 0.240933
H7    H     H_    0.558186 0.392280 0.248472 0.234463
H8    H     H_    0.440589 0.607036 0.750441 0.234526
H9    H     H_    0.936007 0.896684 0.742099 0.181119
H10   H     H_    0.064337 0.103121 0.258252 0.180981
H11   H     H_    0.117087 0.969593 0.318997 0.169607
H12   H     H_    0.882852 0.030075 0.680929 0.169612
H13   H     H_    0.435921 0.396732 0.742007 0.181087
H14   H     H_    0.565405 0.602502 0.259318 0.180545
H15   H     H_    0.616879 0.468492 0.318761 0.169551
H16   H     H_    0.382862 0.530140 0.680944 0.169612
H17   H     H_    0.911558 0.926806 0.618734 0.171745
H18   H     H_    0.088624 0.073017 0.381479 0.171738
H19   H     H_    0.111704 0.953290 0.415937 0.161619
H20   H     H_    0.888196 0.046488 0.583958 0.161542
H21   H     H_    0.411525 0.426837 0.618687 0.171748
H22   H     H_    0.589215 0.572433 0.382144 0.171676
H23   H     H_    0.611358 0.452584 0.415592 0.161987
H24   H     H_    0.388212 0.546530 0.583978 0.161527
H25   H     H_    0.118172 0.997559 0.931226 0.189699
H26   H     H_    0.881865 0.002823 0.068815 0.189732
H27   H     H_    0.919662 0.913564 0.115841 0.225853
H28   H     H_    0.080095 0.086692 0.883884 0.225944
H29   H     H_    0.618159 0.497468 0.931210 0.189707
H30   H     H_    0.381977 0.504000 0.068913 0.189818
H31   H     H_    0.418906 0.414380 0.115013 0.225613
H32   H     H_    0.580150 0.586633 0.883957 0.225899
O1    O     O_R   0.892660 0.939370 0.892650 -0.612120
O2    O     O_R   0.107340 0.060630 0.107350 -0.612148
O3    O     O_R   0.107340 0.939370 0.107350 -0.612203
O4    O     O_R   0.892660 0.060630 0.892650 -0.612178
O5    O     O_R   0.392660 0.439370 0.892650 -0.612086
O6    O     O_R   0.607340 0.560630 0.107350 -0.612148
O7    O     O_R   0.607340 0.439370 0.107350 -0.612282
O8    O     O_R   0.392660 0.560630 0.892650 -0.612144
O9    O     O_R   0.999980 0.939370 0.907380 -0.624633
O10   O     O_R   0.000020 0.060630 0.092620 -0.624614
O11   O     O_R   0.000020 0.939370 0.092620 -0.621251
O12   O     O_R   0.999980 0.060630 0.907380 -0.621238
O13   O     O_R   0.499980 0.439370 0.907380 -0.624633
O14   O     O_R   0.500020 0.560630 0.092620 -0.624532
O15   O     O_R   0.500020 0.439370 0.092620 -0.621320
O16   O     O_R   0.499980 0.560630 0.907380 -0.621237
O17   O     O_R   0.939350 0.892680 0.439340 -0.596706
O18   O     O_R   0.060650 0.107320 0.560660 -0.596560
O19   O     O_R   0.060650 0.892680 0.560660 -0.592932
O20   O     O_R   0.939350 0.107320 0.439340 -0.592928
O21   O     O_R   0.439350 0.392680 0.439340 -0.596825
O22   O     O_R   0.560650 0.607320 0.560660 -0.596196
O23   O     O_R   0.560650 0.392680 0.560660 -0.593024
O24   O     O_R   0.439350 0.607320 0.439340 -0.592893
O25   O     O_R   0.939380 1.000000 0.531980 -0.618465
O26   O     O_R   0.060620 1.000000 0.468020 -0.618406
O27   O     O_R   0.439380 0.500000 0.531980 -0.618438
O28   O     O_R   0.560620 0.500000 0.468020 -0.618182
O29   O     O_R   0.060570 0.000000 0.653170 -0.559228
O30   O     O_R   0.939430 1.000000 0.346830 -0.559234
O31   O     O_R   0.560570 0.500000 0.653170 -0.559247
O32   O     O_R   0.439430 0.500000 0.346830 -0.559319
O33   O     O_R   0.499910 0.107290 0.447610 -0.607726
O34   O     O_R   0.500090 0.892710 0.552390 -0.607570
O35   O     O_R   0.500090 0.107290 0.552390 -0.613801
O36   O     O_R   0.499910 0.892710 0.447610 -0.613646
O37   O     O_R   0.999910 0.607290 0.447610 -0.607567
O38   O     O_R   0.000090 0.392710 0.552390 -0.607535
O39   O     O_R   0.000090 0.607290 0.552390 -0.613846
O40   O     O_R   0.999910 0.392710 0.447610 -0.613818
O41   O     O_R   0.607280 1.000000 0.555010 -0.621190
O42   O     O_R   0.392720 1.000000 0.444990 -0.621133
O43   O     O_R   0.107280 0.500000 0.555010 -0.621135
O44   O     O_R   0.892720 0.500000 0.444990 -0.621134
O45   O     O_R   0.607300 0.000000 0.659580 -0.600019
O46   O     O_R   0.392700 1.000000 0.340420 -0.599976
O47   O     O_R   0.107300 0.500000 0.659580 -0.600026
O48   O     O_R   0.892700 0.500000 0.340420 -0.600015
Zn1   Zn    Zn3+2 1.000000 0.919050 0.000000 1.013098
Zn2   Zn    Zn3+2 1.000000 0.080950 0.000000 1.013134
Zn3   Zn    Zn3+2 0.500000 0.419050 0.000000 1.012940
Zn4   Zn    Zn3+2 0.500000 0.580950 0.000000 1.013238
Zn5   Zn    Zn3+2 0.919050 0.000000 0.419040 1.114386
Zn6   Zn    Zn3+2 0.080950 1.000000 0.580960 1.114536
Zn7   Zn    Zn3+2 0.419050 0.500000 0.419040 1.114313
Zn8   Zn    Zn3+2 0.580950 0.500000 0.580960 1.114799
Zn9   Zn    Zn3+2 0.499950 1.000000 0.430140 1.038844
Zn10  Zn    Zn3+2 0.500050 1.000000 0.569860 1.038843
Zn11  Zn    Zn3+2 0.999950 0.500000 0.430140 1.038844
Zn12  Zn    Zn3+2 0.000050 0.500000 0.569860 1.038836
C73   C     C_2   0.995856 0.857592 0.676270 0.939930
O49   O     O_2   0.056506 0.830829 0.745231 -0.540096
O50   O     O_R   0.944979 0.821371 0.587592 -0.813817
H33   H     H_    0.964330 0.773042 0.590708 0.345126
C74   C     C_2   0.004451 0.142410 0.324022 0.939986
O51   O     O_2   0.943909 0.169372 0.255054 -0.540258
O52   O     O_R   0.055335 0.178448 0.412826 -0.813721
H34   H     H_    0.036087 0.226825 0.409799 0.345075
C75   C     C_2   0.044752 0.860645 0.351255 0.982879
O53   O     O_2   0.017793 0.814840 0.289556 -0.574194
O54   O     O_R   0.067258 0.840227 0.433307 -0.804842
H35   H     H_    0.058574 0.786355 0.433190 0.346188
C76   C     C_2   0.954963 0.139271 0.648488 0.982934
O55   O     O_2   0.981729 0.185141 0.710037 -0.574367
O56   O     O_R   0.932559 0.159634 0.566496 -0.804737
H36   H     H_    0.941156 0.213522 0.566532 0.346186
C77   C     C_2   0.495813 0.357594 0.676232 0.939980
O57   O     O_2   0.556445 0.330802 0.745202 -0.540151
O58   O     O_R   0.444942 0.321397 0.587539 -0.813788
H37   H     H_    0.464280 0.273059 0.590650 0.345131
C78   C     C_2   0.505490 0.642436 0.325009 0.940316
O59   O     O_2   0.445366 0.670141 0.256014 -0.540643
O60   O     O_R   0.556383 0.677780 0.414280 -0.813471
H38   H     H_    0.537533 0.726345 0.411587 0.344897
C79   C     C_2   0.543801 0.360407 0.350418 0.982167
O61   O     O_2   0.515919 0.314908 0.288029 -0.573439
O62   O     O_R   0.567006 0.339696 0.432912 -0.805239
H39   H     H_    0.557973 0.285890 0.432477 0.346169
C80   C     C_2   0.455008 0.639290 0.648527 0.983020
O63   O     O_2   0.481741 0.685169 0.710052 -0.574377
O64   O     O_R   0.432661 0.659639 0.566575 -0.804770
H40   H     H_    0.441251 0.713529 0.566606 0.346194
Cl1   Cl    Cl    0.148156 0.953827 0.849211 -0.479441
Cl2   Cl    Cl    0.851970 0.046545 0.150940 -0.479679
Cl3   Cl    Cl    0.881460 0.895562 0.193862 -0.510427
Cl4   Cl    Cl    0.118299 0.104730 0.805860 -0.510601
Cl5   Cl    Cl    0.648140 0.453778 0.849180 -0.479536
Cl6   Cl    Cl    0.352433 0.547875 0.151436 -0.480139
Cl7   Cl    Cl    0.380589 0.396627 0.192909 -0.509589
Cl8   Cl    Cl    0.618326 0.604695 0.805904 -0.510637

loop_
_geom_bond_atom_site_label_1
_geom_bond_atom_site_label_2
_ccdc_geom_bond_type
C25   C31   T    
O1    Zn1   S    
O52   H34   S    
C22   O46   A    
C26   C32   T    
C73   O49   D    
C49   C63   S    
C55   C59   S    
C27   C29   T    
C17   C29   S    
C74   O51   D    
C20   O40   A    
C11   O23   A    
C39   H11   S    
C19   C31   S    
C66   Cl2   S    
C47   C62   S    
O25   Zn5   S    
C78   O59   D    
C9    C25   S    
C77   O57   D    
C52   C80   S    
O42   Zn10  S    
C45   C73   S    
O28   Zn8   S    
O41   Zn9   S    
C46   C62   S    
C64   C68   S    
C17   O33   A    
C11   O21   A    
C10   O20   A    
C7    C71   T    
C41   H5    S    
C78   O60   S    
C15   O27   A    
C15   O31   A    
C13   O25   A    
C44   C59   S    
C43   H7    S    
C14   C62   S    
C2    O3    A    
O16   Zn4   S    
C50   C64   S    
C35   C59   S    
O29   Zn6   S    
C18   O34   A    
C36   O15   A    
C40   H12   S    
C37   H1    S    
C67   Cl8   S    
C24   O48   A    
C9    O19   A    
C38   C58   S    
O32   Zn7   S    
C40   C57   S    
C22   O42   A    
C76   O56   S    
C46   H18   S    
O13   Zn3   S    
C9    O17   A    
O14   Zn4   S    
C42   H14   S    
C21   O45   A    
C53   C65   S    
C49   C77   S    
O12   Zn2   S    
C66   Cl3   S    
C51   C79   S    
C10   C26   S    
C77   O58   S    
C73   O50   S    
O17   Zn5   S    
O11   Zn1   S    
C68   Cl7   S    
C74   O52   S    
C37   H9    S    
C35   O16   A    
C13   O29   A    
C16   O28   A    
C41   C49   S    
C48   C76   S    
C75   O54   S    
C53   H28   S    
C37   C57   S    
C63   C67   S    
C8    C72   T    
C62   C66   S    
C68   Cl6   S    
O62   H39   S    
O44   Zn12  S    
C20   O38   A    
C44   H8    S    
C41   C59   S    
O37   Zn11  S    
C17   O35   A    
C24   O44   A    
C42   C60   S    
O50   H33   S    
C53   C57   S    
C50   H22   S    
C14   O30   A    
O2    Zn2   S    
C34   O11   A    
C75   O53   D    
C39   C58   S    
C5    C69   T    
C55   H32   S    
C2    O2    A    
C1    C69   S    
C40   H4    S    
C56   H30   S    
C21   O41   A    
C3    C71   S    
O58   H37   S    
C67   Cl5   S    
C12   O22   A    
C61   C65   S    
C65   Cl4   S    
O54   H35   S    
C11   C27   S    
C3    O8    A    
O20   Zn5   S    
C80   O64   S    
O18   Zn6   S    
C5    C21   S    
O34   Zn10  S    
C47   C75   S    
C18   O36   A    
O3    Zn1   S    
C43   C60   S    
C42   C50   S    
C54   C66   S    
O38   Zn12  S    
C4    O7    A    
C12   C28   S    
O47   Zn12  S    
C39   H3    S    
O40   Zn11  S    
O8    Zn4   S    
C18   C30   S    
C54   C58   S    
C65   Cl1   S    
C54   H27   S    
C35   O13   A    
O4    Zn2   S    
C79   O62   S    
C37   C45   S    
C16   O32   A    
O39   Zn12  S    
C4    C72   S    
C36   O14   A    
C39   C47   S    
C20   C32   S    
C45   H17   S    
C40   C48   S    
O46   Zn9   S    
C4    O6    A    
O27   Zn7   S    
C33   O12   A    
O15   Zn3   S    
O31   Zn8   S    
C6    C70   T    
C47   H19   S    
O35   Zn10  S    
C51   C64   S    
C56   H31   S    
O9    Zn1   S    
C36   C60   S    
C52   C63   S    
C44   C52   S    
C55   C67   S    
O21   Zn7   S    
C42   H6    S    
C12   O24   A    
O19   Zn6   S    
C33   C57   S    
O56   H36   S    
C34   O10   A    
C41   H13   S    
C55   H29   S    
C33   O9    A    
C46   C74   S    
O26   Zn6   S    
C53   H25   S    
C28   C30   T    
O36   Zn9   S    
C43   H15   S    
O60   H38   S    
C56   C68   S    
O33   Zn9   S    
C43   C51   S    
C48   C61   S    
C23   O43   A    
C3    O5    A    
C7    C23   S    
C45   C61   S    
C8    C24   S    
C38   H2    S    
C52   H24   S    
C44   H16   S    
C79   O61   D    
O5    Zn3   S    
C19   O39   A    
C38   C46   S    
O48   Zn11  S    
O6    Zn4   S    
C76   O55   D    
C1    O4    A    
C23   O47   A    
O64   H40   S    
C56   C60   S    
C10   O18   A    
O30   Zn5   S    
C13   C61   S    
C14   O26   A    
C19   O37   A    
C80   O63   D    
C48   H20   S    
C1    O1    A    
C34   C58   S    
C15   C63   S    
C54   H26   S    
O43   Zn11  S    
O45   Zn10  S    
C16   C64   S    
C49   H21   S    
C2    C70   S    
C50   C78   S    
O7    Zn3   S    
O23   Zn8   S    
O10   Zn2   S    
C38   H10   S    
O24   Zn7   S    
C51   H23   S    
O22   Zn8   S    
C6    C22   S    
