data_mof_unit_56725.cif
_audit_creation_date              2012-12-10T20:35:55-0500
_audit_creation_method            fapswitch 2.2
_symmetry_space_group_name_H-M    P1
_symmetry_Int_Tables_number       1
_space_group_crystal_system       triclinic
_cell_length_a                    15.73751
_cell_length_b                    10.677419
_cell_length_c                    9.861604
_cell_angle_alpha                 89.09891
_cell_angle_beta                  89.770212
_cell_angle_gamma                 90.097127
_cell_volume                      1656.88355889

loop_
_atom_site_label
_atom_site_type_symbol
_atom_type_description
_atom_site_fract_x
_atom_site_fract_y
_atom_site_fract_z
_atom_type_partial_charge
C1    C     C_R   0.499766 0.260266 0.500794 0.906273
C2    C     C_R   0.501000 0.128423 0.499104 -0.131745
C3    C     C_R   0.455331 0.067826 0.397878 -0.347633
C4    C     C_R   0.338308 0.500148 0.500292 0.909911
C5    C     C_R   0.456577 0.937573 0.391479 0.465075
C6    C     C_R   0.501538 0.871781 0.493251 -0.199723
C7    C     C_R   0.555461 0.934183 0.581016 0.048819
C8    C     C_3   0.566441 0.921518 0.730992 -0.468055
C9    C     C_3   0.565949 0.063470 0.734160 -0.459093
C10   C     C_R   0.431650 0.455261 0.072319 0.046682
C11   C     C_R   0.562308 0.560764 0.071361 0.518182
C12   C     C_3   0.950601 0.376289 0.554767 0.487542
C13   C     C_R   0.563035 0.557320 0.926059 -0.281995
C14   C     C_R   0.431172 0.456605 0.929981 0.158501
C15   C     C_3   0.394298 0.328124 0.926712 0.466408
C16   C     C_R   0.499023 0.739751 0.498694 0.923511
C17   C     C_3   0.395458 0.326418 0.080787 -0.558847
C18   C     C_R   0.661708 0.500575 0.499695 0.887137
C19   C     C_3   0.048781 0.376520 0.555936 -0.452262
C20   C     C_3   0.050139 0.523059 0.355322 -0.575492
C21   C     C_3   0.951968 0.528661 0.355390 0.404158
C22   C     C_1   0.750550 0.502383 0.499280 -0.132445
C23   C     C_3   0.917308 0.504633 0.501326 0.068197
C24   C     C_3   0.082811 0.504285 0.502485 0.088651
C25   C     C_3   0.413122 0.920509 0.168128 0.102806
C26   C     C_3   0.383309 0.821709 0.069536 -0.778507
C27   C     C_3   0.644919 0.738866 0.091609 0.086636
C28   C     C_3   0.686185 0.815379 0.202353 -0.782827
C29   C     C_3   0.056732 0.574591 0.830469 0.133194
C30   C     C_3   0.125593 0.549778 0.935272 -0.759507
C31   C     C_3   0.949345 0.609999 0.595132 -0.614236
C32   C     C_3   0.048628 0.614466 0.589581 0.375429
C33   C     C_1   0.825837 0.503807 0.499800 0.057102
C34   C     C_1   0.174242 0.502992 0.501488 0.043239
C35   C     C_1   0.249503 0.501577 0.500869 -0.128707
C36   C     C_R   0.555606 0.061932 0.583588 0.125822
F1    F     F_    0.919424 0.350396 0.683954 -0.673503
F2    F     F_    0.312669 0.329219 0.875083 -0.653774
F3    F     F_    0.920019 0.440668 0.266854 -0.653292
H1    H     H_    0.928065 0.300424 0.487520 0.139647
H2    H     H_    0.614900 0.598761 0.868839 0.166885
H3    H     H_    0.436687 0.258567 0.879478 0.067488
H4    H     H_    0.331122 0.324998 0.127744 0.233641
H5    H     H_    0.440986 0.257210 0.124002 0.162435
H6    H     H_    0.076260 0.611151 0.309691 0.157481
H7    H     H_    0.072342 0.444874 0.290762 0.239933
H8    H     H_    0.931339 0.622865 0.318539 0.104956
H9    H     H_    0.063938 0.701422 0.530424 0.119529
H10   H     H_    0.922408 0.595381 0.698074 0.228437
H11   H     H_    0.480266 0.944993 0.142318 0.123271
H12   H     H_    0.073645 0.354557 0.658721 0.224432
H13   H     H_    0.372227 0.004398 0.153834 0.149744
H14   H     H_    0.315918 0.796781 0.090385 0.260505
H15   H     H_    0.388932 0.858267 0.963836 0.200087
H16   H     H_    0.422917 0.736447 0.080367 0.243000
H17   H     H_    0.586518 0.789327 0.057832 0.118428
H18   H     H_    0.690387 0.733099 0.005389 0.141772
H19   H     H_    0.745306 0.768782 0.237823 0.254421
H20   H     H_    0.702178 0.910346 0.162324 0.206620
H21   H     H_    0.641839 0.824691 0.289405 0.245556
H22   H     H_    0.024601 0.484558 0.810689 0.204005
H23   H     H_    0.923810 0.701864 0.559154 0.156358
H24   H     H_    0.010336 0.641091 0.874580 0.156430
H25   H     H_    0.158014 0.638687 0.961200 0.250257
H26   H     H_    0.096914 0.508370 0.028808 0.217629
H27   H     H_    0.173123 0.483409 0.894351 0.300594
H28   H     H_    0.414997 0.121581 0.330131 0.158117
H29   H     H_    0.510591 0.878225 0.782982 0.213624
H30   H     H_    0.628903 0.880064 0.758555 0.193534
H31   H     H_    0.509463 0.100861 0.787156 0.199792
H32   H     H_    0.627859 0.104282 0.764799 0.211730
H33   H     H_    0.072174 0.300237 0.489765 0.157614
N1    N     N_R   0.499430 0.499140 0.142800 -0.135277
N2    N     N_R   0.499430 0.499180 0.857150 -0.153088
O1    O     O_R   0.500010 0.316790 0.614690 -0.622005
O2    O     O_3   0.626968 0.617388 0.143330 -0.562553
O3    O     O_3   0.094219 0.629491 0.713464 -0.598643
O4    O     O_R   0.500000 0.316760 0.385350 -0.626916
O5    O     O_R   0.377150 0.500020 0.614720 -0.574516
O6    O     O_R   0.377140 0.499990 0.385380 -0.615208
O7    O     O_R   0.500000 0.683240 0.614650 -0.630833
O8    O     O_R   0.499990 0.683210 0.385310 -0.563849
O9    O     O_R   0.622860 0.500010 0.614620 -0.623660
O10   O     O_R   0.622850 0.499980 0.385280 -0.548359
O11   O     O_3   0.404844 0.872819 0.302230 -0.592110
Zn1   Zn    Zn3+2 0.500010 0.500020 0.653130 0.972115
Zn2   Zn    Zn3+2 0.499990 0.499980 0.346870 1.015317

loop_
_geom_bond_atom_site_label_1
_geom_bond_atom_site_label_2
_ccdc_geom_bond_type
O4    Zn2   S    
C29   H24   S    
C30   H25   S    
C7    C36   A    
O10   Zn2   S    
C26   H16   S    
C17   H4    S    
C7    C8    S    
C12   C23   S    
C8    H30   S    
C14   N2    A    
C4    O6    A    
O6    Zn2   S    
C11   O2    S    
C5    C6    A    
C34   C35   T    
C10   N1    A    
C10   C17   S    
O8    Zn2   S    
C1    C2    S    
C12   F1    S    
C25   H11   S    
N1    Zn2   S    
C32   O3    S    
C20   C24   S    
C8    C9    S    
C23   C33   S    
C9    C36   S    
C18   O10   A    
C20   H6    S    
C5    O11   S    
C4    C35   S    
C1    O4    A    
C32   H9    S    
C31   H23   S    
C19   H33   S    
C31   H10   S    
C26   H15   S    
C13   H2    S    
C28   H21   S    
C29   H22   S    
C1    O1    A    
C9    H31   S    
C4    O5    A    
C27   H18   S    
C27   H17   S    
C25   C26   S    
C24   C34   S    
C23   C31   S    
C12   H1    S    
C24   C32   S    
C15   F2    S    
C29   C30   S    
O1    Zn1   S    
C31   C32   S    
C21   F3    S    
C25   O11   S    
C18   O9    A    
O7    Zn1   S    
N2    Zn1   S    
C30   H27   S    
C8    H29   S    
C21   C23   S    
C11   N1    A    
C27   O2    S    
C26   H14   S    
C28   H20   S    
C2    C36   A    
C15   C17   S    
C22   C33   T    
C18   C22   S    
C3    H28   S    
C9    H32   S    
C15   H3    S    
C3    C5    A    
C6    C7    A    
C28   H19   S    
C19   C24   S    
C25   H13   S    
C11   C13   A    
C12   C19   S    
C16   O7    A    
C2    C3    A    
C17   H5    S    
C30   H26   S    
C6    C16   S    
C19   H12   S    
O9    Zn1   S    
C29   O3    S    
C20   C21   S    
C16   O8    A    
C27   C28   S    
C14   C15   S    
O5    Zn1   S    
C20   H7    S    
C10   C14   A    
C13   N2    A    
C21   H8    S    
