data_mof_unit_43144.cif
_audit_creation_date              2012-12-10T17:59:16-0500
_audit_creation_method            fapswitch 2.2
_symmetry_space_group_name_H-M    P1
_symmetry_Int_Tables_number       1
_space_group_crystal_system       triclinic
_cell_length_a                    10.898043
_cell_length_b                    9.52079
_cell_length_c                    10.77739
_cell_angle_alpha                 89.971191
_cell_angle_beta                  90.817661
_cell_angle_gamma                 90.161322
_cell_volume                      1118.12178428

loop_
_atom_site_label
_atom_site_type_symbol
_atom_type_description
_atom_site_fract_x
_atom_site_fract_y
_atom_site_fract_z
_atom_type_partial_charge
C1    C     C_R   0.261465 0.499904 0.499951 0.893835
C2    C     C_3   0.642655 0.473918 0.938050 0.680468
C3    C     C_R   0.058617 0.379567 0.457606 0.405031
C4    C     C_R   0.060566 0.620884 0.541532 0.383154
C5    C     C_R   0.931584 0.381456 0.461106 -0.226789
C6    C     C_R   0.933415 0.619551 0.536811 -0.138314
C7    C     C_R   0.869639 0.500496 0.498965 -0.163392
C8    C     C_R   0.126257 0.499957 0.499970 -0.306141
C9    C     C_R   0.458046 0.074056 0.399230 0.080808
C10   C     C_R   0.457031 0.925555 0.399588 0.058966
C11   C     C_R   0.543894 0.925725 0.600096 -0.014124
C12   C     C_R   0.543304 0.074237 0.600224 -0.005857
C13   C     C_R   0.495686 0.500222 0.260046 0.791703
C14   C     C_R   0.737186 0.500210 0.498875 0.930153
C15   C     C_R   0.505638 0.500036 0.740565 0.883318
C16   C     C_3   0.459184 0.645994 0.070386 -0.358531
C17   C     C_3   0.411685 0.386990 0.068670 -0.360059
C18   C     C_3   0.458445 0.643374 0.927961 -0.386509
C19   C     C_3   0.415080 0.388494 0.926149 -0.405728
C20   C     C_3   0.631243 0.469387 0.082227 -0.411364
C21   C     C_3   0.498846 0.500938 0.122771 0.020900
C22   C     C_3   0.508627 0.500276 0.879427 -0.067075
Cu1   Cu    Cu3+1 0.500020 0.640660 0.500000 1.027527
Cu2   Cu    Cu3+1 0.500020 0.359340 0.500000 1.041157
H1    H     H_    0.522636 0.729817 0.104036 0.229226
H2    H     H_    0.438608 0.280945 0.102772 0.200877
H3    H     H_    0.579842 0.870477 0.680277 0.166750
H4    H     H_    0.578101 0.129427 0.680519 0.197032
H5    H     H_    0.365852 0.672919 0.103557 0.182899
H6    H     H_    0.316297 0.407409 0.098991 0.216947
H7    H     H_    0.362507 0.658501 0.894503 0.218761
H8    H     H_    0.321599 0.413608 0.889413 0.197858
H9    H     H_    0.510790 0.734308 0.891802 0.234122
H10   H     H_    0.434314 0.281908 0.890751 0.236011
H11   H     H_    0.695295 0.545085 0.128097 0.197225
H12   H     H_    0.657741 0.364831 0.120150 0.197360
H13   H     H_    0.879577 0.290374 0.430865 0.210419
H14   H     H_    0.882993 0.711627 0.565080 0.223487
H15   H     H_    0.424972 0.129004 0.317956 0.135876
H16   H     H_    0.421461 0.870138 0.319245 0.121548
N1    N     N_R   0.500030 0.852070 0.500030 -0.171609
N2    N     N_R   0.500030 0.147930 0.500030 -0.172539
O1    O     O_R   0.319660 0.618740 0.499990 -0.524244
O2    O     O_R   0.319660 0.381260 0.499990 -0.510755
O3    O     O_R   0.499990 0.618790 0.317690 -0.611660
O4    O     O_R   0.499990 0.381210 0.317690 -0.591817
O5    O     O_R   0.680370 0.618830 0.500010 -0.574994
O6    O     O_R   0.680370 0.381170 0.500010 -0.571991
O7    O     O_R   0.500030 0.618780 0.682310 -0.575978
O8    O     O_R   0.500030 0.381220 0.682310 -0.571310
S1    S     S_3+6 0.750330 0.613956 0.898556 0.019885
O9    O     O_2   0.878948 0.570565 0.932819 -0.199345
O10   O     O_2   0.744849 0.643946 0.761990 -0.324569
O11   O     O_3   0.719596 0.762600 0.976366 -0.578597
H17   H     H_    0.773461 0.834928 0.939456 0.405501
S2    S     S_3+6 0.713449 0.310018 0.889493 0.011842
O12   O     O_2   0.829955 0.288523 0.963516 -0.227906
O13   O     O_2   0.631588 0.185695 0.911737 -0.367973
O14   O     O_3   0.749742 0.317571 0.738905 -0.522533
H18   H     H_    0.801434 0.233926 0.724391 0.378962
S3    S     S_3+6 0.124464 0.225295 0.394121 0.044078
O15   O     O_2   0.190825 0.146264 0.495198 -0.210672
O16   O     O_2   0.027083 0.131164 0.338636 -0.265182
O17   O     O_3   0.223199 0.270787 0.282668 -0.579135
H19   H     H_    0.223880 0.190103 0.224694 0.360872
S4    S     S_3+6 0.128936 0.777882 0.600147 0.066632
O18   O     O_2   0.186360 0.855155 0.494091 -0.238382
O19   O     O_2   0.034741 0.871244 0.658369 -0.238794
O20   O     O_3   0.236728 0.739406 0.707723 -0.544982
H20   H     H_    0.284310 0.827410 0.719010 0.367661

loop_
_geom_bond_atom_site_label_1
_geom_bond_atom_site_label_2
_ccdc_geom_bond_type
C2    C22   S    
S3    O17   S    
S4    O19   D    
C11   C12   A    
C6    H14   S    
C16   C21   S    
Cu1   O3    S    
C18   C22   S    
C5    H13   S    
C7    C14   S    
C1    C8    S    
Cu2   N2    S    
C9    C10   A    
C1    O2    A    
Cu1   N1    S    
S2    O14   S    
C4    C8    A    
Cu1   Cu2   S    
S1    O11   S    
Cu2   O4    S    
O17   H19   S    
C3    S3    S    
S4    O18   D    
C13   C21   S    
O14   H18   S    
C2    S2    S    
S2    O12   D    
C10   N1    A    
C13   O3    A    
C17   H6    S    
C9    N2    A    
C14   O5    A    
C12   H4    S    
C17   H2    S    
C4    C6    A    
C17   C19   S    
S2    O13   D    
C11   H3    S    
C11   N1    A    
C6    C7    A    
C5    C7    A    
O20   H20   S    
C15   O7    A    
Cu2   O8    S    
S3    O15   D    
Cu2   O2    S    
C18   H9    S    
Cu1   O7    S    
S4    O20   S    
Cu1   O5    S    
C2    S1    S    
C19   H8    S    
C2    C20   S    
S1    O9    D    
C20   H12   S    
C9    H15   S    
C19   C22   S    
Cu1   O1    S    
C20   C21   S    
C4    S4    S    
C16   C18   S    
C3    C8    A    
C15   O8    A    
C16   H1    S    
S3    O16   D    
C14   O6    A    
C13   O4    A    
C10   H16   S    
C12   N2    A    
C18   H7    S    
S1    O10   D    
C16   H5    S    
O11   H17   S    
C20   H11   S    
C1    O1    A    
C15   C22   S    
C17   C21   S    
C3    C5    A    
C19   H10   S    
Cu2   O6    S    
