data_mof_unit_47896.cif
_audit_creation_date              2013-03-05T15:40:16-0500
_audit_creation_method            fapswitch 2.2
_symmetry_space_group_name_H-M    P1
_symmetry_Int_Tables_number       1
_space_group_crystal_system       triclinic
_cell_length_a                    29.372755
_cell_length_b                    17.457327
_cell_length_c                    18.980315
_cell_angle_alpha                 89.936888
_cell_angle_beta                  139.835244
_cell_angle_gamma                 90.079999
_cell_volume                      6277.35773218

loop_
_atom_site_label
_atom_site_type_symbol
_atom_site_description
_atom_site_fract_x
_atom_site_fract_y
_atom_site_fract_z
_atom_type_partial_charge
C1    C     C_R   0.189402 0.398216 0.792736 0.485883
C2    C     C_R   0.822705 0.413657 0.187645 0.502985
C3    C     C_R   0.677281 0.913674 0.812357 0.502382
C4    C     C_R   0.310586 0.898209 0.207168 0.485745
N1    N     N_R   0.126390 0.429310 0.705280 -0.099532
N2    N     N_R   0.873610 0.429310 0.294720 -0.103234
N3    N     N_R   0.626390 0.929310 0.705280 -0.103752
N4    N     N_R   0.373610 0.929310 0.294720 -0.099204
C5    C     C_R   0.857971 0.579949 0.478654 -0.109517
C6    C     C_R   0.141378 0.580033 0.520080 -0.100469
C7    C     C_R   0.358988 0.079557 0.480496 -0.102272
C8    C     C_R   0.642604 0.080410 0.522380 -0.114823
H1    H     H_    0.815760 0.543389 0.446566 0.115893
H2    H     H_    0.183686 0.543856 0.552093 0.104352
H3    H     H_    0.316662 0.043269 0.448408 0.107540
H4    H     H_    0.684497 0.043510 0.554242 0.106258
N5    N     N_R   0.889410 0.573560 0.453390 -0.053187
N6    N     N_R   0.110590 0.573560 0.546610 -0.045912
N7    N     N_R   0.389410 0.073560 0.453390 -0.045995
N8    N     N_R   0.610590 0.073560 0.546610 -0.052465
C9    C     C_R   0.915553 0.307418 0.506031 -0.033927
C10   C     C_R   0.084259 0.308018 0.492276 -0.087337
C11   C     C_R   0.415689 0.808161 0.508332 -0.086880
C12   C     C_R   0.584149 0.807486 0.493573 -0.034935
H5    H     H_    0.939355 0.252167 0.526248 0.183449
H6    H     H_    0.060207 0.252641 0.469974 0.194456
H7    H     H_    0.439593 0.752730 0.530743 0.193927
H8    H     H_    0.560228 0.752222 0.473178 0.183285
N9    N     N_R   0.940610 0.372370 0.507810 -0.055120
N10   N     N_R   0.059390 0.372370 0.492190 -0.064760
N11   N     N_R   0.440610 0.872370 0.507810 -0.064533
N12   N     N_R   0.559390 0.872370 0.492190 -0.054749
C13   C     C_R   0.100738 0.685756 0.722961 -0.150298
C14   C     C_R   0.894462 0.696839 0.295769 -0.139442
C15   C     C_R   0.605619 0.196827 0.704271 -0.138658
C16   C     C_R   0.399552 0.185639 0.277035 -0.148670
H9    H     H_    0.077456 0.741295 0.704318 0.120298
H10   H     H_    0.922227 0.750908 0.328753 0.118511
H11   H     H_    0.577926 0.250889 0.671336 0.118029
H12   H     H_    0.423032 0.241102 0.295704 0.120035
N13   N     N_R   0.075190 0.630500 0.650860 -0.044002
N14   N     N_R   0.924810 0.630500 0.349140 -0.051920
N15   N     N_R   0.575190 0.130500 0.650860 -0.051544
N16   N     N_R   0.424810 0.130500 0.349140 -0.043879
C17   C     C_R   0.833270 0.396831 0.418624 -0.133056
C18   C     C_R   0.166493 0.397586 0.580241 -0.115536
C19   C     C_R   0.333549 0.897693 0.420082 -0.113551
C20   C     C_R   0.666606 0.896890 0.581151 -0.120372
H13   H     H_    0.782665 0.425017 0.361250 0.115350
H14   H     H_    0.217081 0.425912 0.637821 0.120491
H15   H     H_    0.282827 0.925705 0.361432 0.121621
H16   H     H_    0.717250 0.925070 0.638371 0.106923
N17   N     N_R   0.889410 0.427540 0.453390 -0.053596
N18   N     N_R   0.110590 0.427540 0.546610 -0.054729
N19   N     N_R   0.389410 0.927540 0.453390 -0.055092
N20   N     N_R   0.610590 0.927540 0.546610 -0.053270
C21   C     C_R   0.180934 0.592242 0.810872 0.021056
C22   C     C_R   0.811248 0.609155 0.209544 0.039878
C23   C     C_R   0.688770 0.109217 0.790464 0.037861
C24   C     C_R   0.319199 0.092138 0.189070 0.019045
H17   H     H_    0.229319 0.560042 0.872467 0.177862
H18   H     H_    0.762131 0.583163 0.167161 0.210407
H19   H     H_    0.737878 0.083335 0.832833 0.208488
H20   H     H_    0.270777 0.059927 0.127429 0.177708
N21   N     N_R   0.126390 0.575330 0.705280 -0.049802
N22   N     N_R   0.873610 0.575330 0.294720 -0.060965
N23   N     N_R   0.626390 0.075330 0.705280 -0.060468
N24   N     N_R   0.373610 0.075330 0.294720 -0.049489
C25   C     C_R   0.939224 0.672210 0.564632 -0.106137
C26   C     C_R   0.057942 0.670236 0.430686 -0.109449
C27   C     C_R   0.442465 0.169855 0.569879 -0.109559
C28   C     C_R   0.561541 0.172750 0.436437 -0.106285
H21   H     H_    0.970127 0.722885 0.609846 0.101337
H22   H     H_    0.022355 0.717136 0.378429 0.110194
H23   H     H_    0.478044 0.216830 0.622007 0.110078
H24   H     H_    0.530755 0.223462 0.391196 0.101426
N25   N     N_R   0.940610 0.629500 0.507810 -0.047771
N26   N     N_R   0.059390 0.629500 0.492190 -0.049164
N27   N     N_R   0.440610 0.129500 0.507810 -0.049055
N28   N     N_R   0.559390 0.129500 0.492190 -0.047506
C29   C     C_R   0.107668 0.308978 0.710209 0.302602
C30   C     C_R   0.904727 0.322036 0.277308 0.270402
C31   C     C_R   0.595191 0.822010 0.722685 0.270337
C32   C     C_R   0.392246 0.809017 0.289677 0.304522
N29   N     N_R   0.075190 0.373370 0.650860 -0.129161
N30   N     N_R   0.924810 0.373370 0.349140 -0.120314
N31   N     N_R   0.575190 0.873370 0.650860 -0.120282
N32   N     N_R   0.424810 0.873370 0.349140 -0.128837
C33   C     C_R   0.180236 0.321522 0.797852 -0.128895
C34   C     C_R   0.842113 0.348025 0.173670 -0.206594
C35   C     C_R   0.657819 0.847996 0.826332 -0.204758
C36   C     C_R   0.319697 0.821584 0.201950 -0.126738
C37   C     C_R   0.889841 0.640389 0.551809 0.100282
C38   C     C_R   0.108337 0.639535 0.444890 0.090994
C39   C     C_R   0.392265 0.138872 0.555991 0.090036
C40   C     C_R   0.611377 0.141268 0.450027 0.100613
C41   C     C_R   0.847755 0.320681 0.449763 0.051487
C42   C     C_R   0.151932 0.321771 0.547896 0.053441
C43   C     C_R   0.348084 0.822054 0.453209 0.054199
C44   C     C_R   0.651818 0.820827 0.549522 0.053885
C45   C     C_R   0.165047 0.660315 0.824242 -0.033820
C46   C     C_R   0.822359 0.686197 0.208566 -0.059722
C47   C     C_R   0.677707 0.186219 0.791484 -0.057578
C48   C     C_R   0.335275 0.160155 0.175704 -0.032284
Ni1   Ni    Ni4+2 0.118300 0.501760 0.624810 0.260515
Ni2   Ni    Ni4+2 0.881700 0.501760 0.375190 0.243373
Ni3   Ni    Ni4+2 0.618300 0.001760 0.624810 0.240279
Ni4   Ni    Ni4+2 0.381700 0.001760 0.375190 0.260111
Ni5   Ni    Ni4+2 0.000000 0.373470 0.500000 0.288434
Ni6   Ni    Ni4+2 0.500000 0.873470 0.500000 0.289827
Ni7   Ni    Ni4+2 0.000000 0.628290 0.500000 0.223442
Ni8   Ni    Ni4+2 0.500000 0.128290 0.500000 0.223461
C49   C     C_2   0.834698 0.285756 0.051397 -0.103574
C50   C     C_2   0.227059 0.194853 0.884424 -0.180608
C51   C     C_2   0.272697 0.694979 0.115199 -0.180306
C52   C     C_2   0.665304 0.785631 0.948757 -0.100603
C53   C     C_2   0.802274 0.310117 0.071630 -0.074153
C54   C     C_2   0.237682 0.268118 0.880632 -0.097510
C55   C     C_2   0.262199 0.768283 0.118834 -0.105592
C56   C     C_2   0.697666 0.810015 0.928356 -0.077875
H25   H     H_    0.890845 0.295395 0.110052 0.146828
H26   H     H_    0.181376 0.163103 0.813160 0.206022
H27   H     H_    0.318131 0.663156 0.186656 0.206031
H28   H     H_    0.609184 0.795257 0.890213 0.148573
H29   H     H_    0.746478 0.299457 0.014670 0.153563
H30   H     H_    0.288573 0.293095 0.953791 0.156126
H31   H     H_    0.211488 0.793380 0.045473 0.155636
H32   H     H_    0.753430 0.799364 0.985201 0.152491
C57   C     C_2   0.226603 0.658701 0.008264 0.421658
C58   C     C_2   0.702506 0.731619 0.039063 0.443528
C59   C     C_2   0.797527 0.231688 0.961200 0.441539
C60   C     C_2   0.273342 0.158572 0.991436 0.423111
C61   C     C_2   0.209192 0.697578 0.928304 0.399310
C62   C     C_2   0.769382 0.747884 0.137024 0.375246
C63   C     C_2   0.730729 0.247929 0.863106 0.370732
C64   C     C_2   0.291173 0.197497 0.071679 0.397369
C65   C     C_R   0.201587 0.265318 0.577615 0.078603
C66   C     C_R   0.798278 0.263657 0.419450 0.074587
C67   C     C_R   0.700581 0.764095 0.577846 0.073760
C68   C     C_R   0.297721 0.765591 0.422153 0.083102
C69   C     C_R   0.870774 0.668614 0.599410 0.014621
C70   C     C_R   0.126468 0.667098 0.395266 0.000681
C71   C     C_R   0.373517 0.166986 0.604388 0.006415
C72   C     C_R   0.630155 0.168844 0.401564 0.008312
C73   C     C_R   0.870677 0.773727 0.682286 0.540773
C74   C     C_R   0.122765 0.769438 0.304547 0.546846
C75   C     C_R   0.373517 0.273009 0.686590 0.542071
C76   C     C_R   0.627242 0.271684 0.312476 0.537374
C77   C     C_R   0.901652 0.735251 0.662930 -0.198938
C78   C     C_R   0.094618 0.733072 0.330119 -0.178056
C79   C     C_R   0.404875 0.233402 0.668444 -0.192506
C80   C     C_R   0.597380 0.233638 0.334199 -0.197182
C81   C     C_R   0.815658 0.633447 0.570863 -0.176135
C82   C     C_R   0.180660 0.631434 0.421337 -0.165259
C83   C     C_R   0.317763 0.132707 0.575133 -0.163636
C84   C     C_R   0.685763 0.134217 0.430963 -0.162099
C85   C     C_R   0.780556 0.672532 0.582674 -0.046283
C86   C     C_R   0.212530 0.668720 0.402172 -0.023834
C87   C     C_R   0.284862 0.170801 0.591750 -0.032271
C88   C     C_R   0.716929 0.170508 0.410361 -0.033226
C89   C     C_R   0.310517 0.243936 0.642402 -0.032385
C90   C     C_R   0.690059 0.242477 0.356363 -0.035148
C91   C     C_R   0.807628 0.744251 0.637535 -0.028643
C92   C     C_R   0.186822 0.741701 0.351558 -0.055836
C93   C     C_R   0.270100 0.288078 0.640614 -0.201837
C94   C     C_R   0.729453 0.285678 0.355278 -0.196535
C95   C     C_R   0.769004 0.786487 0.640620 -0.198538
C96   C     C_R   0.229979 0.789211 0.362068 -0.207525
C97   C     C_R   0.179402 0.190561 0.536340 -0.245179
C98   C     C_R   0.821326 0.189543 0.463029 -0.236813
C99   C     C_R   0.676536 0.690873 0.531320 -0.221269
C100  C     C_R   0.318144 0.689456 0.457929 -0.246884
C101  C     C_R   0.221926 0.141529 0.547152 0.347849
C102  C     C_R   0.779611 0.140994 0.454566 0.354594
C103  C     C_R   0.716460 0.644040 0.534721 0.365352
C104  C     C_R   0.275263 0.639760 0.446040 0.350743
H33   H     H_    0.289551 0.342740 0.681106 0.137025
H34   H     H_    0.709320 0.339479 0.312487 0.140725
H35   H     H_    0.789779 0.839628 0.685056 0.137384
H36   H     H_    0.213662 0.847417 0.333422 0.144906
H37   H     H_    0.128472 0.170193 0.493642 0.188906
H38   H     H_    0.872496 0.169608 0.506416 0.188823
H39   H     H_    0.624601 0.671409 0.485351 0.181711
H40   H     H_    0.368378 0.668730 0.498365 0.189807
H41   H     H_    0.947042 0.761144 0.691576 0.153886
H42   H     H_    0.049504 0.758868 0.302263 0.155950
H43   H     H_    0.450300 0.258928 0.696864 0.157863
H44   H     H_    0.551690 0.258940 0.305059 0.154816
H45   H     H_    0.796684 0.578197 0.531833 0.168435
H46   H     H_    0.203380 0.578931 0.467573 0.165673
H47   H     H_    0.295187 0.080085 0.529269 0.167983
H48   H     H_    0.709607 0.082905 0.479711 0.164742
O1    O     O_3   0.250997 0.433440 0.844380 -0.768122
H49   H     H_    0.290002 0.395967 0.891685 0.325521
O2    O     O_3   0.760828 0.454244 0.108853 -0.745814
H50   H     H_    0.732611 0.431247 0.037010 0.345145
O3    O     O_3   0.739197 0.954301 0.891134 -0.746821
H51   H     H_    0.767391 0.931302 0.962986 0.345373
O4    O     O_3   0.248989 0.933293 0.155480 -0.771061
H52   H     H_    0.210012 0.895710 0.108338 0.322125
O5    O     O_3   0.827496 0.161309 0.982516 -0.765845
H53   H     H_    0.875802 0.160449 0.059731 0.369427
O6    O     O_3   0.295546 0.083774 0.008338 -0.758457
H54   H     H_    0.277073 0.065317 0.940648 0.339705
O7    O     O_3   0.204063 0.583980 0.991118 -0.760869
H55   H     H_    0.222226 0.565558 0.058604 0.338386
O8    O     O_3   0.672445 0.661275 0.017961 -0.763403
H56   H     H_    0.624104 0.660377 0.940787 0.369517
O9    O     O_3   0.235092 0.770437 0.945767 -0.750520
H57   H     H_    0.217632 0.787628 0.878436 0.334365
O10   O     O_3   0.790301 0.823982 0.160503 -0.754837
H58   H     H_    0.833983 0.829549 0.240168 0.334394
O11   O     O_3   0.709897 0.324017 0.839508 -0.756552
H59   H     H_    0.666303 0.329554 0.759806 0.333836
O12   O     O_3   0.265648 0.270468 0.054497 -0.752452
H60   H     H_    0.283317 0.287673 0.121968 0.333780
O13   O     O_3   0.403210 0.342072 0.740676 -0.711056
H61   H     H_    0.365320 0.381060 0.695997 0.331598
O14   O     O_3   0.596242 0.339418 0.254981 -0.710358
H62   H     H_    0.633560 0.379035 0.296792 0.337137
O15   O     O_3   0.900688 0.842256 0.737903 -0.720498
H63   H     H_    0.862765 0.881142 0.695209 0.332942
O16   O     O_3   0.089281 0.834579 0.240927 -0.710830
H64   H     H_    0.099323 0.840281 0.201861 0.318574
N33   N     N_R   0.687295 0.571706 0.479068 0.230620
O17   O     O_R   0.669701 0.560642 0.392780 -0.395936
O18   O     O_R   0.663617 0.524730 0.498806 -0.358163
N34   N     N_R   0.297764 0.561926 0.483647 0.231040
O19   O     O_R   0.252287 0.506159 0.426113 -0.398524
O20   O     O_R   0.364681 0.545535 0.566229 -0.354468
N35   N     N_R   0.198739 0.064162 0.507433 0.234476
O21   O     O_R   0.243202 0.007682 0.565527 -0.383029
O22   O     O_R   0.131745 0.048846 0.422427 -0.342698
N36   N     N_R   0.803555 0.064230 0.496857 0.231451
O23   O     O_R   0.759311 0.007236 0.441791 -0.390251
O24   O     O_R   0.870744 0.049645 0.581124 -0.354999
N37   N     N_R   0.073509 0.236345 0.672271 0.216241
O25   O     O_R   0.067079 0.195949 0.607556 -0.383886
O26   O     O_R   0.059357 0.205321 0.716263 -0.388237
N38   N     N_R   0.927018 0.243708 0.305690 0.237961
O27   O     O_R   0.940468 0.211735 0.381996 -0.358425
O28   O     O_R   0.929858 0.202427 0.252198 -0.403542
N39   N     N_R   0.572756 0.743689 0.694296 0.237762
O29   O     O_R   0.559204 0.711722 0.617942 -0.357573
O30   O     O_R   0.569788 0.702432 0.747737 -0.403363
N40   N     N_R   0.426229 0.736352 0.327637 0.216076
O31   O     O_R   0.432727 0.696135 0.392605 -0.384680
O32   O     O_R   0.440130 0.705126 0.283452 -0.388165

loop_
_geom_bond_atom_site_label_1
_geom_bond_atom_site_label_2
_geom_bond_distance
_ccdc_geom_bond_type
C68   C96   1.401022 A    
C11   C43   1.386390 A    
O6    H54   0.991894 S    
C39   C71   1.470657 S    
C10   C42   1.383923 A    
C3    C35   1.393204 A    
C5    C37   1.389746 A    
C26   N26   1.338895 A    
C61   O9    1.385357 S    
O5    H53   0.991524 S    
C79   H43   1.081044 S    
C25   N25   1.337790 A    
O16   H64   0.990335 S    
C14   N14   1.334967 A    
C21   C45   1.370256 A    
C4    N4    1.334401 A    
C69   C81   1.395937 A    
C65   C93   1.399454 A    
C69   C77   1.399394 A    
N31   Ni6   1.846951 S    
C2    N2    1.340279 A    
O11   H59   0.988371 S    
C18   C42   1.382183 A    
C77   H41   1.080938 S    
N9    Ni5   1.860263 S    
N10   N18   1.371191 A    
C7    N7    1.333116 A    
C14   C46   1.378896 A    
N12   Ni6   1.860315 S    
N27   Ni8   1.860340 S    
C1    N1    1.334489 A    
C99   H39   1.081094 S    
C25   H21   1.073253 S    
C26   C38   1.393917 A    
C36   C55   1.460676 S    
C82   C86   1.396592 A    
C20   H16   1.079019 S    
C3    N3    1.340198 A    
N1    N29   1.380656 A    
C98   C102  1.393549 A    
C28   C40   1.391476 A    
C73   O15   1.378487 S    
C6    C38   1.392929 A    
C7    C39   1.393067 A    
N39   O29   1.299845 A    
C31   N39   1.431936 S    
C28   N28   1.339454 A    
C19   C43   1.382260 A    
C91   C95   1.392142 A    
C32   N40   1.423737 S    
C2    O2    1.374345 S    
N1    Ni1   1.852244 S    
C2    C34   1.393446 A    
C47   C63   1.482152 S    
N38   O27   1.299824 A    
C16   H12   1.078931 S    
C5    H1    1.077054 S    
C58   O8    1.380448 S    
C101  N35   1.439194 S    
C23   N23   1.338874 A    
C90   C94   1.393587 A    
C7    H3    1.076684 S    
N17   Ni2   1.848229 S    
C22   N22   1.338830 A    
C4    O4    1.378395 S    
N3    N31   1.380656 A    
C8    H4    1.076503 S    
N39   O30   1.299448 A    
N25   Ni7   1.860340 S    
C26   H22   1.078315 S    
C32   C36   1.392499 A    
C87   C89   1.419480 A    
C67   C99   1.399756 A    
N26   Ni7   1.860280 S    
C94   H34   1.075780 S    
C11   H7    1.074628 S    
C87   C101  1.414816 A    
O3    H51   0.990191 S    
C15   N15   1.334961 A    
C85   C91   1.420809 A    
C65   C97   1.400426 A    
C18   N18   1.332997 A    
C80   H44   1.081079 S    
N8    Ni3   1.818895 S    
N32   Ni6   1.846952 S    
N7    Ni4   1.820711 S    
C71   C79   1.399801 A    
C82   H46   1.077217 S    
C17   N17   1.333115 A    
O4    H52   0.987586 S    
C68   C100  1.401858 A    
C74   C78   1.390421 A    
N37   O25   1.299481 A    
C98   H38   1.080467 S    
N38   O28   1.299362 A    
N28   Ni8   1.860280 S    
C58   C62   1.346759 D    
N36   O24   1.301505 A    
N22   Ni2   1.865636 S    
C104  N34   1.439422 S    
C102  N36   1.439537 S    
N21   Ni1   1.867496 S    
N34   O19   1.301488 A    
C54   H30   1.086196 S    
O9    H57   0.992052 S    
N29   Ni5   1.846951 S    
C20   C44   1.383419 A    
N40   O32   1.300845 A    
C23   H19   1.076865 S    
C51   H27   1.078483 S    
N8    N28   1.382015 A    
N10   Ni5   1.860315 S    
C83   C87   1.394183 A    
O8    H56   0.991537 S    
C38   C70   1.472160 S    
C34   C53   1.447439 S    
C32   N32   1.341871 A    
C92   C96   1.394822 A    
N30   Ni5   1.846952 S    
C9    H5    1.075820 S    
C75   C89   1.418286 A    
O14   H62   0.989527 S    
C35   C56   1.447293 S    
C14   H10   1.080194 S    
C81   H45   1.076447 S    
O2    H50   0.990184 S    
C73   C91   1.417764 A    
N4    Ni4   1.854086 S    
O13   H61   0.989633 S    
C96   H36   1.076903 S    
C99   C103  1.390931 A    
C13   H9    1.078964 S    
C27   N27   1.338201 A    
C52   C56   1.340044 D    
C30   N38   1.431957 S    
N4    N32   1.382018 A    
C11   N11   1.342065 A    
C72   C84   1.397738 A    
C15   C47   1.378876 A    
C15   H11   1.080201 S    
N14   Ni7   1.847353 S    
C12   N12   1.336279 A    
N20   Ni3   1.850077 S    
C49   C59   1.468915 S    
O15   H63   0.989724 S    
C75   O13   1.378220 S    
C44   C67   1.465367 S    
C9    C41   1.382059 A    
C40   C72   1.468254 S    
C57   O7    1.383834 S    
N36   O23   1.301517 A    
C100  H40   1.080352 S    
C59   C63   1.346706 D    
C71   C83   1.398743 A    
O10   H58   0.988342 S    
C17   H13   1.079046 S    
C93   H33   1.075481 S    
C60   C64   1.355662 D    
C45   C61   1.446299 S    
C8    N8    1.330626 A    
N5    N25   1.380655 A    
N33   O17   1.301356 A    
N2    Ni2   1.854086 S    
C52   C58   1.468924 S    
C28   H24   1.073594 S    
N35   O22   1.301492 A    
N2    N30   1.382018 A    
C70   C82   1.401599 A    
N7    N27   1.380655 A    
C97   H37   1.080407 S    
C50   C54   1.330945 D    
C52   H28   1.086757 S    
C83   H47   1.076677 S    
C22   H18   1.076835 S    
C85   C103  1.414090 A    
C64   O12   1.385391 S    
C49   C53   1.340090 D    
N16   Ni8   1.847353 S    
C86   C104  1.414550 A    
N6    N26   1.382015 A    
C27   H23   1.078240 S    
C95   H35   1.076044 S    
C51   C55   1.330888 D    
N37   O26   1.300839 A    
C6    H2    1.076871 S    
N34   O20   1.301510 A    
C12   H8    1.075883 S    
C57   C61   1.355708 D    
C43   C68   1.473715 S    
N16   N24   1.371191 A    
N15   Ni8   1.847354 S    
C84   H48   1.076341 S    
C41   C66   1.467434 S    
C37   C69   1.465552 S    
C67   C95   1.396635 A    
C19   N19   1.332775 A    
C51   C57   1.467697 S    
C9    N9    1.337283 A    
C5    N5    1.331304 A    
C20   N20   1.332789 A    
O7    H55   0.991912 S    
N40   O31   1.299477 A    
C60   O6    1.383830 S    
C1    C33   1.383164 A    
C62   O10   1.386180 S    
C48   C64   1.446307 S    
N18   Ni1   1.850077 S    
C12   C44   1.380514 A    
C50   C60   1.467686 S    
C76   C80   1.389612 A    
C21   N21   1.327817 A    
C103  N33   1.435662 S    
C31   N31   1.335000 A    
C78   H42   1.081021 S    
C3    O3    1.374340 S    
C19   H15   1.078892 S    
C56   H32   1.086699 S    
C21   H17   1.078846 S    
C42   C65   1.470398 S    
C88   C102  1.414189 A    
C86   C92   1.416893 A    
C49   H25   1.086761 S    
C31   C35   1.388684 A    
C18   H14   1.078876 S    
C25   C37   1.389356 A    
C30   C34   1.388792 A    
C74   C92   1.416492 A    
N19   Ni4   1.848229 S    
C24   H20   1.078828 S    
C13   N13   1.340796 A    
C73   C77   1.388171 A    
C70   C78   1.400898 A    
C13   C45   1.382521 A    
N6    Ni1   1.818895 S    
C23   C47   1.387035 A    
N13   N21   1.372540 A    
C72   C80   1.399868 A    
C10   N10   1.340196 A    
N5    Ni2   1.820711 S    
C30   N30   1.334884 A    
C74   O16   1.379714 S    
N23   Ni3   1.867496 S    
C16   C48   1.382464 A    
C63   O11   1.386170 S    
N9    N17   1.372542 A    
C6    N6    1.334066 A    
C22   C46   1.386976 A    
C76   C90   1.418075 A    
N33   O18   1.300977 A    
N11   Ni6   1.860263 S    
C29   N37   1.423798 S    
N3    Ni3   1.852244 S    
C29   C33   1.392399 A    
C81   C85   1.390847 A    
C84   C88   1.391855 A    
C59   O5    1.380465 S    
C76   O14   1.378277 S    
C29   N29   1.341786 A    
C16   N16   1.340603 A    
C66   C94   1.398528 A    
C10   H6    1.074599 S    
C46   C62   1.482207 S    
C50   H26   1.078373 S    
O12   H60   0.992040 S    
C27   C39   1.392944 A    
C33   C54   1.460872 S    
C24   N24   1.327875 A    
N15   N23   1.372540 A    
O1    H49   0.987568 S    
N13   Ni7   1.847354 S    
C75   C79   1.390044 A    
N35   O21   1.301484 A    
N14   N22   1.371190 A    
C97   C101  1.394900 A    
C1    O1    1.378380 S    
C8    C40   1.389333 A    
C17   C41   1.383140 A    
N24   Ni4   1.865636 S    
N11   N19   1.372542 A    
C24   C48   1.370426 A    
C53   H29   1.086708 S    
N12   N20   1.371191 A    
C89   C93   1.394728 A    
C100  C104  1.397491 A    
C88   C90   1.419660 A    
C66   C98   1.400253 A    
C4    C36   1.382969 A    
C55   H31   1.086281 S    
