data_mof_unit_8531.cif
_audit_creation_date              2012-12-10T18:47:04-0500
_audit_creation_method            fapswitch 2.2
_symmetry_space_group_name_H-M    P1
_symmetry_Int_Tables_number       1
_space_group_crystal_system       triclinic
_cell_length_a                    10.707073
_cell_length_b                    9.8273
_cell_length_c                    14.979889
_cell_angle_alpha                 89.866295
_cell_angle_beta                  90.329851
_cell_angle_gamma                 89.962682
_cell_volume                      1576.17740551

loop_
_atom_site_label
_atom_site_type_symbol
_atom_type_description
_atom_site_fract_x
_atom_site_fract_y
_atom_site_fract_z
_atom_type_partial_charge
C1    C     C_R   0.259855 0.500023 0.500002 0.855114
C2    C     C_R   0.740145 0.499977 0.499979 0.855115
C3    C     C_R   0.342592 0.325455 0.052325 -0.215932
C4    C     C_R   0.657364 0.674605 0.947674 -0.215922
C5    C     C_R   0.064210 0.380381 0.521911 -0.208691
C6    C     C_R   0.935790 0.619631 0.477936 -0.208588
C7    C     C_R   0.936274 0.380315 0.521818 -0.191008
C8    C     C_R   0.063725 0.619694 0.478041 -0.190896
C9    C     C_R   0.872550 0.499952 0.499876 -0.010605
C10   C     C_R   0.127450 0.500051 0.500042 -0.010613
C11   C     C_R   0.578808 0.071742 0.554932 -0.076147
C12   C     C_R   0.421192 0.928258 0.445068 -0.076133
C13   C     C_R   0.421246 0.072241 0.445024 -0.081849
C14   C     C_R   0.578754 0.927759 0.554975 -0.081878
C15   C     C_R   0.504675 0.500357 0.327001 0.889853
C16   C     C_R   0.495326 0.499644 0.672999 0.889884
C17   C     C_R   0.569195 0.586554 0.812770 -0.296438
C18   C     C_R   0.430788 0.413468 0.187230 -0.296444
C19   C     C_R   0.488313 0.498919 0.768479 -0.100066
C20   C     C_R   0.511683 0.501087 0.231520 -0.100061
C21   C     C_R   0.405792 0.411552 0.814732 0.026315
C22   C     C_R   0.594193 0.588469 0.185266 0.026313
C23   C     C_R   0.411415 0.410884 0.908875 0.096509
C24   C     C_R   0.588564 0.589144 0.091123 0.096503
C25   C     C_R   0.496355 0.499481 0.953284 0.037539
C26   C     C_R   0.503628 0.500539 0.046715 0.037538
C27   C     C_R   0.574096 0.587481 0.904509 0.124241
C28   C     C_R   0.425880 0.412550 0.095490 0.124244
C29   C     C_R   0.335082 0.324518 0.960133 -0.231163
C30   C     C_R   0.664877 0.675539 0.039866 -0.231152
H1    H     H_    0.631070 0.652480 0.775080 0.153496
H2    H     H_    0.368906 0.347553 0.224920 0.153492
H3    H     H_    0.269116 0.254662 0.930656 0.151467
H4    H     H_    0.730826 0.745421 0.069342 0.151461
H5    H     H_    0.282683 0.257812 0.090062 0.143173
H6    H     H_    0.717254 0.742275 0.909938 0.143165
H7    H     H_    0.113209 0.287617 0.539581 0.152404
H8    H     H_    0.886792 0.712403 0.460209 0.152342
H9    H     H_    0.887618 0.287513 0.539519 0.151381
H10   H     H_    0.112379 0.712500 0.460308 0.151310
H11   H     H_    0.641707 0.126213 0.598861 0.119601
H12   H     H_    0.358293 0.873787 0.401139 0.119583
H13   H     H_    0.358317 0.127105 0.401112 0.125357
H14   H     H_    0.641683 0.872895 0.598888 0.125371
N1    N     N_R   0.500000 0.857200 0.500000 -0.077984
N2    N     N_R   0.500000 0.142800 0.500000 -0.077978
O1    O     O_R   0.316770 0.614620 0.499990 -0.624775
O2    O     O_R   0.683230 0.385380 0.500010 -0.624798
O3    O     O_R   0.683230 0.614620 0.500010 -0.636015
O4    O     O_R   0.316770 0.385380 0.499990 -0.636049
O5    O     O_R   0.499980 0.614680 0.367850 -0.622751
O6    O     O_R   0.500020 0.385320 0.632150 -0.622734
O7    O     O_R   0.500020 0.614680 0.632150 -0.618454
O8    O     O_R   0.499980 0.385320 0.367850 -0.618459
Zn1   Zn    Zn3+2 0.500000 0.653120 0.500000 0.934079
Zn2   Zn    Zn3+2 0.500000 0.346880 0.500000 0.934072
C31   C     C_3   0.310636 0.324915 0.763864 -0.402938
C32   C     C_3   0.356691 0.177561 0.753194 -0.302584
C33   C     C_3   0.272518 0.097318 0.689887 -0.872676
H15   H     H_    0.175198 0.095682 0.715141 0.250470
H16   H     H_    0.273641 0.143715 0.622244 0.270622
H17   H     H_    0.306988 0.991020 0.684769 0.253804
H18   H     H_    0.453224 0.176378 0.726533 0.239731
H19   H     H_    0.358938 0.125286 0.818926 0.206755
H20   H     H_    0.218503 0.327040 0.797398 0.180589
H21   H     H_    0.289874 0.369466 0.697272 0.207568
C34   C     C_3   0.689331 0.675138 0.236133 -0.402912
C35   C     C_3   0.643227 0.822483 0.246806 -0.302500
C36   C     C_3   0.727389 0.902764 0.310105 -0.872713
H22   H     H_    0.726257 0.856409 0.377761 0.270608
H23   H     H_    0.824711 0.904377 0.284863 0.250461
H24   H     H_    0.692933 0.009065 0.315191 0.253811
H25   H     H_    0.640953 0.874758 0.181072 0.206735
H26   H     H_    0.546694 0.823629 0.273474 0.239711
H27   H     H_    0.710113 0.630589 0.302724 0.207556
H28   H     H_    0.781466 0.673052 0.202594 0.180569

loop_
_geom_bond_atom_site_label_1
_geom_bond_atom_site_label_2
_ccdc_geom_bond_type
C4    H6    S    
C5    H7    S    
C31   H21   S    
C6    C9    A    
C23   C29   A    
O1    Zn1   S    
C3    C28   A    
C19   C21   A    
C24   C26   A    
C13   N2    A    
C11   C14   A    
C35   H26   S    
C29   H3    S    
C36   H23   S    
C3    C29   A    
C16   O7    A    
C12   H12   S    
C35   C36   S    
C6    H8    S    
C15   O5    A    
C1    O4    A    
C18   C20   A    
C35   H25   S    
C33   H15   S    
C14   N1    A    
O7    Zn1   S    
C32   H19   S    
C15   C20   S    
O8    Zn2   S    
C33   H16   S    
C30   H4    S    
C34   C35   S    
C17   C27   A    
C15   O8    A    
C18   C28   A    
C5    C7    A    
C1    O1    A    
C6    C8    A    
C2    O2    A    
C32   C33   S    
O3    Zn1   S    
O4    Zn2   S    
C36   H24   S    
C21   C31   S    
C2    O3    A    
C3    H5    S    
C20   C22   A    
C21   C23   A    
C17   H1    S    
C22   C24   A    
C34   H27   S    
C13   H13   S    
C4    C27   A    
C14   H14   S    
C32   H18   S    
O2    Zn2   S    
C33   H17   S    
C1    C10   S    
C16   O6    A    
C31   H20   S    
C12   N1    A    
C25   C27   A    
C26   C28   A    
C25   C26   A    
C5    C10   A    
C31   C32   S    
C16   C19   S    
C17   C19   A    
C11   H11   S    
O5    Zn1   S    
C23   C25   A    
C36   H22   S    
C24   C30   A    
C22   C34   S    
C7    C9    A    
C18   H2    S    
C12   C13   A    
N1    Zn1   S    
C8    C10   A    
N2    Zn2   S    
C7    H9    S    
C11   N2    A    
C34   H28   S    
C8    H10   S    
C2    C9    S    
C4    C30   A    
O6    Zn2   S    
