data_mof_unit_37339.cif
_audit_creation_date              2012-10-26T19:02:31-0400
_audit_creation_method            fapswitch 2.2
_symmetry_space_group_name_H-M    P1
_symmetry_Int_Tables_number       1
_space_group_crystal_system       triclinic
_cell_length_a                    17.290613
_cell_length_b                    8.784044
_cell_length_c                    7.499917
_cell_angle_alpha                 103.070826
_cell_angle_beta                  90.818294
_cell_angle_gamma                 94.43475
_cell_volume                      1105.67196685

loop_
_atom_site_label
_atom_site_type_symbol
_atom_type_description
_atom_site_fract_x
_atom_site_fract_y
_atom_site_fract_z
_atom_type_partial_charge
C1    C     C_R   0.496645 0.200528 0.454421 0.543015
C2    C     C_R   0.779728 0.628368 0.556250 -0.038096
C3    C     C_R   0.140521 0.383734 0.420747 -0.005538
C4    C     C_R   0.859479 0.616271 0.579245 -0.005537
C5    C     C_R   0.109335 0.527626 0.494886 -0.002468
C6    C     C_R   0.890666 0.472380 0.505107 -0.002468
C7    C     C_R   0.157103 0.656950 0.589501 -0.111115
C8    C     C_R   0.842898 0.343054 0.410496 -0.111116
C9    C     C_R   0.236304 0.646270 0.610937 -0.033473
C10   C     C_R   0.763696 0.353733 0.389063 -0.033473
C11   C     C_2   0.026972 0.548585 0.474583 -0.113487
C12   C     C_R   0.503355 0.799471 0.545579 0.543014
C13   C     C_2   0.973029 0.451421 0.525409 -0.113487
C14   C     C_1   0.253344 0.224488 0.368930 0.228242
C15   C     C_1   0.746655 0.775512 0.631069 0.228243
C16   C     C_1   0.715566 0.214509 0.300542 0.232179
C17   C     C_1   0.284435 0.785492 0.699461 0.232180
C18   C     C_1   0.907821 0.747846 0.688344 0.209234
C19   C     C_1   0.092179 0.252160 0.311645 0.209234
C20   C     C_1   0.446514 0.947050 0.265230 0.269855
C21   C     C_1   0.553482 0.052950 0.734774 0.269857
C22   C     C_1   0.421223 0.351744 0.940604 0.462594
C23   C     C_2   0.487801 0.033633 0.432604 -0.050476
C24   C     C_1   0.578776 0.648257 0.059396 0.462593
C25   C     C_2   0.512198 0.966367 0.567396 -0.050476
C26   C     C_R   0.351814 0.501044 0.524599 0.546546
C27   C     C_R   0.648186 0.498956 0.475401 0.546547
C28   C     C_R   0.268185 0.504006 0.536243 -0.003928
C29   C     C_R   0.731815 0.495996 0.463756 -0.003928
C30   C     C_R   0.220272 0.371634 0.443746 -0.038096
Cu1   Cu    Cu3+1 0.508700 0.517250 0.683000 1.048992
Cu2   Cu    Cu3+1 0.491300 0.482750 0.317000 1.048992
H1    H     H_    0.989158 0.349894 0.573173 0.149777
H2    H     H_    0.010843 0.650112 0.426820 0.149778
H3    H     H_    0.132452 0.767176 0.644755 0.148488
H4    H     H_    0.867549 0.232829 0.355243 0.148487
N1    N     N_2   0.478180 0.456750 0.041980 -0.202320
N2    N     N_1   0.586200 0.121424 0.868009 -0.220061
N3    N     N_1   0.373334 0.263409 0.858001 -0.282362
N4    N     N_1   0.626665 0.736592 0.142000 -0.282361
N5    N     N_2   0.521820 0.543250 0.958020 -0.202321
N6    N     N_1   0.279543 0.107060 0.309312 -0.254721
N7    N     N_1   0.720456 0.892938 0.690691 -0.254721
N8    N     N_1   0.677033 0.102903 0.230174 -0.230835
N9    N     N_1   0.322969 0.897097 0.769833 -0.230835
N10   N     N_1   0.946319 0.852784 0.775427 -0.264318
N11   N     N_1   0.053681 0.147222 0.224560 -0.264317
N12   N     N_1   0.413793 0.878576 0.131998 -0.220059
O1    O     O_R   0.505650 0.286040 0.618880 -0.519158
O2    O     O_R   0.494350 0.713960 0.381120 -0.519158
O3    O     O_R   0.490960 0.256910 0.309800 -0.491876
O4    O     O_R   0.509040 0.743090 0.690200 -0.491877
O5    O     O_R   0.394600 0.516230 0.672450 -0.504901
O6    O     O_R   0.605400 0.483770 0.327550 -0.504900
O7    O     O_R   0.379910 0.487100 0.363380 -0.509791
O8    O     O_R   0.620090 0.512900 0.636620 -0.509791

loop_
_geom_bond_atom_site_label_1
_geom_bond_atom_site_label_2
_ccdc_geom_bond_type
C3    C30   A    
C2    C4    A    
Cu2   O3    S    
C3    C19   S    
C2    C15   S    
Cu1   O8    S    
C27   C29   S    
C11   C13   D    
C16   N8    T    
Cu2   O7    S    
C12   O2    A    
Cu1   Cu2   S    
C11   H2    S    
C20   C23   S    
Cu1   O4    S    
C14   N6    T    
C4    C18   S    
C26   O7    A    
C28   C30   A    
C27   O6    A    
C15   N7    T    
C10   C16   S    
Cu2   N1    S    
Cu1   O5    S    
C6    C13   S    
C13   H1    S    
C24   N5    S    
C1    O3    A    
C10   C29   A    
Cu2   O2    S    
C20   N12   T    
C7    H3    S    
C14   C30   S    
C2    C29   A    
C22   N3    T    
C18   N10   T    
Cu2   O6    S    
C26   C28   S    
C24   N4    T    
Cu1   O1    S    
C1    C23   S    
C23   C25   D    
C5    C11   S    
N1    N5    D    
C19   N11   T    
C12   C25   S    
C26   O5    A    
C7    C9    A    
C4    C6    A    
C8    H4    S    
C9    C17   S    
C5    C7    A    
C21   C25   S    
C27   O8    A    
C6    C8    A    
Cu1   N5    S    
C12   O4    A    
C22   N1    S    
C1    O1    A    
C8    C10   A    
C21   N2    T    
C9    C28   A    
C17   N9    T    
C3    C5    A    
