data_mof_unit_13478.cif
_audit_creation_date              2012-10-26T19:03:31-0400
_audit_creation_method            fapswitch 2.2
_symmetry_space_group_name_H-M    P1
_symmetry_Int_Tables_number       1
_space_group_crystal_system       triclinic
_cell_length_a                    10.821804
_cell_length_b                    13.022637
_cell_length_c                    11.863702
_cell_angle_alpha                 100.808839
_cell_angle_beta                  91.892031
_cell_angle_gamma                 94.879988
_cell_volume                      1634.26728256

loop_
_atom_site_label
_atom_site_type_symbol
_atom_type_description
_atom_site_fract_x
_atom_site_fract_y
_atom_site_fract_z
_atom_type_partial_charge
C1    C     C_R   0.499446 0.299161 0.477127 0.587711
C2    C     C_R   0.442960 0.118124 0.361771 0.242271
C3    C     C_R   0.556484 0.140343 0.546402 -0.065397
C4    C     C_R   0.263633 0.506149 0.503077 0.644520
C5    C     C_R   0.523369 0.034078 0.550115 0.026818
C6    C     C_R   0.467372 0.966316 0.450355 0.016316
C7    C     C_R   0.439602 0.858903 0.453275 -0.022372
C8    C     C_R   0.544814 0.885318 0.643486 -0.018203
C9    C     C_R   0.543560 0.994309 0.651439 0.021234
C10   C     C_R   0.349766 0.435532 0.031167 -0.024043
C11   C     C_R   0.375312 0.424671 0.146095 0.144392
C12   C     C_R   0.075484 0.602034 0.566570 -0.075454
C13   C     C_R   0.550860 0.550250 0.156903 0.140225
C14   C     C_R   0.536345 0.550650 0.034747 -0.016948
C15   C     C_R   0.443549 0.480159 0.970107 -0.003254
C16   C     C_R   0.500802 0.701226 0.523167 0.592725
C17   C     C_R   0.444451 0.459213 0.846974 0.096353
C18   C     C_R   0.609530 0.591931 0.851180 0.392942
C19   C     C_R   0.609276 0.617778 0.972949 -0.046930
C20   C     C_R   0.737375 0.504385 0.498756 0.637382
C21   C     C_R   0.144627 0.689802 0.639039 0.209606
C22   C     C_R   0.084330 0.778185 0.690074 0.220326
C23   C     C_R   0.129742 0.511097 0.509185 0.027933
C24   C     C_R   0.963179 0.788449 0.653731 0.074155
C25   C     C_R   0.894240 0.703378 0.582583 0.214787
C26   C     C_R   0.945904 0.605652 0.549172 -0.098811
C27   C     C_3   0.546931 0.065554 0.768750 -0.390836
C28   C     C_3   0.669363 0.200118 0.616089 -0.376841
C29   C     C_3   0.378572 0.357624 0.780691 -0.333679
C30   C     C_3   0.215452 0.419882 0.984416 -0.421422
C31   C     C_3   0.662785 0.728365 0.026538 -0.429399
C32   C     C_3   0.283600 0.352836 0.194750 -0.278893
C33   C     C_3   0.651852 0.625112 0.224503 -0.330206
C34   C     C_R   0.055620 0.421438 0.452097 0.183469
C35   C     C_3   0.910393 0.892702 0.689949 -0.328562
C36   C     C_3   0.331560 0.794692 0.380253 -0.374906
C37   C     C_3   0.595386 0.844470 0.745403 -0.367777
C38   C     C_3   0.431648 0.940988 0.231664 -0.407523
C39   C     C_R   0.926083 0.423018 0.443250 0.191542
C40   C     C_R   0.872180 0.512777 0.495198 0.011760
C41   C     C_R   0.497148 0.816607 0.540356 0.023409
C42   C     C_R   0.499470 0.184327 0.461126 0.054700
C43   C     C_R   0.441549 0.008435 0.351020 -0.005250
Cu1   Cu    Cu3+1 0.509250 0.507730 0.615930 1.029993
Cu2   Cu    Cu3+1 0.490750 0.492270 0.384070 0.974663
H1    H     H_    0.055014 0.269227 0.414805 0.333758
H2    H     H_    0.314175 0.371045 0.711824 0.173207
H3    H     H_    0.448725 0.305105 0.747223 0.141837
H4    H     H_    0.774125 0.660263 0.841444 0.300513
H5    H     H_    0.179687 0.335755 0.969684 0.126999
H6    H     H_    0.156861 0.465435 0.046852 0.131394
H7    H     H_    0.203288 0.450096 0.903683 0.149650
H8    H     H_    0.678582 0.778752 0.961678 0.137930
H9    H     H_    0.594105 0.768816 0.081530 0.126883
H10   H     H_    0.753637 0.728882 0.072524 0.126965
H11   H     H_    0.266657 0.276386 0.134163 0.108771
H12   H     H_    0.492417 0.026519 0.829184 0.142190
H13   H     H_    0.314995 0.334194 0.275919 0.258642
H14   H     H_    0.194162 0.388178 0.207803 0.137527
H15   H     H_    0.662772 0.619917 0.312183 0.190204
H16   H     H_    0.743102 0.611361 0.187342 0.099298
H17   H     H_    0.629110 0.707036 0.232374 0.098953
H18   H     H_    0.308957 0.761738 0.678578 0.325699
H19   H     H_    0.202849 0.827369 0.819118 0.330149
H20   H     H_    0.976992 0.957071 0.672861 0.152491
H21   H     H_    0.822366 0.898189 0.642040 0.159212
H22   H     H_    0.894176 0.905825 0.783271 0.136876
H23   H     H_    0.644006 0.086069 0.804096 0.123212
H24   H     H_    0.782179 0.697657 0.455447 0.299789
H25   H     H_    0.894936 0.300575 0.320630 0.333459
H26   H     H_    0.261573 0.845933 0.357599 0.126220
H27   H     H_    0.363974 0.747004 0.301108 0.152376
H28   H     H_    0.281273 0.740900 0.429270 0.147320
H29   H     H_    0.642545 0.906282 0.813849 0.095188
H30   H     H_    0.519675 0.802401 0.784570 0.163625
H31   H     H_    0.667870 0.792582 0.716682 0.241704
H32   H     H_    0.476998 0.984132 0.169418 0.152842
H33   H     H_    0.482395 0.870267 0.228983 0.128215
H34   H     H_    0.501515 0.137940 0.765196 0.131393
H35   H     H_    0.332969 0.918468 0.202381 0.119598
H36   H     H_    0.334309 0.110310 0.225551 0.318545
H37   H     H_    0.722888 0.248993 0.563810 0.175934
H38   H     H_    0.642567 0.252135 0.694641 0.142857
H39   H     H_    0.734185 0.145399 0.640501 0.128263
H40   H     H_    0.326669 0.309353 0.833467 0.096709
N1    N     N_R   0.523180 0.519350 0.790130 -0.198498
N2    N     N_R   0.476820 0.480650 0.209890 -0.226367
O1    O     O_R   0.506570 0.354460 0.582000 -0.550267
O2    O     O_3   0.395783 0.161999 0.274153 -0.711337
O3    O     O_3   0.697581 0.638826 0.791366 -0.672847
O4    O     O_3   0.269720 0.688717 0.661398 -0.695498
O5    O     O_3   0.143805 0.858095 0.772177 -0.728634
O6    O     O_3   0.780195 0.720074 0.539514 -0.724185
O7    O     O_3   0.849376 0.338234 0.384299 -0.713174
O8    O     O_R   0.490940 0.341410 0.386200 -0.446788
O9    O     O_R   0.327470 0.506530 0.597920 -0.463267
O10   O     O_R   0.311840 0.493480 0.402120 -0.522224
O11   O     O_R   0.509060 0.658590 0.613800 -0.436161
O12   O     O_R   0.493430 0.645540 0.418000 -0.539532
O13   O     O_R   0.688160 0.506520 0.597880 -0.433657
O14   O     O_R   0.672530 0.493470 0.402080 -0.506781
O15   O     O_3   0.112750 0.331628 0.411299 -0.739704

loop_
_geom_bond_atom_site_label_1
_geom_bond_atom_site_label_2
_ccdc_geom_bond_type
C30   H6    S    
C3    C42   A    
C25   O6    S    
C28   H39   S    
C17   C29   S    
C7    C36   S    
C32   H13   S    
H4    O3    S    
C37   H29   S    
C19   C31   S    
C5    C9    A    
H1    O15   S    
C12   C23   A    
C18   N1    A    
C29   H2    S    
C3    C28   S    
H25   O7    S    
C27   H34   S    
C10   C15   A    
C5    C6    A    
C20   C40   S    
C35   H20   S    
C18   C19   A    
C27   H23   S    
C4    O9    A    
Cu1   O11   S    
C11   N2    A    
C8    C9    A    
C29   H40   S    
C36   H26   S    
H36   O2    S    
C1    O1    A    
C37   H30   S    
C8    C41   A    
C13   C14   A    
C28   H38   S    
Cu1   N1    S    
C24   C35   S    
C29   H3    S    
C28   H37   S    
C17   N1    A    
C18   O3    S    
C24   C25   A    
C27   H12   S    
C39   C40   A    
C4    C23   S    
C33   H17   S    
C20   O14   A    
C38   H33   S    
C35   H21   S    
C25   C26   A    
C12   C21   A    
C34   C39   A    
C12   C26   A    
C2    O2    S    
C39   O7    S    
C13   C33   S    
Cu1   O9    S    
C4    O10   A    
C10   C30   S    
C20   O13   A    
C35   H22   S    
C2    C43   A    
C1    O8    A    
C23   C34   A    
C13   N2    A    
C34   O15   S    
C31   H8    S    
Cu2   O14   S    
C37   H31   S    
C11   C32   S    
C33   H15   S    
C6    C43   A    
Cu2   O12   S    
C22   C24   A    
C8    C37   S    
H19   O5    S    
Cu2   O8    S    
Cu1   Cu2   S    
C9    C27   S    
C21   O4    S    
C15   C17   A    
C30   H7    S    
Cu2   N2    S    
C14   C19   A    
C3    C5    A    
C16   O12   A    
C6    C7    A    
C38   H32   S    
H24   O6    S    
C38   C43   S    
Cu2   O10   S    
Cu1   O13   S    
C26   C40   A    
C38   H35   S    
C2    C42   A    
C16   C41   S    
Cu1   O1    S    
C7    C41   A    
C31   H9    S    
C30   H5    S    
C10   C11   A    
C16   O11   A    
C1    C42   S    
C33   H16   S    
H18   O4    S    
C22   O5    S    
C14   C15   A    
C32   H14   S    
C31   H10   S    
C21   C22   A    
C36   H28   S    
C32   H11   S    
C36   H27   S    
