data_mof_unit_41939.cif
_audit_creation_date              2013-03-05T15:45:38-0500
_audit_creation_method            fapswitch 2.2
_symmetry_space_group_name_H-M    P1
_symmetry_Int_Tables_number       1
_space_group_crystal_system       triclinic
_cell_length_a                    25.973642
_cell_length_b                    25.853374
_cell_length_c                    18.345013
_cell_angle_alpha                 90.123128
_cell_angle_beta                  135.049289
_cell_angle_gamma                 89.705969
_cell_volume                      8703.07054976

loop_
_atom_site_label
_atom_site_type_symbol
_atom_site_description
_atom_site_fract_x
_atom_site_fract_y
_atom_site_fract_z
_atom_type_partial_charge
Zn1   Zn    Zn3+2 0.663270 0.706640 0.413250 1.058262
Zn2   Zn    Zn3+2 0.663270 0.293360 0.413250 1.017687
Zn3   Zn    Zn3+2 0.163270 0.206640 0.413250 1.000996
Zn4   Zn    Zn3+2 0.163270 0.793360 0.413250 0.996719
Zn5   Zn    Zn3+2 0.836780 0.706640 0.586750 0.955691
Zn6   Zn    Zn3+2 0.836780 0.293360 0.586750 0.963265
Zn7   Zn    Zn3+2 0.336780 0.206640 0.586750 0.963147
Zn8   Zn    Zn3+2 0.336780 0.793360 0.586750 0.979682
Zn9   Zn    Zn3+2 0.750020 0.793390 0.413240 1.017918
Zn10  Zn    Zn3+2 0.750020 0.206610 0.413240 1.000972
Zn11  Zn    Zn3+2 0.250020 0.293390 0.413240 1.002912
Zn12  Zn    Zn3+2 0.250020 0.706610 0.413240 1.002637
Zn13  Zn    Zn3+2 0.750010 0.793400 0.586760 1.047121
Zn14  Zn    Zn3+2 0.750010 0.206600 0.586760 1.029436
Zn15  Zn    Zn3+2 0.250010 0.293400 0.586760 1.003528
Zn16  Zn    Zn3+2 0.250010 0.706600 0.586760 1.030394
O1    O     O_3   0.750020 0.750020 0.500000 -0.512781
O2    O     O_3   0.750020 0.249980 0.500000 -0.512913
O3    O     O_3   0.250020 0.250020 0.500000 -0.511711
O4    O     O_3   0.250020 0.749980 0.500000 -0.512342
O5    O     O_R   0.835450 0.780390 0.731600 -0.657156
O6    O     O_R   0.835450 0.219610 0.731600 -0.640138
O7    O     O_R   0.335450 0.280390 0.731600 -0.602715
O8    O     O_R   0.335450 0.719610 0.731600 -0.625965
O9    O     O_R   0.603870 0.719650 0.268400 -0.614671
O10   O     O_R   0.603870 0.280350 0.268400 -0.631444
O11   O     O_R   0.103870 0.219650 0.268400 -0.631780
O12   O     O_R   0.103870 0.780350 0.268400 -0.639040
O13   O     O_R   0.810750 0.634210 0.560720 -0.673014
O14   O     O_R   0.810750 0.365790 0.560720 -0.645806
O15   O     O_R   0.310750 0.134210 0.560720 -0.659127
O16   O     O_R   0.310750 0.865790 0.560720 -0.624741
O17   O     O_R   0.750010 0.865820 0.439280 -0.647209
O18   O     O_R   0.750010 0.134180 0.439280 -0.637205
O19   O     O_R   0.250010 0.365820 0.439280 -0.617053
O20   O     O_R   0.250010 0.634180 0.439280 -0.611476
O21   O     O_R   0.896180 0.719650 0.560720 -0.618565
O22   O     O_R   0.896180 0.280350 0.560720 -0.620689
O23   O     O_R   0.396180 0.219650 0.560720 -0.606432
O24   O     O_R   0.396180 0.780350 0.560720 -0.622676
O25   O     O_R   0.664570 0.780390 0.560720 -0.613117
O26   O     O_R   0.664570 0.219610 0.560720 -0.624551
O27   O     O_R   0.164570 0.280390 0.560720 -0.627023
O28   O     O_R   0.164570 0.719610 0.560720 -0.615844
O29   O     O_R   0.835460 0.780370 0.439280 -0.609894
O30   O     O_R   0.835460 0.219630 0.439280 -0.607266
O31   O     O_R   0.335460 0.280370 0.439280 -0.598308
O32   O     O_R   0.335460 0.719630 0.439280 -0.626705
O33   O     O_R   0.603860 0.719660 0.439280 -0.600156
O34   O     O_R   0.603860 0.280340 0.439280 -0.595055
O35   O     O_R   0.103860 0.219660 0.439280 -0.601858
O36   O     O_R   0.103860 0.780340 0.439280 -0.605270
O37   O     O_R   0.689310 0.634210 0.439280 -0.611281
O38   O     O_R   0.689310 0.365790 0.439280 -0.627173
O39   O     O_R   0.189310 0.134210 0.439280 -0.625858
O40   O     O_R   0.189310 0.865790 0.439280 -0.643616
O41   O     O_R   0.750010 0.865830 0.560720 -0.581223
O42   O     O_R   0.750010 0.134170 0.560720 -0.585053
O43   O     O_R   0.250010 0.365830 0.560720 -0.648997
O44   O     O_R   0.250010 0.634170 0.560720 -0.590702
O45   O     O_R   0.896180 0.719660 0.731600 -0.633866
O46   O     O_R   0.896180 0.280340 0.731600 -0.643752
O47   O     O_R   0.396180 0.219660 0.731600 -0.642671
O48   O     O_R   0.396180 0.780340 0.731600 -0.652363
O49   O     O_R   0.664580 0.780370 0.268400 -0.631519
O50   O     O_R   0.664580 0.219630 0.268400 -0.641203
O51   O     O_R   0.164580 0.280370 0.268400 -0.630313
O52   O     O_R   0.164580 0.719630 0.268400 -0.650807
C1    C     C_R   0.891999 0.752347 0.780045 0.778209
C2    C     C_R   0.890954 0.248800 0.780099 0.761260
C3    C     C_R   0.391700 0.251911 0.780074 0.787120
C4    C     C_R   0.390381 0.749532 0.780002 0.748193
C5    C     C_R   0.610488 0.749663 0.220024 0.812390
C6    C     C_R   0.611538 0.251810 0.219883 0.790239
C7    C     C_R   0.110843 0.249433 0.220107 0.773959
C8    C     C_R   0.111562 0.752140 0.219801 0.771400
C9    C     C_R   0.750192 0.610107 0.500614 0.780577
C10   C     C_R   0.749728 0.390053 0.498740 0.764205
C11   C     C_R   0.250233 0.110035 0.502121 0.785057
C12   C     C_R   0.249979 0.889970 0.501650 0.801166
C13   C     C_R   0.750470 0.889990 0.500190 0.887865
C14   C     C_R   0.751222 0.110087 0.500850 0.859973
C15   C     C_R   0.250148 0.389901 0.500319 0.843575
C16   C     C_R   0.249276 0.610014 0.498868 0.845457
C17   C     C_R   0.893602 0.753814 0.507651 0.880305
C18   C     C_R   0.889672 0.250083 0.498639 0.904783
C19   C     C_R   0.393221 0.252556 0.506298 0.866248
C20   C     C_R   0.390032 0.749775 0.500245 0.976607
C21   C     C_R   0.609053 0.751078 0.498273 0.958808
C22   C     C_R   0.608138 0.248648 0.496856 0.899288
C23   C     C_R   0.113394 0.247549 0.506769 0.837760
C24   C     C_R   0.108274 0.748792 0.497773 0.887033
C25   C     C_R   0.493559 0.833796 0.384439 0.213916
C26   C     C_R   0.572478 0.156064 0.556594 0.220223
C27   C     C_R   0.114909 0.321016 0.638988 0.214904
C28   C     C_R   0.092595 0.666402 0.601788 0.231387
C29   C     C_R   0.437906 0.871019 0.329750 0.337469
C30   C     C_R   0.579737 0.122176 0.623911 0.318368
C31   C     C_R   0.094120 0.371459 0.640010 0.270538
C32   C     C_R   0.108600 0.642180 0.685088 0.308665
C33   C     C_R   0.388192 0.872422 0.337141 0.305221
C34   C     C_R   0.563251 0.139519 0.677901 0.331894
C35   C     C_R   0.020524 0.382460 0.581052 0.322578
C36   C     C_R   0.088215 0.665813 0.730451 0.327549
C37   C     C_R   0.385990 0.831973 0.385541 0.372026
C38   C     C_R   0.532718 0.188994 0.657055 0.427222
C39   C     C_R   0.968630 0.342853 0.524766 0.456557
C40   C     C_R   0.044370 0.710519 0.684819 0.426297
C41   C     C_R   0.441382 0.792637 0.440588 -0.177771
C42   C     C_R   0.510881 0.218024 0.573109 -0.227471
C43   C     C_R   0.991366 0.291678 0.532255 -0.204804
C44   C     C_R   0.018737 0.729349 0.591238 -0.229677
C45   C     C_R   0.496315 0.793565 0.440439 -0.217088
C46   C     C_R   0.544973 0.207153 0.540471 -0.202897
C47   C     C_R   0.059425 0.284327 0.567866 -0.213684
C48   C     C_R   0.055556 0.714982 0.564131 -0.202746
C49   C     C_R   0.550951 0.753746 0.494758 -0.197824
C50   C     C_R   0.550059 0.248116 0.494107 -0.163364
C51   C     C_R   0.066278 0.242594 0.524459 -0.176285
C52   C     C_R   0.051961 0.749493 0.499555 -0.160894
C53   C     C_R   0.551361 0.714737 0.548313 0.429459
C54   C     C_R   0.506118 0.292987 0.458826 0.421194
C55   C     C_R   0.019601 0.199589 0.484600 0.436397
C56   C     C_R   0.000731 0.790906 0.449340 0.407265
C57   C     C_R   0.498337 0.714175 0.549429 0.428552
C58   C     C_R   0.457533 0.296506 0.468456 0.418440
C59   C     C_R   0.961576 0.201722 0.476097 0.395597
C60   C     C_R   0.952788 0.796462 0.460096 0.412463
C61   C     C_R   0.443587 0.752437 0.495739 -0.190192
C62   C     C_R   0.456234 0.257014 0.519926 -0.220825
C63   C     C_R   0.946618 0.248325 0.499056 -0.206107
C64   C     C_R   0.957072 0.761576 0.523150 -0.207451
H1    H     H_    0.532713 0.829150 0.093730 0.154368
H2    H     H_    0.571811 0.175206 0.093120 0.171012
H3    H     H_    0.046869 0.329980 0.092948 0.158496
H4    H     H_    0.084456 0.680865 0.092827 0.177691
C65   C     C_R   0.583023 0.655572 0.108128 -0.298059
C66   C     C_R   0.541514 0.350996 0.106705 -0.298332
C67   C     C_R   0.072370 0.152295 0.109797 -0.298496
C68   C     C_R   0.025924 0.849266 0.105342 -0.297229
H5    H     H_    0.626847 0.655198 0.191433 0.187484
H6    H     H_    0.587111 0.354313 0.188944 0.210500
H7    H     H_    0.119472 0.151955 0.192415 0.185022
H8    H     H_    0.070788 0.854665 0.186992 0.217967
C69   C     C_R   0.568979 0.609828 0.055370 0.279823
C70   C     C_R   0.499668 0.395717 0.054568 0.279197
C71   C     C_R   0.048719 0.104852 0.058524 0.295305
C72   C     C_R   0.974824 0.889535 0.052238 0.291096
C73   C     C_R   0.512702 0.609498 0.946598 0.303551
C74   C     C_R   0.445697 0.396283 0.945791 0.266959
C75   C     C_R   0.988151 0.103444 0.950881 0.281020
C76   C     C_R   0.923568 0.890864 0.943954 0.248317
C77   C     C_R   0.472275 0.654620 0.893239 -0.310013
C78   C     C_R   0.434149 0.351200 0.893206 -0.267995
C79   C     C_R   0.955422 0.150005 0.896173 -0.321811
C80   C     C_R   0.922224 0.849766 0.892790 -0.306816
H9    H     H_    0.431570 0.653419 0.809872 0.173829
H10   H     H_    0.398652 0.354662 0.811170 0.200106
H11   H     H_    0.912560 0.147557 0.813340 0.190644
H12   H     H_    0.889186 0.855298 0.811959 0.203982
C81   C     C_R   0.486412 0.700794 0.945828 0.057127
C82   C     C_R   0.468795 0.303707 0.945353 0.053346
C83   C     C_R   0.979177 0.198279 0.947017 0.056336
C84   C     C_R   0.963175 0.803785 0.945023 0.049889
C85   C     C_R   0.541971 0.701080 0.054907 0.040569
C86   C     C_R   0.523669 0.303658 0.054458 0.048077
C87   C     C_R   0.036442 0.199007 0.055959 0.053918
C88   C     C_R   0.017201 0.803728 0.054165 0.047591
C89   C     C_R   0.556822 0.747562 0.107867 -0.026159
C90   C     C_R   0.559442 0.256297 0.107814 -0.037548
C91   C     C_R   0.058171 0.246801 0.108179 -0.021163
C92   C     C_R   0.060003 0.758042 0.107833 -0.051058
C93   C     C_R   0.520460 0.793346 0.053250 -0.180917
C94   C     C_R   0.544249 0.211332 0.053224 -0.197578
C95   C     C_R   0.029128 0.293231 0.053044 -0.199619
C96   C     C_R   0.051804 0.715560 0.053218 -0.208834
H13   H     H_    0.438775 0.829121 0.905478 0.139895
H14   H     H_    0.478990 0.175330 0.907115 0.162547
H15   H     H_    0.953646 0.329427 0.905306 0.155939
H16   H     H_    0.991739 0.680719 0.907777 0.158413
C97   C     C_R   0.467013 0.793301 0.946354 -0.210415
C98   C     C_R   0.491145 0.211402 0.946868 -0.199024
C99   C     C_R   0.975861 0.292873 0.946312 -0.203042
C100  C     C_R   0.998721 0.715503 0.947006 -0.208030
C101  C     C_R   0.448488 0.747365 0.892257 -0.007758
C102  C     C_R   0.451556 0.256399 0.892106 -0.032976
C103  C     C_R   0.949148 0.246063 0.892567 -0.023154
C104  C     C_R   0.952485 0.758083 0.891946 -0.040274
C105  C     C_R   0.615500 0.947525 0.350932 -0.032545
C106  C     C_R   0.615200 0.054915 0.363520 -0.029670
C107  C     C_R   0.123688 0.446048 0.424707 -0.158102
C108  C     C_R   0.120538 0.553637 0.413996 -0.010404
H17   H     H_    0.613670 0.906298 0.339744 0.177873
H18   H     H_    0.612892 0.096710 0.363440 0.157893
H19   H     H_    0.121760 0.404283 0.425123 0.124482
H20   H     H_    0.116176 0.595153 0.404241 0.159099
C109  C     C_R   0.550021 0.974971 0.282968 -0.095113
C110  C     C_R   0.549664 0.028449 0.290553 -0.137618
C111  C     C_R   0.061289 0.473116 0.383248 -0.209571
C112  C     C_R   0.059499 0.526757 0.377138 -0.080944
H21   H     H_    0.499605 0.954747 0.222960 0.169825
H22   H     H_    0.498678 0.049645 0.237533 0.161327
H23   H     H_    0.013786 0.452324 0.354353 0.140243
H24   H     H_    0.010294 0.547536 0.342527 0.170851
C113  C     C_R   0.682362 0.027844 0.431854 0.026936
C114  C     C_R   0.682305 0.973301 0.428227 0.007949
C115  C     C_R   0.185211 0.527178 0.459522 0.011312
C116  C     C_R   0.186306 0.472590 0.462780 0.039309
C117  C     C_R   0.749335 0.946186 0.497517 -0.222822
C118  C     C_R   0.749500 0.054042 0.497609 -0.204674
C119  C     C_R   0.248670 0.445937 0.499750 -0.221517
C120  C     C_R   0.246859 0.553837 0.495029 -0.234989
C121  C     C_R   0.815552 0.972847 0.555327 0.429528
C122  C     C_R   0.814838 0.026851 0.550474 0.437080
C123  C     C_R   0.308511 0.472898 0.530779 0.450990
C124  C     C_R   0.306053 0.526757 0.523726 0.427718
H25   H     H_    0.691132 0.547487 0.539006 0.160055
H26   H     H_    0.691194 0.453010 0.538474 0.130215
H27   H     H_    0.172428 0.047317 0.342036 0.221027
H28   H     H_    0.174265 0.953274 0.341801 0.214115
C125  C     C_R   0.814219 0.554541 0.442542 -0.135154
C126  C     C_R   0.804086 0.447057 0.426829 -0.127012
C127  C     C_R   0.333762 0.053692 0.697354 -0.193005
C128  C     C_R   0.332501 0.945783 0.696749 -0.172028
H29   H     H_    0.817297 0.596260 0.444223 0.144616
H30   H     H_    0.797849 0.405764 0.415642 0.178249
H31   H     H_    0.333897 0.095390 0.701412 0.148094
H32   H     H_    0.331648 0.904123 0.700309 0.137901
C129  C     C_R   0.840846 0.527730 0.408958 -0.111008
C130  C     C_R   0.834630 0.474290 0.399369 -0.017760
C131  C     C_R   0.373938 0.026474 0.789498 -0.141054
C132  C     C_R   0.373248 0.972711 0.789186 -0.135858
H33   H     H_    0.864659 0.548620 0.387699 0.145479
H34   H     H_    0.853413 0.454260 0.370036 0.166399
H35   H     H_    0.404831 0.047233 0.861293 0.139102
H36   H     H_    0.403593 0.951747 0.860736 0.132816
C133  C     C_R   0.779371 0.473152 0.464833 0.068699
C134  C     C_R   0.782319 0.527796 0.469649 0.103445
C135  C     C_R   0.292583 0.972450 0.602413 0.095549
C136  C     C_R   0.293099 0.027282 0.602708 0.093918
C137  C     C_R   0.750574 0.554182 0.497386 -0.051894
C138  C     C_R   0.748752 0.446293 0.493817 -0.039053
C139  C     C_R   0.250543 0.053968 0.507644 -0.118652
C140  C     C_R   0.250086 0.946031 0.507162 -0.119359
C141  C     C_R   0.716359 0.527035 0.519154 -0.174411
C142  C     C_R   0.716102 0.473449 0.518404 -0.174404
C143  C     C_R   0.206262 0.026860 0.414755 -0.140519
C144  C     C_R   0.206663 0.973433 0.414551 -0.132437
O53   O     O_3   0.600967 0.674250 0.593620 -0.576643
C145  C     C_3   0.663641 0.686998 0.697114 -0.291775
H37   H     H_    0.651917 0.687095 0.744680 0.183514
H38   H     H_    0.687044 0.724847 0.704189 0.151788
H39   H     H_    0.705903 0.657012 0.729317 0.185675
O54   O     O_3   0.505209 0.331529 0.405528 -0.532061
C146  C     C_3   0.552879 0.371762 0.473908 -0.178557
H40   H     H_    0.600696 0.358488 0.554558 0.067193
H41   H     H_    0.522364 0.402221 0.473273 0.179439
H42   H     H_    0.574658 0.389841 0.445497 0.202960
O55   O     O_3   0.028092 0.155552 0.450626 -0.545453
C147  C     C_3   0.091625 0.128475 0.536163 -0.214778
H43   H     H_    0.086621 0.087596 0.513441 0.190044
H44   H     H_    0.099875 0.128419 0.604605 0.115189
H45   H     H_    0.140794 0.144441 0.558650 0.156980
O56   O     O_3   0.991624 0.822590 0.380001 -0.544460
C148  C     C_3   0.027122 0.870284 0.427262 -0.132850
H46   H     H_    0.076266 0.867326 0.512132 0.066565
H47   H     H_    0.988123 0.899065 0.410638 0.180333
H48   H     H_    0.045697 0.885227 0.392382 0.215506
N1    N     N_R   0.497415 0.564424 0.888483 0.224104
O57   O     O_R   0.430168 0.551118 0.809305 -0.387967
O58   O     O_R   0.549493 0.540958 0.905362 -0.397847
N2    N     N_R   0.404002 0.442220 0.887313 0.242756
O59   O     O_R   0.427983 0.487892 0.928386 -0.247853
O60   O     O_R   0.343347 0.438852 0.790061 -0.382198
N3    N     N_R   0.960355 0.055430 0.895361 0.215695
O61   O     O_R   0.890755 0.050234 0.814235 -0.359385
O62   O     O_R   0.004358 0.018045 0.920804 -0.391322
N4    N     N_R   0.874397 0.933983 0.884872 0.241588
O63   O     O_R   0.889759 0.979430 0.926378 -0.224241
O64   O     O_R   0.815470 0.928725 0.787049 -0.350123
O65   O     O_3   0.879772 0.946655 0.604110 -0.616517
C149  C     C_3   0.909967 0.926353 0.699180 -0.296758
H49   H     H_    0.892152 0.885806 0.688882 0.142705
H50   H     H_    0.897073 0.949598 0.735971 0.224013
H51   H     H_    0.970141 0.925616 0.753786 0.195640
O66   O     O_3   0.873643 0.051957 0.578457 -0.630494
C150  C     C_3   0.922468 0.067036 0.682235 -0.238508
H52   H     H_    0.945105 0.032910 0.733695 0.238592
H53   H     H_    0.896351 0.094714 0.694361 0.158527
H54   H     H_    0.968948 0.087253 0.703076 0.156157
O67   O     O_3   0.368260 0.446975 0.562120 -0.609865
C151  C     C_3   0.412782 0.428767 0.664279 -0.329829
H55   H     H_    0.395041 0.389805 0.664217 0.146616
H56   H     H_    0.414446 0.455362 0.713856 0.224174
H57   H     H_    0.469390 0.424834 0.700443 0.186286
O68   O     O_3   0.355330 0.551976 0.528501 -0.574787
C152  C     C_3   0.415501 0.568286 0.630199 -0.130829
H58   H     H_    0.399155 0.597038 0.655948 0.131232
H59   H     H_    0.454478 0.587540 0.632213 0.214304
H60   H     H_    0.444795 0.534997 0.684119 0.206619
N5    N     N_R   0.550145 0.840866 0.389063 0.204327
O69   O     O_R   0.542134 0.824095 0.314623 -0.471667
O70   O     O_R   0.602528 0.872698 0.457012 -0.373601
N6    N     N_R   0.583283 0.135947 0.495071 0.223537
O71   O     O_R   0.634225 0.101946 0.533441 -0.320338
O72   O     O_R   0.537530 0.147530 0.397493 -0.452255
N7    N     N_R   0.190163 0.304694 0.719873 0.271412
O73   O     O_R   0.243188 0.337792 0.769022 -0.294707
O74   O     O_R   0.205905 0.256409 0.748518 -0.399439
N8    N     N_R   0.101356 0.637236 0.544521 0.226132
O75   O     O_R   0.157041 0.606493 0.591522 -0.328562
O76   O     O_R   0.050889 0.639038 0.444193 -0.478144
O77   O     O_3   0.435985 0.909288 0.275353 -0.558562
C153  C     C_3   0.382512 0.895992 0.169765 -0.246745
H61   H     H_    0.327648 0.891724 0.139881 0.182090
H62   H     H_    0.397924 0.859942 0.155618 0.173175
H63   H     H_    0.378231 0.927537 0.124836 0.165592
O78   O     O_3   0.607232 0.072707 0.642056 -0.490853
C154  C     C_3   0.548516 0.038772 0.570903 -0.137411
H64   H     H_    0.516087 0.050247 0.489710 0.152050
H65   H     H_    0.512616 0.036261 0.583576 0.113136
H66   H     H_    0.570754 0.999486 0.582620 0.209445
O79   O     O_3   0.145611 0.409591 0.701820 -0.555010
C155  C     C_3   0.154334 0.436211 0.644105 -0.094546
H67   H     H_    0.103329 0.456791 0.577317 0.140078
H68   H     H_    0.172108 0.409745 0.617308 0.177786
H69   H     H_    0.197426 0.465736 0.694257 0.236244
O80   O     O_3   0.146143 0.595700 0.724592 -0.513832
C156  C     C_3   0.095172 0.555104 0.677429 -0.121646
H70   H     H_    0.063877 0.551661 0.594374 0.157551
H71   H     H_    0.057113 0.559674 0.686039 0.116897
H72   H     H_    0.125216 0.518360 0.716141 0.221106
O81   O     O_3   0.999095 0.432507 0.575621 -0.604004
C157  C     C_3   0.996400 0.438129 0.649328 -0.243534
H73   H     H_    0.051203 0.432369 0.729024 0.185817
H74   H     H_    0.956279 0.411251 0.634001 0.195312
H75   H     H_    0.978342 0.478113 0.644236 0.164683
O82   O     O_3   0.113508 0.644825 0.820658 -0.551525
C158  C     C_3   0.054726 0.629902 0.806793 -0.160996
H76   H     H_    0.005080 0.618165 0.726166 0.117204
H77   H     H_    0.041007 0.661452 0.831815 0.208047
H78   H     H_    0.072202 0.596045 0.857096 0.161781
O83   O     O_3   0.338753 0.912851 0.292208 -0.576769
C159  C     C_3   0.368801 0.951651 0.367122 -0.174284
H79   H     H_    0.420130 0.967098 0.394908 0.149790
H80   H     H_    0.378577 0.937254 0.433252 0.166235
H81   H     H_    0.329326 0.984187 0.331335 0.200095
O84   O     O_3   0.580763 0.108175 0.754203 -0.541790
C160  C     C_3   0.516840 0.094329 0.728356 -0.141549
H82   H     H_    0.469118 0.087738 0.644095 0.106932
H83   H     H_    0.503096 0.123940 0.756332 0.208848
H84   H     H_    0.527430 0.057544 0.768216 0.173678
O85   O     O_3   0.332763 0.834168 0.385591 -0.595627
C161  C     C_3   0.265761 0.817950 0.288540 -0.229261
H85   H     H_    0.269733 0.778106 0.269701 0.155722
H86   H     H_    0.245442 0.845043 0.225806 0.194321
H87   H     H_    0.224725 0.817636 0.291690 0.154115
O86   O     O_3   0.528179 0.208822 0.722679 -0.561221
C162  C     C_3   0.575132 0.251591 0.776556 -0.259680
H88   H     H_    0.631605 0.241865 0.815310 0.165807
H89   H     H_    0.577708 0.262806 0.837482 0.186042
H90   H     H_    0.554031 0.285550 0.724791 0.131133
O87   O     O_3   0.895583 0.355431 0.457311 -0.600485
C163  C     C_3   0.862791 0.350870 0.354928 -0.371546
H91   H     H_    0.860105 0.310003 0.333742 0.182540
H92   H     H_    0.891557 0.374693 0.342318 0.162165
H93   H     H_    0.805795 0.365121 0.301290 0.184760
O88   O     O_3   0.028120 0.735774 0.733249 -0.572438
C164  C     C_3   0.068700 0.781853 0.777784 -0.304835
H94   H     H_    0.050628 0.810138 0.717730 0.142595
H95   H     H_    0.128228 0.774064 0.832261 0.173549
H96   H     H_    0.059302 0.799855 0.822535 0.184509
O89   O     O_3   0.498004 0.673285 0.597946 -0.576602
C165  C     C_3   0.522145 0.689917 0.691599 -0.347096
H97   H     H_    0.474772 0.694461 0.681249 0.157212
H98   H     H_    0.554185 0.726504 0.723150 0.150706
H99   H     H_    0.557697 0.659349 0.750627 0.198497
O90   O     O_3   0.411360 0.338950 0.425936 -0.550814
C166  C     C_3   0.435438 0.372262 0.506220 -0.167279
H100  H     H_    0.418479 0.357764 0.543474 0.166309
H101  H     H_    0.409762 0.410740 0.472380 0.243558
H102  H     H_    0.495599 0.377880 0.566349 0.081601
O91   O     O_3   0.914285 0.160333 0.432543 -0.557600
C167  C     C_3   0.937896 0.126582 0.511675 -0.134849
H103  H     H_    0.896774 0.095635 0.476321 0.237980
H104  H     H_    0.942655 0.146629 0.569970 0.109901
H105  H     H_    0.990263 0.107594 0.549705 0.137700
O92   O     O_3   0.900735 0.835436 0.405608 -0.555389
C168  C     C_3   0.919743 0.874379 0.475476 -0.185338
H106  H     H_    0.910998 0.861511 0.523745 0.171963
H107  H     H_    0.884167 0.908551 0.430559 0.212186
H108  H     H_    0.977241 0.887149 0.526747 0.097576
N9    N     N_R   0.611674 0.564257 0.113536 0.244308
O93   O     O_R   0.677430 0.568565 0.205132 -0.412363
O94   O     O_R   0.583242 0.518423 0.080007 -0.272114
N10   N     N_R   0.510793 0.438948 0.113769 0.260450
O95   O     O_R   0.576224 0.450286 0.201414 -0.342026
O96   O     O_R   0.455387 0.459348 0.092229 -0.286493
N11   N     N_R   0.086312 0.058544 0.117339 0.226129
O97   O     O_R   0.157169 0.056824 0.186949 -0.434266
O98   O     O_R   0.050493 0.019930 0.108870 -0.287509
N12   N     N_R   0.973179 0.926558 0.109239 0.262350
O99   O     O_R   0.033183 0.939496 0.202288 -0.378011
O100  O     O_R   0.911401 0.937969 0.078447 -0.298230

loop_
_geom_bond_atom_site_label_1
_geom_bond_atom_site_label_2
_geom_bond_distance
_ccdc_geom_bond_type
C13   C117  1.453223 S    
C146  H41   1.108590 S    
Zn5   O21   1.941728 S    
C152  H59   1.107329 S    
C31   C35   1.405024 A    
O67   C151  1.414856 S    
O23   C19   1.273089 A    
O48   C4    1.280263 A    
O81   C157  1.409745 S    
C149  H49   1.108636 S    
C133  C138  1.415350 A    
C137  C141  1.397038 A    
C19   C62   1.475511 S    
H25   C141  1.083938 S    
C78   H10   1.076435 S    
O42   C14   1.280924 A    
C27   C31   1.414085 A    
C56   O56   1.386207 S    
C145  H38   1.112515 S    
C125  H29   1.080703 S    
C32   C36   1.401557 A    
O46   C2    1.284557 A    
N11   O98   1.300210 A    
C73   C77   1.399697 A    
C70   C74   1.409918 A    
Zn11  O31   1.938764 S    
O34   C22   1.279047 A    
C76   C80   1.400303 A    
C155  H67   1.112392 S    
C124  O68   1.385843 S    
C150  H53   1.108902 S    
Zn3   O3    1.951973 S    
C11   C139  1.452858 S    
Zn16  O28   1.938724 S    
H15   C99   1.083983 S    
O28   C24   1.281874 A    
C36   O82   1.387793 S    
C164  H96   1.109489 S    
C145  H39   1.109198 S    
H28   C144  1.082954 S    
C111  C112  1.389451 A    
C141  C142  1.385431 A    
Zn4   O40   1.934937 S    
O11   C7    1.281420 A    
C128  H32   1.080457 S    
C27   N7    1.445473 S    
O88   C164  1.409760 S    
C85   C89   1.416365 A    
N8    O76   1.301088 A    
O79   C155  1.410763 S    
C84   C88   1.414619 A    
C74   N2    1.442907 S    
C58   C62   1.408816 A    
C87   C91   1.414146 A    
C55   O55   1.386439 S    
C153  H61   1.113097 S    
N5    O69   1.300917 A    
C117  C121  1.408964 A    
C77   C81   1.410231 A    
C123  C124  1.395650 A    
C129  C130  1.388112 A    
C37   O85   1.384038 S    
O16   C12   1.276048 A    
C105  C114  1.410948 A    
Zn16  O4    1.949175 S    
Zn12  O4    1.944939 S    
C100  C104  1.395914 A    
Zn13  O5    1.935987 S    
Zn2   O10   1.937313 S    
C67   C87   1.412009 A    
H14   C98   1.084154 S    
O68   C152  1.406182 S    
Zn6   O14   1.930156 S    
O47   C3    1.281341 A    
Zn7   O3    1.942745 S    
N1    O58   1.301223 A    
C168  H106  1.110450 S    
O91   C167  1.408791 S    
Zn5   O13   1.934891 S    
C108  H20   1.080626 S    
C95   C99   1.383382 A    
C90   C94   1.396569 A    
C105  C109  1.393029 A    
C96   C100  1.376581 A    
H2    C94   1.083932 S    
N10   O96   1.301331 A    
C84   C104  1.427222 A    
C167  H104  1.113010 S    
C51   C55   1.412880 A    
N9    O93   1.300754 A    
O24   C20   1.275887 A    
C151  H56   1.115255 S    
C157  H75   1.109357 S    
Zn10  O2    1.944939 S    
C155  H69   1.109060 S    
C60   O92   1.385582 S    
Zn11  O19   1.931584 S    
O84   C160  1.414461 S    
C130  H34   1.078669 S    
C108  C112  1.394871 A    
Zn9   O49   1.938005 S    
C4    C101  1.456772 S    
Zn4   O4    1.942593 S    
C152  H58   1.111311 S    
C57   C61   1.406458 A    
C162  H88   1.114058 S    
Zn7   O23   1.941728 S    
C28   C48   1.425061 A    
C35   C39   1.403971 A    
Zn8   O24   1.938627 S    
O90   C166  1.413618 S    
H1    C93   1.084049 S    
C81   C85   1.414030 A    
H16   C100  1.083372 S    
O25   C21   1.278769 A    
H4    C96   1.083770 S    
C160  H82   1.115297 S    
C83   C87   1.414019 A    
C58   O90   1.384518 S    
C94   C98   1.378451 A    
Zn12  O52   1.936031 S    
O53   C145  1.411190 S    
O22   C18   1.289559 A    
C9    C137  1.447218 S    
C127  H31   1.080289 S    
Zn13  O41   1.933529 S    
N11   O97   1.301043 A    
O50   C6    1.279917 A    
C132  H36   1.082682 S    
C163  H91   1.110324 S    
Zn16  O44   1.931540 S    
C8    C92   1.463412 S    
Zn1   O37   1.930200 S    
C165  H97   1.109856 S    
Zn2   O34   1.942027 S    
C67   H7    1.081367 S    
O92   C168  1.415656 S    
C110  H22   1.082474 S    
C168  H108  1.113347 S    
Zn6   O22   1.938627 S    
C42   C46   1.403131 A    
N6    O72   1.301506 A    
C133  C134  1.414383 A    
C156  H71   1.111682 S    
C20   C61   1.452695 S    
C59   C63   1.415860 A    
Zn10  O50   1.936031 S    
C72   N12   1.438738 S    
C79   H11   1.076241 S    
C80   H12   1.074347 S    
C162  H89   1.109400 S    
C39   O87   1.381667 S    
C157  H73   1.113102 S    
N2    O59   1.299756 A    
C166  H102  1.114223 S    
C71   N11   1.432912 S    
C79   C83   1.413029 A    
C48   C52   1.433640 A    
O5    C1    1.271625 A    
O26   C22   1.283138 A    
C165  H99   1.109379 S    
O31   C19   1.288953 A    
C71   C75   1.406721 A    
C53   C57   1.391925 A    
C55   C59   1.401866 A    
C112  H24   1.082097 S    
Zn5   O45   1.937358 S    
C148  H47   1.108454 S    
Zn7   O47   1.937358 S    
Zn8   O48   1.936591 S    
C45   C49   1.433315 A    
C43   C63   1.409436 A    
C21   C49   1.465483 S    
C86   C90   1.423669 A    
C160  H84   1.109242 S    
C47   C51   1.422966 A    
N7    O73   1.301203 A    
C41   C61   1.424402 A    
C108  C115  1.411412 A    
C23   C51   1.477590 S    
O51   C7    1.277060 A    
C25   C29   1.399743 A    
C44   C48   1.403041 A    
O8    C4    1.279737 A    
N12   O99   1.300769 A    
Zn9   O1    1.948879 S    
C37   C41   1.434181 A    
C148  H48   1.109681 S    
C57   O89   1.387384 S    
C78   C82   1.416965 A    
C72   C76   1.405787 A    
O80   C156  1.411352 S    
C40   O88   1.385381 S    
Zn13  O25   1.942316 S    
O52   C8    1.284994 A    
C126  C133  1.407224 A    
C149  H50   1.115786 S    
C75   C79   1.402161 A    
O40   C12   1.279884 A    
C163  H93   1.108898 S    
Zn13  O1    1.945233 S    
C30   O78   1.382917 S    
Zn14  O6    1.937959 S    
Zn3   O11   1.936546 S    
C24   C52   1.485986 S    
Zn15  O27   1.942316 S    
C113  C118  1.409257 A    
C66   C70   1.397625 A    
H13   C97   1.084150 S    
C28   C32   1.415069 A    
C152  H60   1.108934 S    
C162  H90   1.111292 S    
O9    C5    1.280409 A    
C129  H33   1.082639 S    
C109  C110  1.389908 A    
C107  H19   1.081493 S    
C31   O79   1.381501 S    
C158  H78   1.109177 S    
O13   C9    1.276878 A    
C159  H79   1.113316 S    
C126  C130  1.397067 A    
C149  H51   1.109199 S    
C155  H68   1.113353 S    
C161  H85   1.113113 S    
C89   C93   1.396856 A    
N4    O63   1.300181 A    
C131  H35   1.082635 S    
O18   C14   1.271695 A    
C75   N3    1.436109 S    
O6    C2    1.277590 A    
O55   C147  1.415341 S    
C28   N8    1.434308 S    
C164  H95   1.113775 S    
C111  H23   1.082645 S    
Zn9   O29   1.938764 S    
C119  C123  1.408147 A    
C135  C136  1.417697 A    
C34   O84   1.386636 S    
Zn12  O32   1.942359 S    
C65   C85   1.411719 A    
O85   C161  1.411718 S    
C166  H100  1.109273 S    
C121  O65   1.385595 S    
C121  C122  1.398405 A    
Zn15  O3    1.945233 S    
C122  O66   1.384417 S    
C134  C137  1.410913 A    
Zn11  O3    1.948879 S    
C138  C142  1.396219 A    
C22   C50   1.473395 S    
C65   C69   1.402930 A    
O43   C15   1.274229 A    
Zn5   O1    1.942745 S    
C26   C30   1.414794 A    
C153  H62   1.112859 S    
C98   C102  1.396595 A    
C81   C101  1.417215 A    
O35   C23   1.295413 A    
C82   C86   1.414109 A    
O87   C163  1.415214 S    
O32   C20   1.277143 A    
C56   C60   1.398598 A    
C153  H63   1.108630 S    
C146  H42   1.109592 S    
C93   C97   1.385457 A    
N1    O57   1.300754 A    
Zn9   O17   1.931584 S    
C39   C43   1.412805 A    
C147  H45   1.109266 S    
C127  C131  1.393673 A    
N5    O70   1.299530 A    
Zn14  O42   1.931540 S    
C115  C116  1.411969 A    
O7    C3    1.272891 A    
N10   O95   1.301827 A    
Zn2   O38   1.934937 S    
O33   C21   1.280584 A    
O19   C15   1.277820 A    
C147  H43   1.109266 S    
C145  H37   1.109162 S    
C136  C139  1.417043 A    
C35   O81   1.381502 S    
O37   C9    1.276472 A    
O54   C146  1.413409 S    
C99   C103  1.397583 A    
O39   C11   1.278465 A    
C106  C113  1.414337 A    
C158  H76   1.115827 S    
C159  H81   1.109324 S    
C150  H54   1.108652 S    
C25   C45   1.429028 A    
C44   C64   1.406681 A    
C76   N4    1.442149 S    
C33   O83   1.382993 S    
C139  C143  1.395278 A    
C66   H6    1.075878 S    
H27   C143  1.081910 S    
O36   C24   1.287817 A    
C5    C89   1.456090 S    
O12   C8    1.270626 A    
C36   C40   1.405289 A    
C106  C110  1.392973 A    
O21   C17   1.281885 A    
C65   H5    1.081211 S    
N8    O75   1.301181 A    
C69   N9    1.439971 S    
Zn15  O43   1.933529 S    
C68   H8    1.072936 S    
C54   O54   1.385889 S    
C16   C120  1.453455 S    
C66   C86   1.415369 A    
C125  C134  1.415068 A    
Zn6   O46   1.936591 S    
C73   N1    1.432629 S    
C30   C34   1.400636 A    
O77   C153  1.411838 S    
C116  C119  1.412162 A    
C163  H92   1.114042 S    
C42   C62   1.418472 A    
C157  H74   1.113448 S    
C77   H9    1.081293 S    
C165  H98   1.116360 S    
C154  H64   1.113364 S    
C40   C44   1.417712 A    
C88   C92   1.429210 A    
C125  C129  1.390936 A    
C168  H107  1.109216 S    
C69   C73   1.410677 A    
O38   C10   1.276801 A    
C68   C88   1.419760 A    
C123  O67   1.384240 S    
O83   C159  1.409957 S    
N4    O64   1.301876 A    
Zn2   O2    1.942593 S    
C156  H70   1.112345 S    
Zn14  O2    1.949175 S    
C167  H103  1.107975 S    
C68   C72   1.398048 A    
C26   C46   1.426648 A    
C113  C114  1.411513 A    
N9    O94   1.300294 A    
C67   C71   1.396948 A    
Zn8   O4    1.952125 S    
Zn4   O36   1.942027 S    
H26   C142  1.083899 S    
C25   N5    1.423713 S    
C151  H55   1.109512 S    
N3    O62   1.301480 A    
C107  C111  1.393134 A    
C127  C136  1.415297 A    
C128  C132  1.393752 A    
C17   C64   1.475988 S    
C50   C54   1.418208 A    
O66   C150  1.403300 S    
C59   O91   1.383040 S    
C18   C63   1.474150 S    
C166  H101  1.108884 S    
C126  H30   1.077898 S    
O49   C5    1.278809 A    
C83   C103  1.423000 A    
C49   C53   1.404230 A    
C150  H52   1.108110 S    
C27   C47   1.423438 A    
Zn10  O30   1.942359 S    
C109  H21   1.078964 S    
C135  C140  1.418031 A    
Zn12  O20   1.933576 S    
C148  H46   1.116146 S    
C41   C45   1.429057 A    
Zn14  O26   1.938724 S    
C10   C138  1.455954 S    
Zn15  O7    1.935987 S    
C154  H66   1.109330 S    
C160  H83   1.109825 S    
Zn1   O9    1.936546 S    
Zn3   O39   1.930200 S    
C60   C64   1.408939 A    
Zn4   O12   1.937313 S    
Zn11  O51   1.938005 S    
N12   O100  1.301454 A    
C33   C37   1.400599 A    
Zn6   O2    1.952125 S    
Zn7   O15   1.934891 S    
Zn3   O35   1.938924 S    
Zn8   O16   1.930156 S    
C120  C124  1.405703 A    
C147  H44   1.114253 S    
C82   C102  1.425461 A    
C97   C101  1.397037 A    
O56   C148  1.413448 S    
O65   C149  1.412800 S    
C118  C122  1.405663 A    
C91   C95   1.396050 A    
O27   C23   1.270100 A    
C12   C140  1.452556 S    
N7    O74   1.301967 A    
H3    C95   1.083934 S    
C54   C58   1.395092 A    
O29   C17   1.279519 A    
O78   C154  1.410870 S    
C105  H17   1.079917 S    
C53   O53   1.385877 S    
C140  C144  1.394680 A    
Zn10  O18   1.933576 S    
C1    C104  1.463036 S    
C46   C50   1.423652 A    
C2    C103  1.460131 S    
N2    O60   1.301894 A    
N6    O71   1.300512 A    
C158  H77   1.109011 S    
N3    O61   1.301728 A    
C159  H80   1.113419 S    
C161  H86   1.110689 S    
C7    C91   1.454882 S    
C115  C120  1.412915 A    
C156  H72   1.107518 S    
O41   C13   1.282630 A    
C3    C102  1.460374 S    
C146  H40   1.116338 S    
C167  H105  1.108702 S    
C164  H94   1.112116 S    
C38   C42   1.421563 A    
O45   C1    1.283816 A    
C151  H57   1.109200 S    
C38   O86   1.386927 S    
C26   N6    1.437842 S    
C143  C144  1.381271 A    
O15   C11   1.277676 A    
C161  H87   1.107573 S    
C70   N10   1.437382 S    
O89   C165  1.415840 S    
O44   C16   1.282304 A    
C114  C117  1.413228 A    
O17   C13   1.271769 A    
O20   C16   1.272091 A    
C32   O80   1.382575 S    
O10   C6    1.273913 A    
C34   C38   1.404882 A    
C107  C116  1.416143 A    
C29   O77   1.382187 S    
O86   C162  1.410593 S    
C128  C135  1.415392 A    
C29   C33   1.390798 A    
C6    C90   1.460478 S    
C106  H18   1.081837 S    
O14   C10   1.280810 A    
C92   C96   1.396824 A    
Zn1   O1    1.951973 S    
C80   C84   1.418467 A    
Zn16  O8    1.937959 S    
O82   C158  1.414419 S    
C74   C78   1.402960 A    
C131  C132  1.390112 A    
C43   C47   1.396535 A    
C154  H65   1.111418 S    
C14   C118  1.449657 S    
Zn1   O33   1.938924 S    
C15   C119  1.448895 S    
C52   C56   1.421318 A    
O30   C18   1.275050 A    
