data_mof_unit_19336.cif
_audit_creation_date              2013-03-05T16:06:00-0500
_audit_creation_method            fapswitch 2.2
_symmetry_space_group_name_H-M    P1
_symmetry_Int_Tables_number       1
_space_group_crystal_system       triclinic
_cell_length_a                    10.805397
_cell_length_b                    9.512257
_cell_length_c                    23.513969
_cell_angle_alpha                 89.956885
_cell_angle_beta                  90.259195
_cell_angle_gamma                 89.913693
_cell_volume                      2416.8248782

loop_
_atom_site_label
_atom_site_type_symbol
_atom_site_description
_atom_site_fract_x
_atom_site_fract_y
_atom_site_fract_z
_atom_type_partial_charge
O1    O     O_R   0.319640 0.618740 0.500000 -0.557921
O2    O     O_R   0.680360 0.381260 0.500000 -0.558171
O3    O     O_R   0.680360 0.618740 0.500000 -0.562861
O4    O     O_R   0.319640 0.381260 0.500000 -0.563061
C1    C     C_R   0.262359 0.500157 0.499742 0.946901
C2    C     C_R   0.737642 0.499845 0.500263 0.947159
O5    O     O_R   0.499960 0.618810 0.417880 -0.608138
O6    O     O_R   0.500040 0.381190 0.582120 -0.604262
O7    O     O_R   0.500040 0.618810 0.582120 -0.570906
O8    O     O_R   0.499960 0.381190 0.417880 -0.566959
C3    C     C_R   0.499948 0.500055 0.390861 0.887337
C4    C     C_R   0.500044 0.499982 0.609139 0.886979
Cu1   Cu    Cu3+1 0.500000 0.640660 0.500000 1.041595
Cu2   Cu    Cu3+1 0.500000 0.359340 0.500000 1.042112
C5    C     C_R   0.610840 0.495754 0.880688 0.547115
C6    C     C_R   0.389117 0.495100 0.119315 0.547451
N1    N     N_R   0.500272 0.496947 0.852067 -0.483769
N2    N     N_R   0.499677 0.496712 0.147935 -0.483648
C7    C     C_R   0.389598 0.495329 0.880138 0.548443
C8    C     C_R   0.610359 0.495550 0.119865 0.548699
C9    C     C_R   0.387127 0.493855 0.939776 -0.022165
C10   C     C_R   0.612838 0.494182 0.060227 -0.022240
C11   C     C_R   0.500044 0.493785 0.969995 -0.014588
C12   C     C_R   0.499923 0.493723 0.030008 -0.014612
C13   C     C_R   0.613081 0.494300 0.940338 -0.021511
C14   C     C_R   0.386885 0.493725 0.059665 -0.021569
C15   C     C_R   0.274977 0.493136 0.969773 -0.144468
C16   C     C_R   0.724990 0.493973 0.030231 -0.144428
C17   C     C_R   0.274857 0.493069 0.029111 -0.144777
C18   C     C_R   0.725111 0.494032 0.970893 -0.144811
O9    O     O_2   0.718002 0.496594 0.851446 -0.491590
O10   O     O_2   0.281952 0.495461 0.148557 -0.491467
O11   O     O_2   0.282548 0.495756 0.850363 -0.489730
O12   O     O_2   0.717405 0.496352 0.149640 -0.489549
H1    H     H_    0.186984 0.493048 0.947527 0.194903
H2    H     H_    0.812984 0.494193 0.052476 0.194921
H3    H     H_    0.186777 0.492934 0.050919 0.194523
H4    H     H_    0.813191 0.494290 0.949084 0.194509
C19   C     C_R   0.499728 0.373316 0.238858 -0.119281
C20   C     C_R   0.500575 0.373408 0.761254 -0.114824
H5    H     H_    0.499831 0.274423 0.216068 0.173712
H6    H     H_    0.500746 0.274557 0.784134 0.174467
C21   C     C_R   0.499812 0.372979 0.298061 -0.117546
C22   C     C_R   0.500509 0.372964 0.702047 -0.186544
H7    H     H_    0.499940 0.273039 0.320158 0.184988
H8    H     H_    0.500677 0.272989 0.680039 0.181077
C23   C     C_R   0.499759 0.500236 0.328226 -0.099013
C24   C     C_R   0.500213 0.500163 0.671774 -0.098586
C25   C     C_R   0.499475 0.627865 0.298103 -0.171436
C26   C     C_R   0.500121 0.627849 0.701786 -0.101889
H9    H     H_    0.499329 0.727171 0.320640 0.183242
H10   H     H_    0.499981 0.727122 0.679163 0.187005
C27   C     C_R   0.499379 0.629635 0.238697 0.476985
C28   C     C_R   0.500176 0.629727 0.761187 0.469395
C29   C     C_R   0.499558 0.500400 0.208851 0.231174
C30   C     C_R   0.500370 0.500545 0.791148 0.231845
C31   C     C_R   0.064006 0.411712 0.461748 0.235026
C32   C     C_R   0.935999 0.588283 0.538266 0.234695
C33   C     C_R   0.934884 0.410743 0.462576 0.234137
C34   C     C_R   0.065121 0.589269 0.537427 0.233996
C35   C     C_R   0.871541 0.499259 0.500599 -0.349729
C36   C     C_R   0.128461 0.500745 0.499409 -0.349732
C37   C     C_R   0.426121 0.074632 0.463211 0.032547
C38   C     C_R   0.573882 0.925366 0.536788 0.033354
C39   C     C_R   0.573966 0.074239 0.536759 0.030465
C40   C     C_R   0.426036 0.925760 0.463240 0.031457
H11   H     H_    0.367136 0.130946 0.433694 0.174289
H12   H     H_    0.632874 0.869052 0.566303 0.174522
H13   H     H_    0.633246 0.130223 0.566183 0.142543
H14   H     H_    0.366760 0.869776 0.433814 0.143008
N3    N     N_R   0.500000 0.852070 0.500000 -0.182875
N4    N     N_R   0.500000 0.147930 0.500000 -0.183058
O13   O     O_3   0.499144 0.758893 0.211891 -0.698750
H15   H     H_    0.499001 0.745612 0.170171 0.335910
O14   O     O_3   0.500009 0.759031 0.787875 -0.697017
H16   H     H_    0.500055 0.745818 0.829607 0.336490
N5    N     N_R   0.129075 0.329603 0.420152 0.153962
O15   O     O_R   0.111476 0.194638 0.416719 -0.289188
O16   O     O_R   0.205467 0.389962 0.385207 -0.370629
N6    N     N_R   0.870936 0.670390 0.579867 0.154256
O17   O     O_R   0.888827 0.805286 0.583425 -0.288417
O18   O     O_R   0.794420 0.610054 0.614761 -0.371020
N7    N     N_R   0.868054 0.327959 0.421808 0.173040
O19   O     O_R   0.807123 0.389456 0.380920 -0.345149
O20   O     O_R   0.854820 0.193527 0.429850 -0.273532
N8    N     N_R   0.131959 0.672073 0.578184 0.173497
O21   O     O_R   0.192614 0.610605 0.619166 -0.345075
O22   O     O_R   0.145554 0.806417 0.570028 -0.273244

loop_
_geom_bond_atom_site_label_1
_geom_bond_atom_site_label_2
_geom_bond_distance
_ccdc_geom_bond_type
C15   C17   1.395271 A    
O13   H15   0.989192 S    
C3    C23   1.472789 S    
C4    C24   1.472783 S    
O3    C2    1.288433 A    
C25   H9    1.083466 S    
C31   C36   1.408491 A    
C23   C25   1.405084 A    
N5    O15   1.300620 A    
O5    C3    1.296456 A    
C26   C28   1.396878 A    
O1    C1    1.287472 A    
C38   H12   1.081346 S    
C2    C35   1.446825 S    
C7    C9    1.402759 A    
C33   N7    1.434269 S    
C25   C27   1.396955 A    
C5    C13   1.402767 A    
C32   C34   1.395488 A    
C18   H4    1.083147 S    
C34   C36   1.407684 A    
C38   N3    1.366768 A    
O7    Cu1   1.941963 S    
C19   C29   1.399245 A    
C40   N3    1.366891 A    
C20   C30   1.399267 A    
C26   H10   1.083484 S    
C11   C12   1.411150 A    
O3    Cu1   1.959670 S    
C32   N6    1.437650 S    
C8    O12   1.349387 S    
C32   C35   1.408553 A    
C20   H6    1.082982 S    
C9    C15   1.404931 A    
C37   C40   1.416112 A    
C10   C16   1.404926 A    
Cu1   Cu2   2.675988 S    
O2    C2    1.287487 A    
C22   H8    1.083016 S    
C28   C30   1.415970 A    
C27   C29   1.415996 A    
C6    C14   1.402768 A    
C37   H11   1.081333 S    
C33   C35   1.407721 A    
N8    O22   1.300716 A    
C31   N5    1.437609 S    
N6    O18   1.301166 A    
O8    Cu2   1.941963 S    
C34   N8    1.434248 S    
N8    O21   1.300887 A    
O4    C1    1.288441 A    
C19   C21   1.392100 A    
Cu1   N3    2.010986 S    
C15   H1    1.083124 S    
O14   H16   0.989204 S    
N7    O19   1.300876 A    
O5    Cu1   1.942274 S    
O6    C4    1.296757 A    
N5    O16   1.301173 A    
C21   H7    1.083035 S    
N1    C30   1.432838 S    
C16   H2    1.083125 S    
N2    C29   1.432837 S    
N7    O20   1.300704 A    
C8    C10   1.402761 A    
C9    C11   1.409166 A    
C7    O11   1.349388 S    
C10   C12   1.409163 A    
O1    Cu1   1.960296 S    
C13   C18   1.404887 A    
C5    N1    1.368623 A    
O6    Cu2   1.942274 S    
Cu2   N4    2.010987 S    
C27   O13   1.381250 S    
C12   C14   1.409213 A    
N6    O17   1.300640 A    
C5    O9    1.349398 S    
C6    O10   1.349398 S    
C39   N4    1.366892 A    
C38   C39   1.416115 A    
C16   C18   1.395271 A    
C40   H14   1.081731 S    
C39   H13   1.081730 S    
C24   C26   1.405181 A    
N1    C7    1.368655 A    
C1    C36   1.446807 S    
N2    C8    1.368655 A    
C11   C13   1.409214 A    
O4    Cu2   1.959672 S    
O2    Cu2   1.960295 S    
O7    C4    1.296221 A    
C31   C33   1.395487 A    
O8    C3    1.296528 A    
C28   O14   1.381226 S    
C20   C22   1.392177 A    
C37   N4    1.366769 A    
C19   H5    1.082977 S    
C14   C17   1.404886 A    
C6    N2    1.368618 A    
C17   H3    1.083149 S    
C21   C23   1.403456 A    
C22   C24   1.403352 A    
