data_mof_unit_46879.cif
_audit_creation_date              2012-12-10T17:44:32-0500
_audit_creation_method            fapswitch 2.2
_symmetry_space_group_name_H-M    P1
_symmetry_Int_Tables_number       1
_space_group_crystal_system       triclinic
_cell_length_a                    9.908549
_cell_length_b                    10.53015
_cell_length_c                    15.54495
_cell_angle_alpha                 91.998112
_cell_angle_beta                  67.667746
_cell_angle_gamma                 90.540714
_cell_volume                      1499.3601096

loop_
_atom_site_label
_atom_site_type_symbol
_atom_type_description
_atom_site_fract_x
_atom_site_fract_y
_atom_site_fract_z
_atom_type_partial_charge
C1    C     C_R   0.512938 0.734460 0.478461 0.897552
C2    C     C_R   0.431777 0.535132 0.905799 0.091015
C3    C     C_R   0.300893 0.603283 0.956763 0.177329
C4    C     C_R   0.544060 0.525479 0.942125 0.000236
C5    C     C_R   0.505898 0.559423 0.037953 0.055783
C6    C     C_R   0.374368 0.626923 0.086767 -0.193651
C7    C     C_R   0.275365 0.650471 0.046007 -0.209777
C8    C     C_R   0.693264 0.488662 0.888353 0.148731
C9    C     C_R   0.789270 0.468960 0.933425 -0.219745
C10   C     C_R   0.744548 0.484765 0.028994 0.034287
C11   C     C_R   0.601830 0.527979 0.082200 0.086043
C12   C     C_R   0.408365 0.498776 0.675861 0.855822
C13   C     C_R   0.842117 0.458370 0.072040 -0.285737
C14   C     C_R   0.795980 0.466856 0.168532 0.624138
C15   C     C_R   0.556171 0.531709 0.179112 -0.299001
C16   C     C_R   0.301826 0.869421 0.416857 0.659638
C17   C     C_R   0.164204 0.922639 0.440916 -0.206882
C18   C     C_R   0.127319 0.034022 0.495568 -0.263579
C19   C     C_R   0.233059 0.098190 0.519146 -0.167691
C20   C     C_R   0.378304 0.051136 0.487511 0.026760
C21   C     C_R   0.404599 0.927900 0.448096 -0.047114
C22   C     C_R   0.529810 0.864185 0.446125 -0.152779
C23   C     C_R   0.497068 0.257804 0.502637 0.882809
C24   C     C_R   0.654256 0.933897 0.439542 0.148390
C25   C     C_R   0.636086 0.061214 0.466732 -0.211764
C26   C     C_R   0.499196 0.120301 0.492793 -0.150573
C27   C     C_R   0.798718 0.684457 0.608965 -0.197189
C28   C     C_R   0.839839 0.775522 0.661311 -0.220997
C29   C     C_R   0.977545 0.770951 0.664310 -0.205447
C30   C     C_R   0.075333 0.676295 0.613989 -0.169918
C31   C     C_R   0.041102 0.588795 0.554779 0.190104
C32   C     C_R   0.897427 0.590787 0.553366 0.161613
C33   C     C_R   0.958410 0.413818 0.448359 -0.101036
C34   C     C_R   0.591742 0.499242 0.324040 0.926235
C35   C     C_R   0.101748 0.414276 0.448017 -0.109715
C36   C     C_R   0.351490 0.512477 0.777042 -0.059205
C37   C     C_R   0.650760 0.500306 0.222495 -0.203942
C38   C     C_R   0.197127 0.624333 0.917263 -0.207452
C39   C     C_R   0.225291 0.583327 0.825919 -0.218127
C40   C     C_R   0.441892 0.475797 0.821878 -0.270983
H1    H     H_    0.176958 0.704050 0.085314 0.157802
H2    H     H_    0.953146 0.428391 0.031102 0.174775
H3    H     H_    0.085785 0.874384 0.419225 0.169914
H4    H     H_    0.017541 0.071830 0.518416 0.164643
H5    H     H_    0.197338 0.181574 0.564394 0.176313
H6    H     H_    0.730722 0.114638 0.465472 0.172822
H7    H     H_    0.929047 0.343364 0.406246 0.168908
H8    H     H_    0.686583 0.686275 0.618740 0.216107
H9    H     H_    0.761899 0.846343 0.703273 0.158122
H10   H     H_    0.444161 0.552641 0.222522 0.218887
H11   H     H_    0.007080 0.838326 0.708347 0.155296
H12   H     H_    0.174594 0.671591 0.625436 0.198286
H13   H     H_    0.180114 0.344207 0.405563 0.158972
H14   H     H_    0.901806 0.442274 0.892907 0.158233
H15   H     H_    0.098214 0.677895 0.955284 0.144198
H16   H     H_    0.152219 0.610927 0.792735 0.144867
H17   H     H_    0.523745 0.404967 0.787608 0.175752
H18   H     H_    0.348079 0.668179 0.155767 0.181373
N1    N     N_R   0.856800 0.501200 0.500850 -0.121267
N2    N     N_R   0.142390 0.501280 0.500880 -0.109892
O1    O     O_R   0.385310 0.683220 0.500000 -0.592735
O2    O     O_R   0.614640 0.683250 0.500010 -0.662605
O3    O     O_R   0.319840 0.499980 0.632240 -0.639576
O4    O     O_R   0.549160 0.500000 0.632250 -0.627289
O5    O     O_R   0.385360 0.316750 0.499990 -0.627894
O6    O     O_R   0.614690 0.316780 0.500000 -0.617761
O7    O     O_R   0.450840 0.500000 0.367750 -0.582666
O8    O     O_R   0.680160 0.500020 0.367760 -0.564791
Zn1   Zn    Zn3+2 0.346880 0.499980 0.499990 0.958774
Zn2   Zn    Zn3+2 0.653120 0.500020 0.500010 0.944056
C41   C     C_3   0.805775 0.876019 0.402293 -0.387623
C42   C     C_3   0.910568 0.947609 0.319373 -0.867282
H19   H     H_    0.861581 0.959534 0.266622 0.275477
H20   H     H_    0.937690 0.042293 0.341976 0.255940
H21   H     H_    0.013661 0.892751 0.286156 0.254343
H22   H     H_    0.846488 0.876522 0.459545 0.206585
H23   H     H_    0.804882 0.776505 0.376636 0.243313
F1    F     F_    0.335874 0.762493 0.361282 -0.687632
F2    F     F_    0.891107 0.436708 0.208605 -0.666386
C43   C     C_3   0.767133 0.489886 0.783353 -0.406037
C44   C     C_3   0.812380 0.356423 0.739867 -0.868541
H24   H     H_    0.907229 0.322276 0.754189 0.250241
H25   H     H_    0.722134 0.287450 0.767964 0.254970
H26   H     H_    0.844828 0.358777 0.663322 0.254064
H27   H     H_    0.701573 0.538824 0.751240 0.227173
H28   H     H_    0.867473 0.548202 0.765119 0.215592

loop_
_geom_bond_atom_site_label_1
_geom_bond_atom_site_label_2
_ccdc_geom_bond_type
C27   H8    S    
C8    C9    A    
C16   C21   A    
C35   H13   S    
C34   C37   S    
C6    H18   S    
C19   C20   A    
C4    C8    A    
C1    O2    A    
C44   H24   S    
C29   C30   A    
C23   O6    A    
C28   C29   A    
C5    C11   A    
C3    C7    A    
C5    C6    A    
C12   O4    A    
C23   C26   S    
O2    Zn2   S    
C18   C19   A    
C15   H10   S    
C15   C37   A    
C43   H28   S    
C11   C15   A    
C38   H15   S    
O3    Zn1   S    
C3    C38   A    
C16   C17   A    
O4    Zn2   S    
C12   C36   S    
C9    C10   A    
C1    C22   S    
C33   N1    A    
C21   C22   A    
C42   H21   S    
C13   H2    S    
C44   H25   S    
C38   C39   A    
C36   C40   A    
C24   C25   A    
C42   H20   S    
C34   O8    A    
C12   O3    A    
C42   H19   S    
C25   C26   A    
C35   N2    A    
O7    Zn1   S    
C31   N2    A    
C2    C4    A    
C17   H3    S    
C43   H27   S    
C18   H4    S    
C28   H9    S    
C31   C32   A    
C30   C31   A    
C17   C18   A    
C39   H16   S    
C14   F2    S    
C33   H7    S    
C22   C24   A    
C41   H22   S    
C41   H23   S    
C44   H26   S    
C29   H11   S    
O1    Zn1   S    
C30   H12   S    
C40   H17   S    
C27   C32   A    
C36   C39   A    
C43   C44   S    
C10   C13   A    
C1    O1    A    
C34   O7    A    
C19   H5    S    
C6    C7    A    
C23   O5    A    
C2    C3    A    
C41   C42   S    
C14   C37   A    
O6    Zn2   S    
C20   C26   A    
N2    Zn1   S    
O5    Zn1   S    
C33   C35   A    
C16   F1    S    
C7    H1    S    
C10   C11   A    
N1    Zn2   S    
C2    C40   A    
C4    C5    A    
C20   C21   A    
O8    Zn2   S    
C27   C28   A    
C8    C43   S    
C9    H14   S    
C32   N1    A    
C13   C14   A    
C25   H6    S    
C24   C41   S    
