data_mof_unit_42535.cif
_audit_creation_date              2012-12-11T14:28:28-0500
_audit_creation_method            fapswitch 2.2
_symmetry_space_group_name_H-M    P1
_symmetry_Int_Tables_number       1
_space_group_crystal_system       triclinic
_cell_length_a                    11.012082
_cell_length_b                    19.360219
_cell_length_c                    18.798603
_cell_angle_alpha                 89.860134
_cell_angle_beta                  90.82301
_cell_angle_gamma                 90.515397
_cell_volume                      4007.20666248

loop_
_atom_site_label
_atom_site_type_symbol
_atom_type_description
_atom_site_fract_x
_atom_site_fract_y
_atom_site_fract_z
_atom_type_partial_charge
C1    C     C_R   0.318446 0.961781 0.643484 0.530365
C2    C     C_3   0.203255 0.749865 0.047711 -0.175781
C3    C     C_3   0.080974 0.198401 0.962715 0.275541
C4    C     C_3   0.613880 0.305696 0.466234 0.270057
C5    C     C_3   0.540087 0.308677 0.026437 0.281673
C6    C     C_3   0.549307 0.690984 0.531503 0.283186
C7    C     C_3   0.580974 0.698401 0.962715 0.275541
C8    C     C_3   0.203781 0.764960 0.513724 -0.096906
C9    C     C_3   0.172330 0.814037 0.001579 -0.211262
C10   C     C_3   0.180946 0.192194 0.505101 -0.218482
C11   C     C_3   0.200703 0.225129 0.996499 -0.129898
C12   C     C_3   0.703781 0.264960 0.513724 -0.096906
C13   C     C_3   0.203912 0.259727 0.547302 -0.158394
C14   C     C_3   0.672330 0.314037 0.001579 -0.211262
C15   C     C_3   0.680946 0.692194 0.505101 -0.218482
C16   C     C_3   0.700703 0.725129 0.996499 -0.129898
C17   C     C_3   0.100246 0.752429 0.567566 0.031040
C18   C     C_3   0.140326 0.764889 0.938947 0.019217
C19   C     C_3   0.139022 0.236421 0.440013 0.006323
C20   C     C_3   0.129492 0.243088 0.063638 0.039819
C21   C     C_3   0.600245 0.252429 0.567566 0.031040
C22   C     C_3   0.640326 0.264889 0.938947 0.019217
C23   C     C_3   0.639022 0.736421 0.440013 0.006323
C24   C     C_3   0.172514 0.298503 0.966706 -0.089464
C25   C     C_3   0.629492 0.743088 0.063638 0.039819
C26   C     C_3   0.013727 0.793147 0.519921 0.237211
C27   C     C_3   0.008896 0.761574 0.963114 0.257139
C28   C     C_3   0.008468 0.233698 0.466474 0.252337
C29   C     C_3   0.012145 0.216520 0.030211 0.239160
C30   C     C_3   0.513727 0.293147 0.519921 0.237211
C31   C     C_3   0.508895 0.261574 0.963114 0.257139
C32   C     C_3   0.508468 0.733698 0.466474 0.252337
C33   C     C_3   0.512145 0.716520 0.030211 0.239160
C34   C     C_3   0.975350 0.726598 0.482365 -0.143153
C35   C     C_3   0.665524 0.196868 0.475366 -0.092664
C36   C     C_3   0.037541 0.697179 0.007609 -0.099386
C37   C     C_3   0.030056 0.301203 0.507545 -0.103606
C38   C     C_3   0.983804 0.288847 0.001633 -0.166105
C39   C     C_3   0.475350 0.226598 0.482365 -0.143153
C40   C     C_3   0.537541 0.197179 0.007609 -0.099386
C41   C     C_3   0.530056 0.801203 0.507545 -0.103606
C42   C     C_3   0.483804 0.788847 0.001633 -0.166105
C43   C     C_3   0.063785 0.685023 0.529829 -0.169732
C44   C     C_3   0.171040 0.701130 0.984291 -0.127474
C45   C     C_3   0.162421 0.303599 0.482147 -0.115496
C46   C     C_3   0.703255 0.249865 0.047711 -0.175781
C47   C     C_3   0.103463 0.316165 0.034832 -0.135873
C48   C     C_3   0.563785 0.185023 0.529829 -0.169732
C49   C     C_3   0.671040 0.201130 0.984291 -0.127474
C50   C     C_3   0.662421 0.803599 0.482147 -0.115496
C51   C     C_3   0.603463 0.816165 0.034832 -0.135873
C52   C     C_3   0.240207 0.863583 0.389196 -0.082550
C53   C     C_3   0.034573 0.897811 0.107989 -0.076039
C54   C     C_3   0.059453 0.105776 0.618604 -0.077614
C55   C     C_3   0.157956 0.133938 0.870829 -0.072195
C56   C     C_3   0.740207 0.363583 0.389196 -0.082550
C57   C     C_3   0.703912 0.759727 0.547302 -0.158394
C58   C     C_3   0.534572 0.397811 0.107989 -0.076039
C59   C     C_3   0.559453 0.605776 0.618604 -0.077614
C60   C     C_3   0.657956 0.633938 0.870829 -0.072195
C61   C     C_3   0.672514 0.798504 0.966706 -0.089464
C62   C     C_3   0.076689 0.739711 0.429031 0.029915
C63   C     C_3   0.071207 0.745131 0.070475 0.024436
C64   C     C_3   0.072736 0.257350 0.571565 0.026924
C65   C     C_R   0.319036 0.964655 0.854963 0.518316
C66   C     C_3   0.052427 0.270085 0.934199 0.020701
C67   C     C_3   0.576689 0.239711 0.429031 0.029915
C68   C     C_3   0.571207 0.245131 0.070475 0.024436
C69   C     C_3   0.572736 0.757350 0.571565 0.026924
C70   C     C_3   0.552427 0.770085 0.934199 0.020701
C71   C     C_R   0.322750 0.028449 0.432072 -0.032010
C72   C     C_R   0.320563 0.036966 0.064951 -0.046900
C73   C     C_R   0.321863 0.984285 0.570946 -0.045030
C74   C     C_R   0.320264 0.993359 0.925206 -0.033121
C75   C     C_R   0.822750 0.528449 0.432072 -0.032010
C76   C     C_R   0.317697 0.056390 0.361653 0.523082
C77   C     C_R   0.820563 0.536966 0.064951 -0.046900
C78   C     C_R   0.821863 0.484285 0.570946 -0.045030
C79   C     C_R   0.820264 0.493359 0.925206 -0.033121
C80   C     C_R   0.544546 0.996561 0.429814 -0.079230
C81   C     C_R   0.543534 0.005008 0.067757 -0.080596
C82   C     C_R   0.545713 0.008892 0.576367 -0.085943
C83   C     C_R   0.540852 0.021593 0.921385 -0.075393
C84   C     C_R   0.044546 0.496561 0.429814 -0.079230
C85   C     C_R   0.043534 0.505008 0.067757 -0.080596
C86   C     C_R   0.045713 0.508892 0.576367 -0.085943
C87   C     C_R   0.316109 0.059858 0.138079 0.524425
C88   C     C_R   0.040852 0.521593 0.921385 -0.075393
C89   C     C_R   0.653963 0.995656 0.467599 -0.141644
C90   C     C_R   0.651542 0.003208 0.030400 -0.140391
C91   C     C_R   0.654742 0.007368 0.540411 -0.118095
C92   C     C_R   0.651021 0.016778 0.957816 -0.132723
C93   C     C_R   0.153963 0.495656 0.467599 -0.141644
C94   C     C_R   0.151542 0.503208 0.030400 -0.140391
C95   C     C_R   0.154742 0.507368 0.540411 -0.118095
C96   C     C_R   0.151021 0.516778 0.957816 -0.132723
C97   C     C_R   0.433692 0.001449 0.538965 -0.019069
C98   C     C_R   0.818446 0.461781 0.643484 0.530365
C99   C     C_R   0.430550 0.013042 0.958123 -0.014129
C100  C     C_R   0.433789 0.008493 0.465248 -0.009029
C101  C     C_R   0.431686 0.018373 0.032074 -0.006995
C102  C     C_R   0.933692 0.501449 0.538965 -0.019069
C103  C     C_R   0.930550 0.513042 0.958123 -0.014129
C104  C     C_R   0.933789 0.508493 0.465248 -0.009029
C105  C     C_R   0.931686 0.518373 0.032074 -0.006995
C106  C     C_R   0.211688 0.983850 0.529923 0.003709
C107  C     C_R   0.208631 0.995912 0.963487 0.009850
C108  C     C_R   0.211218 0.022219 0.468644 0.014024
C109  C     C_R   0.819036 0.464655 0.854963 0.518317
C110  C     C_R   0.209505 0.033565 0.025493 -0.026392
C111  C     C_R   0.711688 0.483850 0.529923 0.003709
C112  C     C_R   0.708631 0.495912 0.963487 0.009850
C113  C     C_R   0.711218 0.522219 0.468644 0.014024
C114  C     C_R   0.709505 0.533565 0.025493 -0.026392
C115  C     C_R   0.098788 0.954257 0.550571 -0.018826
C116  C     C_R   0.095466 0.963547 0.943082 -0.055747
C117  C     C_R   0.098225 0.050781 0.445444 -0.045112
C118  C     C_R   0.096503 0.058095 0.049673 -0.049758
C119  C     C_R   0.598788 0.454257 0.550571 -0.018826
C120  C     C_R   0.817697 0.556389 0.361653 0.523082
C121  C     C_R   0.595466 0.463547 0.943082 -0.055747
C122  C     C_R   0.598225 0.550781 0.445444 -0.045112
C123  C     C_R   0.596503 0.558095 0.049673 -0.049758
C124  C     C_R   0.989130 0.978344 0.523293 -0.075297
C125  C     C_R   0.986142 0.984272 0.970206 -0.067830
C126  C     C_R   0.988757 0.027535 0.470862 -0.063032
C127  C     C_R   0.986700 0.033006 0.022929 -0.067661
C128  C     C_R   0.489130 0.478343 0.523293 -0.075297
C129  C     C_R   0.486142 0.484272 0.970206 -0.067830
C130  C     C_R   0.488757 0.527535 0.470862 -0.063032
C131  C     C_R   0.816109 0.559858 0.138079 0.524425
C132  C     C_R   0.486700 0.533006 0.022929 -0.067661
C133  C     C_R   0.134497 0.758352 0.643046 0.555836
C134  C     C_R   0.178537 0.770197 0.864044 0.552344
C135  C     C_R   0.177050 0.230339 0.364625 0.548080
C136  C     C_R   0.175004 0.231247 0.135926 0.554478
C137  C     C_R   0.634497 0.258352 0.643046 0.555836
C138  C     C_R   0.678537 0.270197 0.864044 0.552344
C139  C     C_R   0.677050 0.730339 0.364625 0.548080
C140  C     C_R   0.675004 0.731247 0.135926 0.554478
C141  C     C_R   0.535971 0.772604 0.643038 0.544300
C142  C     C_3   0.165524 0.696868 0.475366 -0.092664
C143  C     C_R   0.505684 0.785188 0.863032 0.537710
C144  C     C_R   0.543362 0.229397 0.354817 0.546074
C145  C     C_R   0.535493 0.227876 0.142681 0.531017
C146  C     C_R   0.035971 0.272604 0.643038 0.544300
C147  C     C_R   0.005684 0.285187 0.863032 0.537710
C148  C     C_R   0.043362 0.729397 0.354817 0.546074
C149  C     C_R   0.035493 0.727876 0.142681 0.531017
C150  C     C_3   0.113880 0.805696 0.466234 0.270057
C151  C     C_3   0.040087 0.808677 0.026437 0.281673
C152  C     C_3   0.049307 0.190984 0.531503 0.283186
Cr1   Cr    Cr6+3 0.488160 0.884660 0.750000 0.996557
Cr2   Cr    Cr6+3 0.333410 0.272740 0.250000 1.022408
Cr3   Cr    Cr6+3 0.833410 0.227260 0.750000 1.031575
Cr4   Cr    Cr6+3 0.833410 0.772740 0.250000 1.022408
Cr5   Cr    Cr6+3 0.488160 0.115340 0.250000 0.996140
Cr6   Cr    Cr6+3 0.988160 0.384660 0.750000 0.996557
Cr7   Cr    Cr6+3 0.988160 0.615340 0.250000 0.996140
Cr8   Cr    Cr6+3 0.173480 0.883120 0.750000 0.990363
Cr9   Cr    Cr6+3 0.173480 0.116880 0.250000 1.005147
Cr10  Cr    Cr6+3 0.673480 0.383120 0.750000 0.990363
Cr11  Cr    Cr6+3 0.673480 0.616880 0.250000 1.005147
Cr12  Cr    Cr6+3 0.333410 0.727260 0.750000 1.031575
H1    H     H_    0.295479 0.781802 0.530837 0.135771
H2    H     H_    0.902810 0.958628 0.953855 0.114714
H3    H     H_    0.905245 0.050780 0.452488 0.104287
H4    H     H_    0.903296 0.046876 0.047654 0.115729
H5    H     H_    0.404912 0.461541 0.545839 0.133846
H6    H     H_    0.402810 0.458628 0.953855 0.114714
H7    H     H_    0.405244 0.550780 0.452488 0.104287
H8    H     H_    0.403295 0.546876 0.047654 0.115729
H9    H     H_    0.887383 0.711137 0.459846 0.106057
H10   H     H_    0.980672 0.650179 0.011125 0.114797
H11   H     H_    0.970624 0.346935 0.511217 0.108035
H12   H     H_    0.225408 0.862478 0.998948 0.095616
H13   H     H_    0.902512 0.320398 0.002430 0.104855
H14   H     H_    0.387383 0.211137 0.459846 0.106057
H15   H     H_    0.480672 0.150179 0.011125 0.114797
H16   H     H_    0.470624 0.846935 0.511217 0.108035
H17   H     H_    0.402511 0.820398 0.002430 0.104855
H18   H     H_    0.037733 0.638119 0.559087 0.137355
H19   H     H_    0.220258 0.656232 0.963068 0.142075
H20   H     H_    0.203720 0.351104 0.459869 0.139229
H21   H     H_    0.113310 0.364507 0.065825 0.155927
H22   H     H_    0.537733 0.138119 0.559087 0.137355
H23   H     H_    0.245042 0.148760 0.507038 0.091124
H24   H     H_    0.720258 0.156232 0.963068 0.142075
H25   H     H_    0.703720 0.851104 0.459869 0.139229
H26   H     H_    0.613310 0.864507 0.065825 0.155927
H27   H     H_    0.224190 0.654779 0.456271 0.176310
H28   H     H_    0.274588 0.750570 0.089605 0.196869
H29   H     H_    0.277348 0.266587 0.587476 0.195931
H30   H     H_    0.232252 0.337065 0.940836 0.176513
H31   H     H_    0.724190 0.154779 0.456271 0.176310
H32   H     H_    0.774588 0.250570 0.089605 0.196869
H33   H     H_    0.777348 0.766587 0.587476 0.195931
H34   H     H_    0.286441 0.196097 0.998607 0.128007
H35   H     H_    0.732252 0.837065 0.940836 0.176513
H36   H     H_    0.737390 0.987028 0.439749 0.101388
H37   H     H_    0.734569 0.990812 0.058400 0.116941
H38   H     H_    0.738559 0.014134 0.569922 0.125219
H39   H     H_    0.734819 0.020781 0.928954 0.111232
H40   H     H_    0.237390 0.487028 0.439749 0.101388
H41   H     H_    0.234569 0.490812 0.058400 0.116941
H42   H     H_    0.238559 0.514134 0.569922 0.125219
H43   H     H_    0.234819 0.520781 0.928954 0.111232
H44   H     H_    0.549397 0.984667 0.373990 0.153866
H45   H     H_    0.795479 0.281802 0.530837 0.135771
H46   H     H_    0.550641 0.990836 0.123032 0.155193
H47   H     H_    0.551396 0.019793 0.632580 0.140466
H48   H     H_    0.543251 0.031107 0.864760 0.142954
H49   H     H_    0.049397 0.484667 0.373990 0.153866
H50   H     H_    0.050641 0.490836 0.123032 0.155193
H51   H     H_    0.051396 0.519793 0.632580 0.140466
H52   H     H_    0.043251 0.531107 0.864760 0.142954
H53   H     H_    0.091781 0.093288 0.409470 0.150007
H54   H     H_    0.090312 0.095113 0.090755 0.207320
H55   H     H_    0.092039 0.912374 0.587461 0.214846
H56   H     H_    0.725408 0.362478 0.998948 0.095616
H57   H     H_    0.087627 0.918172 0.910466 0.161319
H58   H     H_    0.591781 0.593288 0.409470 0.150007
H59   H     H_    0.590312 0.595113 0.090755 0.207320
H60   H     H_    0.592039 0.412374 0.587461 0.214846
H61   H     H_    0.587627 0.418172 0.910466 0.161319
H62   H     H_    0.244263 0.815747 0.356760 0.150428
H63   H     H_    0.320998 0.867572 0.424822 0.134579
H64   H     H_    0.243266 0.907548 0.351459 0.166602
H65   H     H_    0.114962 0.923985 0.086032 0.131683
H66   H     H_    0.069889 0.864961 0.151451 0.136437
H67   H     H_    0.745042 0.648760 0.507038 0.091124
H68   H     H_    0.974857 0.936793 0.132256 0.137559
H69   H     H_    0.082754 0.140316 0.663327 0.125126
H70   H     H_    0.146934 0.088429 0.597984 0.111670
H71   H     H_    0.010199 0.060983 0.641527 0.139832
H72   H     H_    0.247126 0.125141 0.897319 0.125638
H73   H     H_    0.165046 0.180693 0.836820 0.153532
H74   H     H_    0.138250 0.089553 0.835230 0.148943
H75   H     H_    0.744263 0.315747 0.356760 0.150428
H76   H     H_    0.820998 0.367573 0.424822 0.134579
H77   H     H_    0.743266 0.407548 0.351459 0.166602
H78   H     H_    0.786441 0.696097 0.998607 0.128007
H79   H     H_    0.614962 0.423985 0.086032 0.131683
H80   H     H_    0.569889 0.364961 0.151451 0.136437
H81   H     H_    0.474857 0.436793 0.132256 0.137559
H82   H     H_    0.582754 0.640316 0.663327 0.125126
H83   H     H_    0.646934 0.588429 0.597984 0.111670
H84   H     H_    0.510199 0.560983 0.641527 0.139832
H85   H     H_    0.747126 0.625141 0.897319 0.125638
H86   H     H_    0.665046 0.680693 0.836820 0.153532
H87   H     H_    0.638250 0.589553 0.835230 0.148943
H88   H     H_    0.890859 0.856528 0.498219 0.327406
H89   H     H_    0.904912 0.961541 0.545839 0.133846
H90   H     H_    0.919688 0.815167 0.894955 0.329678
H91   H     H_    0.919653 0.172903 0.404112 0.325888
H92   H     H_    0.878830 0.155117 0.030410 0.323422
H93   H     H_    0.390859 0.356528 0.498219 0.327406
H94   H     H_    0.419688 0.315167 0.894955 0.329678
H95   H     H_    0.419653 0.672903 0.404112 0.325888
H96   H     H_    0.378830 0.655117 0.030410 0.323422
O1    O     O_R   0.575450 0.828820 0.667950 -0.515161
O2    O     O_R   0.416860 0.942890 0.825320 -0.520916
O3    O     O_R   0.416860 0.057110 0.325320 -0.510428
O4    O     O_R   0.416860 0.057110 0.174680 -0.507625
O5    O     O_R   0.916860 0.442890 0.674680 -0.510163
O6    O     O_R   0.916860 0.442890 0.825320 -0.520916
O7    O     O_R   0.916860 0.557110 0.325320 -0.510428
O8    O     O_R   0.916860 0.557110 0.174680 -0.507625
O9    O     O_R   0.213790 0.953680 0.668330 -0.561165
O10   O     O_R   0.213790 0.953680 0.831670 -0.554299
O11   O     O_R   0.213790 0.046320 0.331670 -0.531231
O12   O     O_R   0.575450 0.828820 0.832050 -0.525503
O13   O     O_R   0.213790 0.046320 0.168330 -0.546963
O14   O     O_R   0.713790 0.453680 0.668330 -0.561165
O15   O     O_R   0.713790 0.453680 0.831670 -0.554299
O16   O     O_R   0.713790 0.546320 0.331670 -0.531231
O17   O     O_R   0.713790 0.546320 0.168330 -0.546963
O18   O     O_R   0.121360 0.817890 0.672660 -0.498722
O19   O     O_R   0.121360 0.817890 0.827340 -0.517040
O20   O     O_R   0.121360 0.182110 0.327340 -0.516135
O21   O     O_R   0.121360 0.182110 0.172660 -0.483642
O22   O     O_R   0.621360 0.317890 0.672660 -0.498722
O23   O     O_R   0.575450 0.171180 0.332050 -0.523830
O24   O     O_R   0.621360 0.317890 0.827340 -0.517040
O25   O     O_R   0.621360 0.682110 0.327340 -0.516135
O26   O     O_R   0.621360 0.682110 0.172660 -0.483642
O27   O     O_R   0.206850 0.711370 0.665820 -0.507841
O28   O     O_R   0.206850 0.711370 0.834180 -0.512259
O29   O     O_R   0.206850 0.288630 0.334180 -0.507169
O30   O     O_R   0.206850 0.288630 0.165820 -0.502753
O31   O     O_R   0.706850 0.211370 0.665820 -0.507841
O32   O     O_R   0.706850 0.211370 0.834180 -0.512259
O33   O     O_R   0.706850 0.788630 0.334180 -0.507169
O34   O     O_R   0.575450 0.171180 0.167950 -0.513501
O35   O     O_R   0.706850 0.788630 0.165820 -0.502753
O36   O     O_R   0.457710 0.733190 0.672630 -0.488719
O37   O     O_R   0.457710 0.733190 0.827370 -0.493242
O38   O     O_R   0.457710 0.266810 0.327370 -0.508369
O39   O     O_R   0.457710 0.266810 0.172630 -0.506489
O40   O     O_R   0.957710 0.233190 0.672630 -0.488719
O41   O     O_R   0.957710 0.233190 0.827370 -0.493242
O42   O     O_R   0.957710 0.766810 0.327370 -0.508369
O43   O     O_R   0.957710 0.766810 0.172630 -0.506489
O44   O     O_3   0.331690 0.831680 0.750000 -0.302814
O45   O     O_R   0.075450 0.328820 0.667950 -0.515161
O46   O     O_3   0.331690 0.168320 0.250000 -0.328211
O47   O     O_3   0.831690 0.331680 0.750000 -0.302814
O48   O     O_3   0.831690 0.668320 0.250000 -0.328211
O49   O     O_3   0.132815 0.867956 0.428805 -0.569886
O50   O     O_3   0.967966 0.861725 0.054377 -0.572629
O51   O     O_3   0.985651 0.136319 0.564702 -0.560848
O52   O     O_3   0.064109 0.138415 0.921092 -0.560070
O53   O     O_3   0.632815 0.367956 0.428805 -0.569886
O54   O     O_3   0.467966 0.361725 0.054377 -0.572629
O55   O     O_3   0.485651 0.636319 0.564702 -0.560848
O56   O     O_R   0.075450 0.328820 0.832050 -0.525503
O57   O     O_3   0.564109 0.638415 0.921092 -0.560070
O58   O     O_3   0.928790 0.839790 0.542913 -0.750265
O59   O     O_3   0.913031 0.767661 0.914342 -0.719219
O60   O     O_3   0.909654 0.220861 0.421072 -0.727378
O61   O     O_3   0.931862 0.175023 0.067573 -0.726194
O62   O     O_3   0.428790 0.339790 0.542913 -0.750265
O63   O     O_3   0.413031 0.267661 0.914342 -0.719219
O64   O     O_3   0.409654 0.720861 0.421072 -0.727378
O65   O     O_3   0.431862 0.675023 0.067573 -0.726194
O66   O     O_R   0.075450 0.671180 0.332050 -0.523830
O67   O     O_R   0.075450 0.671180 0.167950 -0.513501
O68   O     O_R   0.416860 0.942890 0.674680 -0.510163

loop_
_geom_bond_atom_site_label_1
_geom_bond_atom_site_label_2
_ccdc_geom_bond_type
C6    C32   S    
Cr6   O6    S    
C41   H16   S    
H95   O64   S    
C21   C137  S    
C110  C118  A    
Cr8   O19   S    
C27   O59   S    
C64   C152  S    
C29   O61   S    
C134  O19   A    
C28   O60   S    
C2    H28   S    
C72   C101  A    
C98   O5    A    
C121  H61   S    
C9    H12   S    
C116  H57   S    
C54   O51   S    
C6    O55   S    
C9    C151  S    
C113  C122  A    
C65   O2    A    
C134  O28   A    
C117  H53   S    
C59   H84   S    
C4    C12   S    
C117  C126  A    
Cr7   O48   S    
Cr5   O23   S    
C21   C48   S    
C57   H33   S    
C119  C128  A    
C120  O7    A    
C71   C108  A    
C7    C33   S    
C14   H56   S    
C140  O35   A    
Cr11  O16   S    
Cr2   O46   S    
C42   H17   S    
C11   C20   S    
C79   C109  S    
C135  O20   A    
C25   C140  S    
Cr8   O18   S    
C126  H3    S    
C123  H59   S    
Cr3   O40   S    
Cr7   O66   S    
C82   C91   A    
Cr5   O34   S    
C8    C150  S    
C55   O52   S    
C17   C43   S    
C18   C44   S    
C37   H11   S    
C52   H63   S    
C90   C92   A    
C130  H7    S    
C111  C113  A    
C55   H73   S    
C58   H80   S    
C135  O29   A    
C148  O66   A    
C92   H39   S    
Cr9   O13   S    
C22   C49   S    
C81   C90   A    
Cr5   O3    S    
Cr3   O47   S    
C137  O22   A    
C17   C133  S    
C107  C110  A    
C36   C44   S    
C37   C45   S    
C39   H14   S    
C41   C69   S    
C21   C30   S    
C16   C25   S    
C89   H36   S    
C7    O57   S    
C62   C150  S    
Cr12  O27   S    
C64   C146  S    
Cr9   O46   S    
C50   C57   S    
C141  O1    A    
C56   H76   S    
C58   H81   S    
C124  H89   S    
Cr9   O20   S    
C145  O39   A    
C46   H32   S    
C146  O40   A    
C8    C17   S    
C106  C115  A    
C13   C45   S    
Cr1   O44   S    
C49   H24   S    
C59   H82   S    
C84   C93   A    
C20   C47   S    
C3    C11   S    
C86   C95   A    
C122  H58   S    
C125  C127  A    
C43   C142  S    
C132  H8    S    
C19   C135  S    
C45   H20   S    
C16   H78   S    
C6    C69   S    
C147  O41   A    
C123  C132  A    
C3    O52   S    
C55   H72   S    
C61   H35   S    
C112  C114  A    
C81   C101  A    
C59   O55   S    
C70   C143  S    
Cr4   O33   S    
C33   C42   S    
C12   H45   S    
Cr12  O44   S    
C1    O9    A    
C40   C49   S    
C76   O11   A    
C80   C89   A    
C111  C119  A    
C77   C131  S    
C3    C29   S    
C50   H25   S    
C98   O14   A    
C74   C107  A    
C148  O42   A    
C146  O45   A    
C2    C44   S    
C149  O43   A    
C29   C38   S    
C32   C41   S    
C78   C111  A    
C75   C113  A    
C35   C67   S    
C89   C91   A    
Cr1   O1    S    
C53   H66   S    
C95   H42   S    
C26   O58   S    
Cr11  O26   S    
C128  H5    S    
C93   C95   A    
C38   H13   S    
C62   C148  S    
C79   C103  A    
Cr10  O47   S    
C62   C142  S    
Cr7   O67   S    
H96   O65   S    
C120  O16   A    
C129  H6    S    
H94   O63   S    
C141  O36   A    
Cr11  O17   S    
Cr7   O8    S    
C65   C74   S    
C46   C68   S    
C65   O10   A    
C24   H30   S    
Cr3   O41   S    
C144  O23   A    
H88   O58   S    
H93   O62   S    
C103  C105  A    
C20   C136  S    
C12   C35   S    
C19   C28   S    
C44   H19   S    
Cr12  O37   S    
C114  C123  A    
C52   H62   S    
C80   H44   S    
C116  C125  A    
C60   H85   S    
C84   C104  A    
C47   H21   S    
C16   C61   S    
C54   H70   S    
C86   C102  A    
C72   C87   S    
C2    C63   S    
C124  C126  A    
Cr4   O35   S    
C15   H67   S    
C108  C117  A    
C75   C120  S    
C83   H48   S    
C4    O53   S    
C19   C45   S    
C24   C66   S    
Cr2   O29   S    
C33   O65   S    
C32   O64   S    
C14   C22   S    
C11   H34   S    
C112  C121  A    
C136  O30   A    
C85   H50   S    
Cr10  O14   S    
C106  C108  A    
C28   C37   S    
C30   C39   S    
C18   C134  S    
C107  C116  A    
C91   H38   S    
C8    H1    S    
C53   H68   S    
C9    C18   S    
Cr2   O38   S    
C118  C127  A    
C138  O24   A    
C13   H29   S    
C87   O13   A    
C140  O26   A    
C2    C9    S    
C25   C33   S    
C61   C70   S    
C88   C96   A    
C36   H10   S    
Cr3   O32   S    
C78   C102  A    
Cr4   O42   S    
C97   C100  A    
C7    C70   S    
C14   C46   S    
C84   H49   S    
C46   C49   S    
Cr8   O9    S    
C30   O62   S    
C79   C112  A    
C145  O34   A    
C71   C76   S    
Cr9   O21   S    
C67   C144  S    
C69   C141  S    
C34   C62   S    
C31   C40   S    
Cr11  O48   S    
C138  O32   A    
C10   C152  S    
C52   H64   S    
C127  H4    S    
C118  H54   S    
C60   H87   S    
C58   O54   S    
H91   O60   S    
C35   H31   S    
C129  C132  A    
Cr3   O31   S    
C81   H46   S    
Cr6   O5    S    
C83   C99   A    
C5    C68   S    
C35   C48   S    
Cr12  O28   S    
C26   C150  S    
C96   H43   S    
C131  O8    A    
C133  O18   A    
Cr6   O56   S    
C40   H15   S    
C10   C19   S    
C53   O50   S    
C31   O63   S    
C136  O21   A    
Cr8   O44   S    
C63   C151  S    
C5    C14   S    
C7    C16   S    
Cr5   O46   S    
C75   C104  A    
C82   C97   A    
C3    C66   S    
C77   C114  A    
C41   C50   S    
Cr12  O36   S    
C37   C64   S    
C56   O53   S    
C143  O37   A    
C27   C151  S    
C115  C124  A    
C121  C129  A    
C23   C50   S    
C128  C130  A    
C74   C99   A    
Cr10  O24   S    
C27   C36   S    
C71   C100  A    
C22   C138  S    
C1    C73   S    
C23   C32   S    
C77   C105  A    
C34   H9    S    
C13   C64   S    
C119  H60   S    
C55   H74   S    
C58   H79   S    
C131  O17   A    
C1    O68   A    
Cr5   O4    S    
C40   C68   S    
C8    C142  S    
C68   C145  S    
C53   H65   S    
C39   C48   S    
C56   H77   S    
Cr11  O25   S    
C147  O56   A    
C56   H75   S    
C51   C61   S    
C42   C70   S    
Cr9   O11   S    
C73   C97   A    
C83   C92   A    
Cr4   O48   S    
C17   C26   S    
C23   C139  S    
Cr7   O7    S    
C11   C24   S    
C52   O49   S    
C139  O25   A    
C137  O31   A    
C93   H40   S    
C86   H51   S    
C63   C149  S    
C6    C15   S    
C26   C34   S    
C38   C66   S    
C133  O27   A    
C78   C98   S    
Cr6   O47   S    
Cr4   O43   S    
C36   C63   S    
C42   C51   S    
C90   H37   S    
C85   C94   A    
C15   C23   S    
C80   C100  A    
C152  O51   S    
C60   H86   S    
C15   C57   S    
C115  H55   S    
C94   H41   S    
C54   H71   S    
C85   C105  A    
C20   C29   S    
Cr10  O22   S    
C72   C110  A    
C22   C31   S    
C143  O12   A    
C139  O33   A    
C12   C21   S    
Cr2   O30   S    
C94   C96   A    
C25   C51   S    
C48   H22   S    
Cr10  O15   S    
C10   H23   S    
C66   C147  S    
C102  C104  A    
Cr1   O2    S    
C51   H26   S    
C38   C47   S    
C109  O15   A    
C5    O54   S    
C76   O3    A    
Cr2   O39   S    
C28   C152  S    
C150  O49   S    
C88   C103  A    
C82   H47   S    
C88   H52   S    
C99   C101  A    
C24   C47   S    
C39   C67   S    
C18   C27   S    
C109  O6    A    
C10   C13   S    
C4    C67   S    
C59   H83   S    
C43   H18   S    
Cr8   O10   S    
C125  H2    S    
Cr1   O68   S    
C73   C106  A    
C142  H27   S    
Cr6   O45   S    
H90   O59   S    
C149  O67   A    
Cr1   O12   S    
C144  O38   A    
H92   O61   S    
C151  O50   S    
C54   H69   S    
C57   C69   S    
C34   C43   S    
C87   O4    A    
C122  C130  A    
C4    C30   S    
C60   O57   S    
C5    C31   S    
