data_mof_unit_57566.cif
_audit_creation_date              2012-12-11T15:49:10-0500
_audit_creation_method            fapswitch 2.2
_symmetry_space_group_name_H-M    P1
_symmetry_Int_Tables_number       1
_space_group_crystal_system       triclinic
_cell_length_a                    21.630473
_cell_length_b                    7.181514
_cell_length_c                    14.898652
_cell_angle_alpha                 89.574677
_cell_angle_beta                  106.404043
_cell_angle_gamma                 89.890468
_cell_volume                      2220.06145844

loop_
_atom_site_label
_atom_site_type_symbol
_atom_type_description
_atom_site_fract_x
_atom_site_fract_y
_atom_site_fract_z
_atom_type_partial_charge
O1    O     O_R   0.335860 0.638190 0.002110 -0.541675
O2    O     O_R   0.664140 0.361810 0.997890 -0.541675
O3    O     O_R   0.164140 0.138190 0.997890 -0.543194
O4    O     O_R   0.835860 0.861810 0.002110 -0.543193
O5    O     O_R   0.217530 0.305920 0.861960 -0.534881
O6    O     O_R   0.782470 0.694080 0.138040 -0.534881
O7    O     O_R   0.282470 0.805920 0.138040 -0.534028
O8    O     O_R   0.717530 0.194080 0.861960 -0.534029
C1    C     C_R   0.205858 0.477605 0.825945 0.685761
C2    C     C_R   0.794142 0.522395 0.174055 0.685761
C3    C     C_R   0.294241 0.975876 0.174171 0.686024
C4    C     C_R   0.705758 0.024124 0.825829 0.686024
O9    O     O_R   0.338690 0.308320 0.993240 -0.544845
O10   O     O_R   0.661310 0.691680 0.006760 -0.544845
O11   O     O_R   0.161310 0.808320 0.006760 -0.543097
O12   O     O_R   0.838690 0.191680 0.993240 -0.543098
O13   O     O_R   0.286170 0.140430 0.130100 -0.534860
O14   O     O_R   0.713830 0.859570 0.869900 -0.534860
O15   O     O_R   0.213830 0.640430 0.869900 -0.533832
O16   O     O_R   0.786170 0.359570 0.130100 -0.533832
C5    C     C_R   0.364972 0.477128 0.997788 0.679209
C6    C     C_R   0.635028 0.522872 0.002212 0.679208
C7    C     C_R   0.135021 0.977334 0.002199 0.680454
C8    C     C_R   0.864978 0.022665 0.997801 0.680456
O17   O     O_3   0.232630 0.472410 0.044750 -0.372895
O18   O     O_3   0.767370 0.527590 0.955250 -0.372895
O19   O     O_3   0.267370 0.972410 0.955250 -0.372867
O20   O     O_3   0.732630 0.027590 0.044750 -0.372868
V1    V     V_3+5 0.253220 0.196620 0.991700 1.465059
V2    V     V_3+5 0.746780 0.803380 0.008300 1.465059
V3    V     V_3+5 0.246780 0.696620 0.008300 1.473465
V4    V     V_3+5 0.753220 0.303380 0.991700 1.473465
C9    C     C_R   0.030402 0.826491 0.005616 -0.127609
C10   C     C_R   0.969598 0.173509 0.994384 -0.127609
C11   C     C_R   0.470337 0.326281 0.996976 -0.136209
C12   C     C_R   0.529663 0.673718 0.003024 -0.136209
H1    H     H_    0.052621 0.690227 0.009871 0.124898
H2    H     H_    0.947379 0.309773 0.990129 0.124898
H3    H     H_    0.448723 0.189901 0.994861 0.122919
H4    H     H_    0.551276 0.810099 0.005138 0.122919
C13   C     C_R   0.965435 0.837742 0.004027 -0.130853
C14   C     C_R   0.034565 0.162257 0.995973 -0.130854
C15   C     C_R   0.535303 0.337778 0.998623 -0.119569
C16   C     C_R   0.464697 0.662222 0.001377 -0.119569
H5    H     H_    0.939931 0.709449 0.007389 0.124017
H6    H     H_    0.060069 0.290551 0.992611 0.124016
H7    H     H_    0.561401 0.209427 0.997435 0.124885
H8    H     H_    0.438599 0.790572 0.002565 0.124885
C17   C     C_R   0.934018 0.011436 0.998366 -0.041951
C18   C     C_R   0.065982 0.988564 0.001634 -0.041951
C19   C     C_R   0.565988 0.511691 0.001685 -0.041334
C20   C     C_R   0.434012 0.488309 0.998315 -0.041334
C21   C     C_R   0.678090 0.020861 0.724343 -0.047023
C22   C     C_R   0.321910 0.979139 0.275657 -0.047023
C23   C     C_R   0.822006 0.510577 0.275267 -0.044626
C24   C     C_R   0.177994 0.489423 0.724732 -0.044626
C25   C     C_R   0.688216 0.082319 0.569965 -0.074512
C26   C     C_R   0.311784 0.917686 0.430035 -0.074512
C27   C     C_R   0.810130 0.456543 0.429201 -0.073514
C28   C     C_R   0.189870 0.543461 0.570799 -0.073514
C29   C     C_R   0.715966 0.067036 0.665981 -0.136948
C30   C     C_R   0.284033 0.932969 0.334019 -0.136948
C31   C     C_R   0.782837 0.476586 0.333258 -0.137142
C32   C     C_R   0.217163 0.523417 0.666742 -0.137142
C33   C     C_R   0.612142 0.990106 0.686780 -0.176098
C34   C     C_R   0.387858 0.009890 0.313219 -0.176098
C35   C     C_R   0.888645 0.524321 0.312889 -0.176437
C36   C     C_R   0.111355 0.475678 0.687111 -0.176437
C37   C     C_R   0.581889 0.009401 0.589402 0.058222
C38   C     C_R   0.418111 0.990599 0.410597 0.058222
C39   C     C_R   0.918205 0.502646 0.410239 0.058076
C40   C     C_R   0.081795 0.497356 0.589761 0.058077
C41   C     C_R   0.621447 0.056105 0.530648 0.036441
C42   C     C_R   0.378553 0.943898 0.469352 0.036441
C43   C     C_R   0.877439 0.468312 0.468767 0.036345
C44   C     C_R   0.122561 0.531691 0.531234 0.036345
C45   C     C_R   0.513794 0.987445 0.549195 -0.004823
C46   C     C_R   0.486206 0.012555 0.450805 -0.004823
C47   C     C_R   0.986631 0.512377 0.450735 -0.005121
C48   C     C_R   0.013369 0.487624 0.549265 -0.005121
C49   C     C_R   0.527597 0.057887 0.395589 -0.195345
C50   C     C_R   0.472403 0.942116 0.604411 -0.195345
C51   C     C_R   0.970858 0.454344 0.604283 -0.195274
C52   C     C_R   0.029142 0.545660 0.395717 -0.195274
C53   C     C_R   0.593603 0.078705 0.434047 0.368487
C54   C     C_R   0.406397 0.921299 0.565953 0.368486
C55   C     C_R   0.904534 0.445069 0.565476 0.368323
C56   C     C_R   0.095466 0.554935 0.434524 0.368323
H9    H     H_    0.413997 0.042145 0.263468 0.097266
H10   H     H_    0.586004 0.957844 0.736531 0.097267
H11   H     H_    0.084436 0.450734 0.736663 0.095201
H12   H     H_    0.915564 0.549262 0.263336 0.095201
H13   H     H_    0.232980 0.906855 0.304988 0.166946
H14   H     H_    0.767020 0.093153 0.695012 0.166947
H15   H     H_    0.268883 0.535474 0.695893 0.161321
H16   H     H_    0.731117 0.464530 0.304107 0.161322
H17   H     H_    0.719496 0.118560 0.527331 0.191033
H18   H     H_    0.280503 0.881449 0.472670 0.191033
H19   H     H_    0.777924 0.430096 0.471693 0.190227
H20   H     H_    0.222076 0.569910 0.528307 0.190227
H21   H     H_    0.510456 0.079425 0.321207 0.158716
H22   H     H_    0.489544 0.920581 0.678793 0.158716
H23   H     H_    0.987291 0.434140 0.678803 0.158944
H24   H     H_    0.012709 0.565865 0.321198 0.158944
Cl1   Cl    Cl    0.639525 0.136161 0.356737 -0.694038
Cl2   Cl    Cl    0.360475 0.863847 0.643264 -0.694037
Cl3   Cl    Cl    0.857170 0.402590 0.642587 -0.697639
Cl4   Cl    Cl    0.142830 0.597417 0.357414 -0.697639

loop_
_geom_bond_atom_site_label_1
_geom_bond_atom_site_label_2
_ccdc_geom_bond_type
O17   V3    S    
C51   C55   A    
C26   C30   A    
O19   V1    S    
C27   H19   S    
C37   C45   A    
C26   H18   S    
C40   C44   A    
O15   V3    S    
C39   C47   A    
C49   H21   S    
C45   C46   A    
O1    C5    A    
C51   H23   S    
O9    V1    S    
C47   C52   A    
O4    C8    A    
C38   C46   A    
O1    V3    S    
C36   H11   S    
O13   V1    S    
O2    V4    S    
C14   H6    S    
C25   C41   A    
O3    V1    S    
O3    C7    A    
C38   C42   A    
C21   C29   A    
C1    O15   A    
C2    O16   A    
C10   C14   A    
C23   C31   A    
O2    C6    A    
C24   C32   A    
C37   C41   A    
O14   V2    S    
C21   C33   A    
C44   C56   A    
C4    C21   S    
C36   C40   A    
C16   C20   A    
O11   C7    A    
O12   C8    A    
C54   Cl2   S    
O10   V2    S    
C48   C51   A    
C53   Cl1   S    
C13   C17   A    
C34   H9    S    
O5    V1    S    
C33   H10   S    
O7    V3    S    
O8    V4    S    
C12   H4    S    
C29   H14   S    
C7    C18   S    
C22   C30   A    
C9    C18   A    
C50   C54   A    
C31   H16   S    
C28   C44   A    
C9    H1    S    
O7    C3    A    
O5    C1    A    
O8    C4    A    
C25   H17   S    
C50   H22   S    
O9    C5    A    
C1    C24   S    
C42   C54   A    
C25   C29   A    
C2    C23   S    
C3    C22   S    
C41   C53   A    
C12   C19   A    
C14   C18   A    
C22   C34   A    
C43   C55   A    
O6    V2    S    
C52   H24   S    
C12   C16   A    
C27   C43   A    
C11   C15   A    
C26   C42   A    
O16   V4    S    
C8    C17   S    
C3    O13   A    
C10   C17   A    
C10   H2    S    
C52   C56   A    
C32   H15   S    
C28   H20   S    
O6    C2    A    
C23   C35   A    
O11   V3    S    
O18   V4    S    
O12   V4    S    
C27   C31   A    
C28   C32   A    
C9    C13   A    
O10   C6    A    
O20   V2    S    
C40   C48   A    
C24   C36   A    
C39   C43   A    
C46   C49   A    
C15   C19   A    
C34   C38   A    
C45   C50   A    
C33   C37   A    
C11   H3    S    
C35   H12   S    
C35   C39   A    
O4    V2    S    
C47   C48   A    
C56   Cl4   S    
C55   Cl3   S    
C30   H13   S    
C4    O14   A    
C11   C20   A    
C13   H5    S    
C15   H7    S    
C5    C20   S    
C49   C53   A    
C16   H8    S    
C6    C19   S    
