data_mof_unit_40522.cif
_audit_creation_date              2012-12-10T16:50:14-0500
_audit_creation_method            fapswitch 2.2
_symmetry_space_group_name_H-M    P1
_symmetry_Int_Tables_number       1
_space_group_crystal_system       triclinic
_cell_length_a                    23.508866
_cell_length_b                    8.67324
_cell_length_c                    7.618716
_cell_angle_alpha                 102.813204
_cell_angle_beta                  95.805008
_cell_angle_gamma                 94.749327
_cell_volume                      1498.0981897

loop_
_atom_site_label
_atom_site_type_symbol
_atom_type_description
_atom_site_fract_x
_atom_site_fract_y
_atom_site_fract_z
_atom_type_partial_charge
C1    C     C_R   0.497629 0.200246 0.453571 0.870125
C2    C     C_R   0.502372 0.799755 0.546429 0.869539
C3    C     C_R   0.234429 0.523256 0.346152 0.465286
C4    C     C_R   0.755065 0.495586 0.333871 0.470602
C5    C     C_R   0.293612 0.517119 0.345276 -0.195514
C6    C     C_R   0.695957 0.498793 0.338557 -0.201860
C7    C     C_R   0.328852 0.507822 0.502067 -0.117414
C8    C     C_R   0.671201 0.493908 0.497929 -0.128972
C9    C     C_R   0.304144 0.507406 0.662289 -0.217947
C10   C     C_R   0.706463 0.482462 0.653472 -0.193770
C11   C     C_R   0.245246 0.512867 0.664839 -0.126776
C12   C     C_R   0.765451 0.478295 0.650401 -0.121686
C13   C     C_R   0.210031 0.519660 0.507984 0.255576
C14   C     C_R   0.790170 0.485402 0.492303 0.251117
C15   C     C_2   0.494420 0.031468 0.428860 -0.362783
C16   C     C_2   0.505581 0.968531 0.571139 -0.362387
C17   C     C_R   0.391269 0.501368 0.500134 0.806607
C18   C     C_R   0.608737 0.498930 0.499898 0.807584
C19   C     C_R   0.884185 0.633338 0.562019 0.529063
C20   C     C_R   0.116442 0.369609 0.451350 0.533027
C21   C     C_R   0.875239 0.353448 0.437754 0.538162
C22   C     C_R   0.125351 0.649464 0.575611 0.548328
C23   C     C_R   0.934940 0.355937 0.439450 -0.057370
C24   C     C_R   0.065757 0.646326 0.577546 -0.056835
C25   C     C_R   0.970231 0.500570 0.507736 -0.031319
C26   C     C_R   0.030475 0.501624 0.509632 -0.031999
C27   C     C_R   0.945179 0.643551 0.572800 -0.075869
C28   C     C_R   0.055519 0.358747 0.444020 -0.076695
C29   C     C_R   0.959263 0.215747 0.373448 -0.150060
C30   C     C_R   0.041479 0.786225 0.645128 -0.148626
C31   C     C_R   0.018960 0.212764 0.373830 0.103502
C32   C     C_R   0.981778 0.789241 0.644568 0.103735
Cu1   Cu    Cu3+1 0.506340 0.517380 0.684380 0.934388
Cu2   Cu    Cu3+1 0.493660 0.482620 0.315620 0.933118
H1    H     H_    0.930708 0.107588 0.321987 0.203576
H2    H     H_    0.070044 0.894324 0.696909 0.203481
H3    H     H_    0.311906 0.520789 0.221336 0.167857
H4    H     H_    0.669494 0.506772 0.216800 0.171659
H5    H     H_    0.330192 0.501483 0.785624 0.171533
H6    H     H_    0.688585 0.476093 0.777380 0.183545
H7    H     H_    0.226647 0.509391 0.788480 0.191952
H8    H     H_    0.792296 0.471097 0.771900 0.181713
H9    H     H_    0.481875 0.958780 0.292812 0.165100
H10   H     H_    0.518126 0.041219 0.707187 0.165248
N1    N     N_R   0.851471 0.490460 0.497483 -0.467930
N2    N     N_R   0.149011 0.513142 0.511789 -0.467425
N3    N     N_2   0.484110 0.456420 0.038520 -0.074398
N4    N     N_2   0.515890 0.543580 0.961480 -0.074811
O1    O     O_R   0.504120 0.286130 0.619770 -0.609201
O2    O     O_R   0.495880 0.713870 0.380230 -0.608988
O3    O     O_R   0.493410 0.256770 0.308360 -0.587696
O4    O     O_R   0.506590 0.743230 0.691640 -0.588077
O5    O     O_R   0.423230 0.514630 0.655730 -0.602134
O6    O     O_R   0.576770 0.485370 0.344270 -0.605221
O7    O     O_R   0.412530 0.485280 0.344320 -0.581710
O8    O     O_R   0.587470 0.514720 0.655680 -0.578309
O9    O     O_2   0.856910 0.763558 0.613359 -0.545194
O10   O     O_2   0.143785 0.239573 0.399709 -0.542339
O11   O     O_2   0.840895 0.215228 0.375987 -0.521987
O12   O     O_2   0.159631 0.787910 0.636225 -0.522956
C33   C     C_3   0.043238 0.054816 0.303672 -0.317915
C34   C     C_3   0.000036 0.908099 0.221946 -0.882363
H11   H     H_    0.973468 0.878813 0.324291 0.261292
H12   H     H_    0.971715 0.927751 0.105740 0.260454
H13   H     H_    0.023584 0.804251 0.172521 0.261387
H14   H     H_    0.070124 0.068666 0.195597 0.245168
H15   H     H_    0.070776 0.026401 0.417011 0.247567
C35   C     C_3   0.957520 0.947116 0.715233 -0.321422
C36   C     C_3   0.000741 0.093605 0.797806 -0.876215
H16   H     H_    0.029109 0.073237 0.913462 0.260467
H17   H     H_    0.027246 0.123591 0.695602 0.262299
H18   H     H_    0.977218 0.197274 0.848177 0.261150
H19   H     H_    0.930191 0.976240 0.601939 0.248077
H20   H     H_    0.930437 0.932697 0.822701 0.243689
O13   O     O_3   0.202364 0.531688 0.186964 -0.732477
H21   H     H_    0.161900 0.542809 0.207939 0.330404
O14   O     O_3   0.776457 0.504781 0.173737 -0.738812
H22   H     H_    0.818711 0.504039 0.189078 0.331280
C37   C     C_3   0.451601 0.309628 0.930727 -0.057357
C38   C     C_3   0.395331 0.267937 0.001872 -0.812630
H23   H     H_    0.402210 0.225746 0.128061 0.273942
H24   H     H_    0.369846 0.371036 0.020914 0.242794
H25   H     H_    0.369344 0.168710 0.900171 0.213230
H26   H     H_    0.436146 0.319210 0.795498 0.214097
H27   H     H_    0.478486 0.210100 0.926220 0.155465
C39   C     C_3   0.548429 0.690342 0.069247 -0.061919
C40   C     C_3   0.604669 0.732054 0.997883 -0.804817
H28   H     H_    0.630092 0.628830 0.978014 0.247992
H29   H     H_    0.597736 0.774744 0.872036 0.272703
H30   H     H_    0.630768 0.830924 0.099773 0.213641
H31   H     H_    0.521546 0.789884 0.073871 0.155829
H32   H     H_    0.563900 0.680752 0.204467 0.213835

loop_
_geom_bond_atom_site_label_1
_geom_bond_atom_site_label_2
_ccdc_geom_bond_type
C40   H28   S    
C5    H3    S    
C31   C33   S    
N3    C37   S    
O14   H22   S    
C19   O9    S    
Cu1   O4    S    
Cu2   O3    S    
C23   C29   A    
C24   C26   A    
C21   O11   S    
C39   H31   S    
C22   O12   S    
C37   H26   S    
Cu1   O1    S    
C15   C16   D    
C9    H5    S    
C10   H6    S    
C36   H17   S    
C12   H8    S    
C2    O2    A    
C33   H14   S    
C35   C36   S    
C7    C17   S    
C34   H12   S    
C6    H4    S    
C1    C15   S    
C2    C16   S    
C17   O7    A    
C3    C13   A    
C18   O8    A    
C32   C35   S    
Cu1   O8    S    
Cu2   O7    S    
C33   C34   S    
C38   H25   S    
C10   C12   A    
C19   C27   A    
C14   N1    S    
C21   N1    A    
Cu1   O5    S    
Cu2   O2    S    
C38   H24   S    
C5    C7    A    
C39   C40   S    
C6    C8    A    
C20   C28   A    
C35   H19   S    
C8    C18   S    
C36   H18   S    
O13   H21   S    
C34   H11   S    
C9    C11   A    
C33   H15   S    
N3    N4    D    
Cu1   Cu2   S    
C1    O3    A    
C2    O4    A    
C4    C6    A    
C22   N2    A    
C12   C14   A    
Cu2   O6    S    
C40   H29   S    
C22   C24   A    
C20   O10   S    
C17   O5    A    
C37   H27   S    
C3    O13   S    
C7    C9    A    
C16   H10   S    
C34   H13   S    
C27   C32   A    
C28   C31   A    
C38   H23   S    
C3    C5    A    
C19   N1    A    
C25   C27   A    
C29   H1    S    
C26   C28   A    
C30   H2    S    
C21   C23   A    
C25   C26   A    
C15   H9    S    
C4    O14   S    
C29   C31   A    
C39   H32   S    
C30   C32   A    
C11   C13   A    
C13   N2    S    
C1    O1    A    
C11   H7    S    
N4    C39   S    
C23   C25   A    
C4    C14   A    
C36   H16   S    
C24   C30   A    
C18   O6    A    
C37   C38   S    
C8    C10   A    
C40   H30   S    
Cu1   N4    S    
Cu2   N3    S    
C35   H20   S    
C20   N2    A    
