data_mof_unit_42259.cif
_audit_creation_date              2012-12-10T17:43:32-0500
_audit_creation_method            fapswitch 2.2
_symmetry_space_group_name_H-M    P1
_symmetry_Int_Tables_number       1
_space_group_crystal_system       triclinic
_cell_length_a                    14.952954
_cell_length_b                    10.701394
_cell_length_c                    9.938487
_cell_angle_alpha                 90.516458
_cell_angle_beta                  89.826058
_cell_angle_gamma                 92.707133
_cell_volume                      1588.48660474

loop_
_atom_site_label
_atom_site_type_symbol
_atom_type_description
_atom_site_fract_x
_atom_site_fract_y
_atom_site_fract_z
_atom_type_partial_charge
C1    C     C_R   0.507030 0.261017 0.499584 0.844901
C2    C     C_R   0.183221 0.427069 0.402200 -0.220778
C3    C     C_R   0.231147 0.493151 0.502248 -0.053808
C4    C     C_R   0.326932 0.497830 0.500279 0.843683
C5    C     C_R   0.187805 0.551934 0.607746 -0.244851
C6    C     C_R   0.578591 0.123318 0.728333 -0.171973
C7    C     C_R   0.576905 0.068046 0.855029 0.040091
C8    C     C_R   0.531003 0.953250 0.872350 -0.128485
C9    C     C_R   0.493404 0.889969 0.761466 -0.138448
C10   C     C_R   0.501786 0.940187 0.629773 0.075452
C11   C     C_R   0.532664 0.064662 0.618305 0.063629
C12   C     C_R   0.909681 0.564578 0.604760 -0.027464
C13   C     C_R   0.512279 0.127916 0.499182 -0.099918
C14   C     C_R   0.478087 0.063990 0.386198 -0.233185
C15   C     C_R   0.463337 0.936767 0.388888 0.002998
C16   C     C_R   0.491169 0.739080 0.501886 0.954416
C17   C     C_R   0.480278 0.872634 0.508652 -0.197389
C18   C     C_R   0.381321 0.335601 0.139192 -0.142935
C19   C     C_R   0.323285 0.253610 0.068661 -0.202651
C20   C     C_R   0.323211 0.253532 0.929272 -0.168478
C21   C     C_R   0.381265 0.335306 0.859496 -0.124299
C22   C     C_R   0.441189 0.419346 0.927522 0.135733
C23   C     C_R   0.948105 0.348935 0.310294 0.384911
C24   C     C_R   0.440855 0.419872 0.071991 0.094755
C25   C     C_R   0.559193 0.575032 0.068566 0.429876
C26   C     C_R   0.555756 0.576299 0.926614 -0.176152
C27   C     C_R   0.673147 0.503595 0.499714 1.006226
C28   C     C_R   0.819079 0.587264 0.584587 0.373701
C29   C     C_R   0.769263 0.505871 0.498959 -0.193221
C30   C     C_R   0.810626 0.423317 0.412344 -0.190130
C31   C     C_R   0.903390 0.419901 0.408805 -0.005320
C32   C     C_R   0.952864 0.489154 0.508178 -0.041272
C33   C     C_1   0.616877 0.133135 0.968913 0.216590
C34   C     C_R   0.041530 0.352880 0.308803 -0.288773
C35   C     C_1   0.425688 0.876507 0.269393 0.216095
C36   C     C_1   0.918669 0.661219 0.836873 0.342695
C37   C     C_R   0.090290 0.421452 0.406128 0.052690
C38   C     C_R   0.046002 0.486077 0.508892 0.099531
C39   C     C_R   0.095380 0.550032 0.610891 0.129437
C40   C     C_R   0.052099 0.609788 0.715652 -0.248883
C41   C     C_R   0.959584 0.615694 0.715174 -0.003230
H1    H     H_    0.614927 0.212580 0.717030 0.167609
H2    H     H_    0.076712 0.302212 0.231762 0.193386
H3    H     H_    0.218228 0.378931 0.322903 0.146837
H4    H     H_    0.226194 0.601693 0.685628 0.158539
H5    H     H_    0.090563 0.651445 0.798485 0.150257
H6    H     H_    0.460440 0.113519 0.295949 0.167665
H7    H     H_    0.687033 0.864361 0.540469 0.382254
H8    H     H_    0.741383 0.815611 0.070997 0.409372
H9    H     H_    0.857568 0.104564 0.319301 0.365127
H10   H     H_    0.524592 0.912161 0.971360 0.170710
H11   H     H_    0.453996 0.805323 0.782745 0.166662
H12   H     H_    0.378431 0.329445 0.246007 0.194243
H13   H     H_    0.278268 0.189512 0.122663 0.155004
H14   H     H_    0.278004 0.189524 0.874683 0.160162
H15   H     H_    0.377530 0.329846 0.752573 0.203804
H16   H     H_    0.769257 0.365116 0.345643 0.238088
H17   H     H_    0.600859 0.636359 0.869687 0.254879
N1    N     N_R   0.499150 0.498800 0.142780 -0.183775
N2    N     N_R   0.499120 0.498720 0.857170 -0.166190
N3    N     N_1   0.648608 0.185616 0.060596 -0.074136
N4    N     N_1   0.395524 0.828500 0.173907 -0.220999
N5    N     N_1   0.887089 0.697159 0.935497 -0.076446
O1    O     O_R   0.500000 0.316780 0.614690 -0.655304
O2    O     O_2   0.851915 0.833800 0.632474 -0.296720
O3    O     O_3   0.701759 0.778315 0.513778 -0.516824
O4    O     O_2   0.638362 0.727228 0.263912 -0.240011
O5    O     O_2   0.727758 0.569605 0.155744 -0.250442
O6    O     O_3   0.691848 0.768185 0.024585 -0.542031
O7    O     O_2   0.837366 0.342220 0.099112 -0.225964
O8    O     O_2   0.954501 0.190340 0.096748 -0.286390
O9    O     O_3   0.819574 0.152100 0.258537 -0.532174
O10   O     O_R   0.499990 0.316750 0.385360 -0.645951
O11   O     O_R   0.367850 0.499980 0.614680 -0.651070
O12   O     O_R   0.367840 0.499960 0.385350 -0.645498
O13   O     O_R   0.500010 0.683250 0.614640 -0.623629
O14   O     O_R   0.500000 0.683220 0.385310 -0.553713
O15   O     O_R   0.632160 0.500040 0.614650 -0.608029
O16   O     O_R   0.632150 0.500020 0.385320 -0.540635
O17   O     O_2   0.732034 0.727989 0.762380 -0.283173
S1    S     S_3+6 0.776713 0.735468 0.627679 0.040391
S2    S     S_3+6 0.654940 0.659469 0.135173 0.067950
S3    S     S_3+6 0.890308 0.257780 0.185007 0.037525
Zn1   Zn    Zn3+2 0.500010 0.500020 0.653130 0.956044
Zn2   Zn    Zn3+2 0.499990 0.499980 0.346870 1.026832

loop_
_geom_bond_atom_site_label_1
_geom_bond_atom_site_label_2
_ccdc_geom_bond_type
C27   C29   S    
C34   C37   A    
C11   C13   A    
C19   C20   A    
C27   O15   A    
O13   Zn1   S    
C7    C8    A    
C40   H5    S    
C37   C38   A    
C23   S3    S    
C12   C28   A    
C18   C24   A    
C28   C29   A    
C18   C19   A    
C27   O16   A    
C22   N2    A    
C38   C39   A    
C10   C17   A    
C30   H16   S    
C16   O14   A    
H9    O9    S    
O1    Zn1   S    
C4    O12   A    
O6    S2    S    
C18   H12   S    
O12   Zn2   S    
C2    H3    S    
C8    C9    A    
C32   C38   A    
C29   C30   A    
C9    C10   A    
C4    O11   A    
O14   Zn2   S    
H8    O6    S    
C21   C22   A    
C12   C32   A    
C7    C33   S    
C36   C41   S    
C9    H11   S    
C20   H14   S    
C15   C35   S    
O8    S3    D    
C6    C11   A    
C16   C17   S    
C25   C26   A    
C5    H4    S    
C23   C31   A    
N1    Zn2   S    
C12   C41   A    
O2    S1    D    
C31   C32   A    
C23   C34   A    
O7    S3    D    
C26   H17   S    
C8    H10   S    
O10   Zn2   S    
C14   H6    S    
C19   H13   S    
C40   C41   A    
C5    C39   A    
C25   S2    S    
C22   C24   A    
C1    C13   S    
C3    C4    S    
C36   N5    T    
C1    O1    A    
O16   Zn2   S    
C15   C17   A    
C28   S1    S    
C16   O13   A    
C34   H2    S    
O11   Zn1   S    
O17   S1    D    
C3    C5    A    
C21   H15   S    
C6    C7    A    
O5    S2    D    
C2    C3    A    
C1    O10   A    
O3    S1    S    
N2    Zn1   S    
C2    C37   A    
C30   C31   A    
C24   N1    A    
C35   N4    T    
O9    S3    S    
C10   C11   A    
C39   C40   A    
O15   Zn1   S    
C20   C21   A    
O4    S2    D    
C33   N3    T    
C6    H1    S    
C14   C15   A    
C25   N1    A    
H7    O3    S    
C13   C14   A    
C26   N2    A    
