data_mof_unit_64330.cif
_audit_creation_date              2012-12-10T19:52:09-0500
_audit_creation_method            fapswitch 2.2
_symmetry_space_group_name_H-M    P1
_symmetry_Int_Tables_number       1
_space_group_crystal_system       triclinic
_cell_length_a                    25.99146
_cell_length_b                    26.030986
_cell_length_c                    22.215051
_cell_angle_alpha                 89.836054
_cell_angle_beta                  125.919918
_cell_angle_gamma                 90.394234
_cell_volume                      12171.8302506

loop_
_atom_site_label
_atom_site_type_symbol
_atom_type_description
_atom_site_fract_x
_atom_site_fract_y
_atom_site_fract_z
_atom_type_partial_charge
C1    C     C_R   0.650271 0.749917 0.300597 0.821318
C2    C     C_3   0.500233 0.797418 0.024647 0.115261
C3    C     C_R   0.236654 0.526420 0.442294 0.002677
C4    C     C_R   0.758434 0.945834 0.506519 -0.162608
C5    C     C_R   0.758027 0.054226 0.506552 -0.166453
C6    C     C_R   0.258378 0.445835 0.506460 -0.162474
C7    C     C_R   0.257973 0.554225 0.506496 -0.166367
C8    C     C_R   0.789784 0.972750 0.575151 0.112727
C9    C     C_R   0.789656 0.027404 0.575169 0.119261
C10   C     C_R   0.289992 0.472752 0.575107 0.112552
C11   C     C_R   0.289863 0.527405 0.575126 0.119122
C12   C     C_3   0.677985 0.029172 0.364059 -0.115585
C13   C     C_3   0.016835 0.701279 0.024463 0.116372
C14   C     C_3   0.678597 0.970062 0.364190 -0.080997
C15   C     C_3   0.177167 0.529162 0.364192 -0.115996
C16   C     C_3   0.177773 0.470057 0.364316 -0.081524
C17   C     C_R   0.609154 0.751143 0.498200 0.865979
C18   C     C_R   0.610750 0.250958 0.501677 0.874392
C19   C     C_R   0.109156 0.251142 0.498202 0.865981
C20   C     C_R   0.110754 0.750962 0.501686 0.874228
C21   C     C_R   0.751607 0.890087 0.501330 0.873803
C22   C     C_R   0.751529 0.109926 0.501435 0.828615
C23   C     C_R   0.251601 0.390086 0.501323 0.873944
C24   C     C_3   0.000049 0.297364 0.024641 0.115264
C25   C     C_R   0.251524 0.609927 0.501430 0.828635
C26   C     C_R   0.750413 0.610062 0.497160 0.855139
C27   C     C_R   0.750800 0.390179 0.499050 0.849094
C28   C     C_R   0.250413 0.110062 0.497159 0.855094
C29   C     C_R   0.250799 0.890180 0.499052 0.849068
C30   C     C_R   0.696865 0.526401 0.469379 0.007773
C31   C     C_R   0.697390 0.473460 0.470386 0.003981
C32   C     C_R   0.196852 0.026403 0.469331 0.007816
C33   C     C_R   0.197377 0.973461 0.470342 0.004003
C34   C     C_R   0.751731 0.554458 0.493658 -0.208423
C35   C     C_3   0.947372 0.720747 0.974655 0.110303
C36   C     C_R   0.753208 0.446105 0.498739 -0.208283
C37   C     C_R   0.251730 0.054458 0.493653 -0.208465
C38   C     C_R   0.253205 0.946106 0.498740 -0.208316
C39   C     C_R   0.808975 0.528024 0.520744 0.128790
C40   C     C_R   0.810838 0.474038 0.528006 0.139306
C41   C     C_R   0.308980 0.028024 0.520770 0.128759
C42   C     C_R   0.310841 0.974039 0.528038 0.139279
C43   C     C_3   0.939900 0.263469 0.974569 0.111456
C44   C     C_3   0.446291 0.222263 0.974660 0.110204
C45   C     C_3   0.439948 0.763660 0.974574 0.111397
C46   C     C_1   0.889198 0.749969 0.778585 -0.071198
C47   C     C_1   0.889346 0.250109 0.778659 -0.065362
C48   C     C_1   0.389194 0.249967 0.778585 -0.071178
C49   C     C_R   0.650360 0.250031 0.300742 0.817201
C50   C     C_1   0.389343 0.750112 0.778660 -0.065392
C51   C     C_1   0.610532 0.249940 0.221431 -0.106385
C52   C     C_1   0.610399 0.749902 0.221319 -0.112627
C53   C     C_1   0.110533 0.749940 0.221431 -0.106301
C54   C     C_1   0.110400 0.249900 0.221318 -0.112670
C55   C     C_3   0.031782 0.730376 0.975304 0.148871
C56   C     C_3   0.022530 0.284076 0.975484 0.105159
C57   C     C_3   0.530977 0.228695 0.975297 0.148874
C58   C     C_3   0.522658 0.783946 0.975486 0.105154
C59   C     C_3   0.962765 0.749959 0.926419 -0.088782
C60   C     C_R   0.150271 0.249918 0.300597 0.821218
C61   C     C_3   0.962898 0.250044 0.926407 -0.089456
C62   C     C_3   0.462753 0.249961 0.926420 -0.088633
C63   C     C_3   0.462891 0.750051 0.926407 -0.089540
C64   C     C_3   0.550982 0.276661 0.024577 0.001143
C65   C     C_3   0.557129 0.736779 0.024571 0.002762
C66   C     C_3   0.049958 0.778118 0.024579 0.001146
C67   C     C_3   0.057187 0.236951 0.024572 0.002774
C68   C     C_3   0.535840 0.249537 0.073607 -0.044266
C69   C     C_3   0.535629 0.750069 0.073550 -0.044761
C70   C     C_3   0.035861 0.749516 0.073606 -0.044194
C71   C     C_R   0.150360 0.750031 0.300742 0.817222
C72   C     C_3   0.035632 0.250062 0.073548 -0.044729
C73   C     C_3   0.981586 0.798358 0.975271 0.108161
C74   C     C_3   0.998369 0.202632 0.975059 0.150204
C75   C     C_3   0.483428 0.298551 0.975277 0.108020
C76   C     C_3   0.498175 0.702591 0.975056 0.150140
C77   C     C_R   0.849618 0.749995 0.699266 0.818016
C78   C     C_R   0.849706 0.250047 0.699398 0.829492
C79   C     C_R   0.349619 0.249995 0.699267 0.818070
C80   C     C_R   0.349707 0.750047 0.699399 0.829521
C81   C     C_3   0.467598 0.270767 0.024517 0.119072
C82   C     C_3   0.631433 0.468949 0.398924 0.193091
C83   C     C_3   0.475807 0.716296 0.024186 0.114722
C84   C     C_3   0.966827 0.769067 0.024508 0.118918
C85   C     C_3   0.975945 0.216152 0.024185 0.114807
C86   C     C_1   0.922413 0.749971 0.845321 0.094874
C87   C     C_1   0.922591 0.250090 0.845365 0.098030
C88   C     C_1   0.422404 0.249970 0.845324 0.094926
C89   C     C_1   0.422584 0.750095 0.845367 0.097958
C90   C     C_1   0.576891 0.249810 0.154698 0.072978
C91   C     C_1   0.576704 0.749925 0.154606 0.070121
C92   C     C_1   0.076898 0.749803 0.154698 0.073115
C93   C     C_3   0.630998 0.528035 0.397258 0.186299
C94   C     C_1   0.076707 0.249921 0.154605 0.070117
C95   C     C_R   0.513140 0.711522 0.474878 0.037785
C96   C     C_R   0.499258 0.271259 0.444923 0.046887
C97   C     C_R   0.013188 0.211497 0.474971 0.037727
C98   C     C_R   0.999327 0.771430 0.445060 0.046782
C99   C     C_R   0.551404 0.754548 0.493558 -0.158466
C100  C     C_R   0.557786 0.254990 0.507111 -0.175734
C101  C     C_R   0.051428 0.254533 0.493601 -0.158428
C102  C     C_R   0.057812 0.755010 0.507159 -0.175820
C103  C     C_R   0.531836 0.800774 0.508548 0.107974
C104  C     C_3   0.131447 0.968952 0.398834 0.193203
C105  C     C_R   0.564045 0.246176 0.574182 0.102290
C106  C     C_R   0.031862 0.300759 0.508595 0.107994
C107  C     C_R   0.064051 0.746065 0.574195 0.102385
C108  C     C_R   0.478092 0.799999 0.510481 0.024130
C109  C     C_R   0.508888 0.245398 0.572909 0.035127
C110  C     C_R   0.978120 0.299984 0.510530 0.024277
C111  C     C_R   0.008888 0.745287 0.572915 0.034984
C112  C     C_R   0.443696 0.753620 0.496375 -0.085913
C113  C     C_R   0.448614 0.254499 0.505406 -0.117147
C114  C     C_R   0.943720 0.253606 0.496420 -0.086076
C115  C     C_3   0.131015 0.028037 0.397162 0.186350
C116  C     C_R   0.948634 0.754521 0.505447 -0.117228
C117  C     C_R   0.462297 0.710903 0.477015 0.017588
C118  C     C_R   0.445830 0.271585 0.444055 0.047793
C119  C     C_R   0.962343 0.210880 0.477102 0.017175
C120  C     C_R   0.945902 0.771762 0.444191 0.047732
C121  C     C_3   0.448937 0.654848 0.460304 -0.198302
C122  C     C_3   0.402459 0.256101 0.363753 -0.218951
C123  C     C_3   0.948865 0.154858 0.460167 -0.198208
C124  C     C_3   0.902486 0.756534 0.363787 -0.218792
C125  C     C_R   0.890335 0.750401 0.500442 0.844335
C126  C     C_3   0.514967 0.201112 0.024460 0.116144
C127  C     C_R   0.889731 0.250626 0.499549 0.845042
C128  C     C_R   0.390332 0.250397 0.500435 0.844336
C129  C     C_R   0.389730 0.750626 0.499546 0.845280
C130  C     C_3   0.507354 0.655369 0.457456 0.206935
C131  C     C_3   0.462218 0.255667 0.364718 0.205981
C132  C     C_3   0.007296 0.155373 0.457345 0.207208
C133  C     C_3   0.962248 0.756092 0.364755 0.206247
C134  C     C_R   0.737447 0.973697 0.442485 0.032842
C135  C     C_R   0.737072 0.026416 0.442465 0.002298
C136  C     C_R   0.237025 0.473689 0.442310 0.033070
H1    H     H_    0.402208 0.646778 0.406636 0.167062
H2    H     H_    0.445946 0.873065 0.483832 0.216884
H3    H     H_    0.542556 0.263359 0.678904 0.215431
H4    H     H_    0.534573 0.199312 0.659997 0.241966
H5    H     H_    0.995057 0.360609 0.576618 0.248913
H6    H     H_    0.945930 0.373035 0.483813 0.216851
H7    H     H_    0.042587 0.763044 0.678981 0.215650
H8    H     H_    0.034474 0.699029 0.659813 0.242003
H9    H     H_    0.454897 0.587370 0.510439 0.195685
H10   H     H_    0.421462 0.634893 0.526453 0.212975
H11   H     H_    0.333417 0.285561 0.262463 0.194712
H12   H     H_    0.379174 0.218020 0.354955 0.144018
H13   H     H_    0.323544 0.298216 0.328648 0.235553
H14   H     H_    0.954205 0.087289 0.509744 0.195609
H15   H     H_    0.921591 0.135040 0.526570 0.212967
H16   H     H_    0.833580 0.786339 0.262690 0.194803
H17   H     H_    0.823702 0.798752 0.328933 0.235660
H18   H     H_    0.550299 0.587112 0.508008 0.201215
H19   H     H_    0.575789 0.636754 0.567994 0.211769
H20   H     H_    0.429163 0.286987 0.263084 0.204890
H21   H     H_    0.457284 0.331226 0.331240 0.206835
H22   H     H_    0.050062 0.087027 0.507693 0.201346
H23   H     H_    0.902123 0.146901 0.406458 0.166959
H24   H     H_    0.075693 0.136590 0.567824 0.211801
H25   H     H_    0.929321 0.787751 0.263338 0.205143
H26   H     H_    0.957598 0.831764 0.331808 0.206549
H27   H     H_    0.455151 0.670084 0.344649 0.192824
H28   H     H_    0.472623 0.608110 0.368043 0.176144
H29   H     H_    0.478363 0.178052 0.388993 0.178892
H30   H     H_    0.443932 0.192929 0.299455 0.196932
H31   H     H_    0.955117 0.170251 0.344583 0.192658
H32   H     H_    0.972565 0.108246 0.367797 0.176118
H33   H     H_    0.978118 0.678394 0.388503 0.178709
H34   H     H_    0.879069 0.718482 0.354728 0.144034
H35   H     H_    0.943762 0.693563 0.299071 0.197136
H36   H     H_    0.626201 0.091786 0.353492 0.195630
H37   H     H_    0.625892 0.045351 0.405669 0.201385
H38   H     H_    0.583437 0.954268 0.307538 0.235495
H39   H     H_    0.621714 0.957352 0.400730 0.217620
H40   H     H_    0.125690 0.591782 0.354365 0.195186
H41   H     H_    0.125917 0.545328 0.406883 0.201704
H42   H     H_    0.082719 0.454286 0.308706 0.235392
H43   H     H_    0.121756 0.457337 0.402014 0.217953
H44   H     H_    0.619022 0.405918 0.334410 0.221332
H45   H     H_    0.686743 0.046273 0.324838 0.177559
H46   H     H_    0.671027 0.449624 0.343243 0.178748
H47   H     H_    0.623790 0.590043 0.334050 0.218336
H48   H     H_    0.669527 0.542597 0.338962 0.182736
H49   H     H_    0.119103 0.905913 0.334367 0.221171
H50   H     H_    0.171129 0.949621 0.343254 0.178680
H51   H     H_    0.123899 0.090042 0.334004 0.218284
H52   H     H_    0.169636 0.042579 0.338963 0.182678
H53   H     H_    0.596625 0.407983 0.424710 0.214768
H54   H     H_    0.540656 0.447640 0.359592 0.198800
H55   H     H_    0.594737 0.589670 0.418016 0.237077
H56   H     H_    0.687991 0.953324 0.325534 0.175273
H57   H     H_    0.539768 0.547691 0.355611 0.199998
H58   H     H_    0.096581 0.907992 0.424556 0.214782
H59   H     H_    0.040644 0.947645 0.359394 0.198645
H60   H     H_    0.094689 0.089680 0.417823 0.237061
H61   H     H_    0.039757 0.047692 0.355399 0.199911
H62   H     H_    0.605617 0.321396 0.007540 0.227442
H63   H     H_    0.609374 0.336937 0.083306 0.209265
H64   H     H_    0.623046 0.716622 0.007640 0.227525
H65   H     H_    0.651497 0.752783 0.083613 0.206201
H66   H     H_    0.102861 0.825206 0.007548 0.227507
H67   H     H_    0.185435 0.546265 0.324555 0.177811
H68   H     H_    0.106038 0.839429 0.083317 0.209390
H69   H     H_    0.123183 0.217088 0.007648 0.227530
H70   H     H_    0.151485 0.253213 0.083622 0.206199
H71   H     H_    0.186675 0.453311 0.325238 0.175508
H72   H     H_    0.495048 0.860595 0.576620 0.248894
I1    I     I_    0.889652 0.567767 0.537142 -0.247529
I2    I     I_    0.839242 0.068781 0.678286 -0.189585
I3    I     I_    0.339872 0.431560 0.678235 -0.186861
I4    I     I_    0.339793 0.568801 0.678233 -0.189928
I5    I     I_    0.863932 0.674973 0.931913 -0.210674
I6    I     I_    0.844638 0.284520 0.931441 -0.174707
I7    I     I_    0.361173 0.178865 0.931940 -0.211478
I8    I     I_    0.344776 0.785013 0.931470 -0.174117
I9    I     I_    0.540835 0.124273 0.065797 -0.208123
I10   I     I_    0.502978 0.872131 0.066419 -0.220782
I11   I     I_    0.045611 0.624711 0.065795 -0.207500
I12   I     I_    0.902173 0.437972 0.582032 -0.217612
I13   I     I_    0.002498 0.372003 0.066401 -0.220893
I14   I     I_    0.419037 0.303652 0.066283 -0.239873
I15   I     I_    0.440068 0.663107 0.065202 -0.195949
I16   I     I_    0.917032 0.799284 0.066255 -0.242243
I17   I     I_    0.940410 0.162743 0.065192 -0.196611
I18   I     I_    0.954890 0.875323 0.934993 -0.204252
I19   I     I_    0.998258 0.128168 0.934529 -0.195786
I20   I     I_    0.459651 0.375726 0.934998 -0.205082
I21   I     I_    0.497779 0.628051 0.934519 -0.194559
I22   I     I_    0.083544 0.701715 0.935330 -0.206803
I23   I     I_    0.389674 0.067761 0.537201 -0.247468
I24   I     I_    0.060097 0.336451 0.935801 -0.230645
I25   I     I_    0.581563 0.197327 0.935305 -0.206172
I26   I     I_    0.560424 0.836093 0.935794 -0.230828
I27   I     I_    0.402186 0.937975 0.582122 -0.217489
I28   I     I_    0.577705 0.873124 0.522286 -0.296225
I29   I     I_    0.654801 0.235370 0.678223 -0.254276
I30   I     I_    0.077699 0.373119 0.522278 -0.296692
I31   I     I_    0.154776 0.735073 0.678208 -0.253785
I32   I     I_    0.839307 0.931576 0.678290 -0.186966
N1    N     N_3   0.457510 0.846187 0.524985 -0.394639
N2    N     N_3   0.465247 0.294624 0.318969 -0.387167
N3    N     N_3   0.062705 0.125923 0.515206 -0.419714
N4    N     N_3   0.965425 0.795200 0.319281 -0.387210
N5    N     N_3   0.491333 0.645339 0.383406 -0.422517
N6    N     N_3   0.479080 0.204573 0.353975 -0.442337
N7    N     N_3   0.991283 0.145467 0.383273 -0.422456
N8    N     N_3   0.978938 0.705030 0.353674 -0.442138
N9    N     N_3   0.623401 0.051985 0.357550 -0.424778
N10   N     N_3   0.625414 0.944684 0.358774 -0.427903
N11   N     N_3   0.122931 0.551981 0.358455 -0.425046
N12   N     N_3   0.513583 0.235237 0.639471 -0.399312
N13   N     N_3   0.124940 0.444682 0.359665 -0.428139
N14   N     N_3   0.627788 0.445306 0.336300 -0.429405
N15   N     N_3   0.627669 0.550144 0.333918 -0.425471
N16   N     N_3   0.127867 0.945302 0.336256 -0.429815
N17   N     N_3   0.127758 0.050141 0.333867 -0.425642
N18   N     N_3   0.585738 0.446645 0.410282 -0.428563
N19   N     N_3   0.584554 0.550563 0.406475 -0.432933
N20   N     N_3   0.085703 0.946653 0.410115 -0.428636
N21   N     N_3   0.084520 0.050570 0.406292 -0.432924
N22   N     N_3   0.608983 0.305967 0.053202 -0.401101
N23   N     N_3   0.957521 0.346176 0.524998 -0.394627
N24   N     N_3   0.621584 0.721724 0.053255 -0.409071
N25   N     N_3   0.106824 0.809054 0.053211 -0.401221
N26   N     N_3   0.121702 0.222095 0.053263 -0.409187
N27   N     N_3   0.013562 0.734996 0.639434 -0.399053
N28   N     N_3   0.459058 0.626473 0.523236 -0.440002
N29   N     N_3   0.357691 0.296855 0.318001 -0.433496
N30   N     N_3   0.958913 0.126347 0.522966 -0.440091
N31   N     N_3   0.857865 0.797441 0.318310 -0.433590
N32   N     N_3   0.562835 0.626029 0.515411 -0.419818
O1    O     O_3   0.749980 0.749980 0.500000 -0.508010
O2    O     O_R   0.612630 0.280380 0.456900 -0.633514
O3    O     O_R   0.112630 0.219620 0.456900 -0.627473
O4    O     O_R   0.112630 0.780380 0.456900 -0.633376
O5    O     O_R   0.698160 0.780350 0.335610 -0.642470
O6    O     O_R   0.698160 0.219650 0.335610 -0.632379
O7    O     O_R   0.198160 0.280350 0.335610 -0.642500
O8    O     O_R   0.198160 0.719650 0.335610 -0.632179
O9    O     O_R   0.801810 0.780340 0.664390 -0.612575
O10   O     O_R   0.801810 0.219660 0.664390 -0.603578
O11   O     O_R   0.301810 0.280340 0.664390 -0.612532
O12   O     O_3   0.749980 0.250020 0.500000 -0.505527
O13   O     O_R   0.301810 0.719660 0.664390 -0.603589
O14   O     O_R   0.637440 0.719620 0.335610 -0.636607
O15   O     O_R   0.637440 0.280380 0.335610 -0.635320
O16   O     O_R   0.137440 0.219620 0.335610 -0.636615
O17   O     O_R   0.137440 0.780380 0.335610 -0.635461
O18   O     O_R   0.862520 0.719620 0.664390 -0.621796
O19   O     O_R   0.862520 0.280380 0.664390 -0.624555
O20   O     O_R   0.362520 0.219620 0.664390 -0.621840
O21   O     O_R   0.362520 0.780380 0.664390 -0.624534
O22   O     O_R   0.844240 0.780350 0.456900 -0.659684
O23   O     O_3   0.249980 0.249980 0.500000 -0.508026
O24   O     O_R   0.844240 0.219650 0.456900 -0.658910
O25   O     O_R   0.344240 0.280350 0.456900 -0.659546
O26   O     O_R   0.344240 0.719650 0.456900 -0.658840
O27   O     O_R   0.655730 0.780340 0.543100 -0.609399
O28   O     O_R   0.655730 0.219660 0.543100 -0.612964
O29   O     O_R   0.155730 0.280340 0.543100 -0.609394
O30   O     O_R   0.155730 0.719660 0.543100 -0.613057
O31   O     O_R   0.758800 0.865790 0.456890 -0.640081
O32   O     O_R   0.758800 0.134210 0.456890 -0.650170
O33   O     O_R   0.258800 0.365790 0.456890 -0.640101
O34   O     O_3   0.249980 0.750020 0.500000 -0.505563
O35   O     O_R   0.258800 0.634210 0.456890 -0.649992
O36   O     O_R   0.698070 0.634180 0.456910 -0.674843
O37   O     O_R   0.698070 0.365820 0.456910 -0.678236
O38   O     O_R   0.198070 0.134180 0.456910 -0.674825
O39   O     O_R   0.198070 0.865820 0.456910 -0.678211
O40   O     O_R   0.741170 0.865780 0.543090 -0.602544
O41   O     O_R   0.741170 0.134220 0.543090 -0.610578
O42   O     O_R   0.241170 0.365780 0.543090 -0.602552
O43   O     O_R   0.241170 0.634220 0.543090 -0.610671
O44   O     O_R   0.801880 0.634180 0.543110 -0.602451
O45   O     O_R   0.887330 0.719620 0.543100 -0.603237
O46   O     O_R   0.801880 0.365820 0.543110 -0.602484
O47   O     O_R   0.301880 0.134180 0.543110 -0.602464
O48   O     O_R   0.301880 0.865820 0.543110 -0.602507
O49   O     O_R   0.887330 0.280380 0.543100 -0.607168
O50   O     O_R   0.387330 0.219620 0.543100 -0.603271
O51   O     O_R   0.387330 0.780380 0.543100 -0.607212
O52   O     O_R   0.612630 0.719620 0.456900 -0.627461
Zn1   Zn    Zn3+2 0.824140 0.706600 0.561580 1.027158
Zn2   Zn    Zn3+2 0.737390 0.206640 0.561570 1.039568
Zn3   Zn    Zn3+2 0.237390 0.293360 0.561570 1.047012
Zn4   Zn    Zn3+2 0.237390 0.706640 0.561570 1.039462
Zn5   Zn    Zn3+2 0.675820 0.706600 0.438430 0.975346
Zn6   Zn    Zn3+2 0.675820 0.293400 0.438430 0.966962
Zn7   Zn    Zn3+2 0.175820 0.206600 0.438430 0.975291
Zn8   Zn    Zn3+2 0.175820 0.793400 0.438430 0.966886
Zn9   Zn    Zn3+2 0.824140 0.293400 0.561580 1.029679
Zn10  Zn    Zn3+2 0.324140 0.206600 0.561580 1.027138
Zn11  Zn    Zn3+2 0.324140 0.793400 0.561580 1.029699
Zn12  Zn    Zn3+2 0.762580 0.793360 0.438420 0.974456
Zn13  Zn    Zn3+2 0.762580 0.206640 0.438420 0.966995
Zn14  Zn    Zn3+2 0.262580 0.293360 0.438420 0.974609
Zn15  Zn    Zn3+2 0.262580 0.706640 0.438420 0.967329
Zn16  Zn    Zn3+2 0.737390 0.793360 0.561570 1.046961

loop_
_geom_bond_atom_site_label_1
_geom_bond_atom_site_label_2
_ccdc_geom_bond_type
C99   C103  A    
C124  N31   S    
C103  I28   S    
C55   C59   S    
O37   Zn6   S    
O12   Zn6   S    
H42   N13   S    
O21   Zn11  S    
C124  C133  S    
C68   C81   S    
O8    Zn15  S    
H47   N15   S    
C95   C99   A    
O42   Zn3   S    
C63   C76   S    
C79   O11   A    
C73   I18   S    
C39   I1    S    
H48   N15   S    
C17   O52   A    
C115  N21   S    
C41   I23   S    
C49   C51   S    
C12   C135  S    
H52   N17   S    
C68   C90   S    
C122  H12   S    
C112  C129  S    
C70   C84   S    
C59   C73   S    
O43   Zn4   S    
O13   Zn4   S    
C83   I15   S    
C40   I12   S    
H17   N31   S    
H18   N32   S    
C76   C83   S    
C1    O14   A    
C43   C85   S    
C78   O19   A    
H72   N1    S    
C97   C132  S    
C44   C81   S    
O14   Zn5   S    
H39   N10   S    
C98   C102  A    
C62   C88   S    
O19   Zn9   S    
C20   O30   A    
C12   N9    S    
C60   O16   A    
C21   O31   A    
C22   O32   A    
C20   O4    A    
C1    O5    A    
C16   N13   S    
C12   H45   S    
C93   N15   S    
C67   C74   S    
C65   C76   S    
H20   N2    S    
O39   Zn8   S    
C123  N30   S    
O10   Zn2   S    
C62   C75   S    
H27   N5    S    
C65   N24   S    
H6    N23   S    
C53   C71   S    
C39   C40   A    
C43   C61   S    
O24   Zn13  S    
H38   N10   S    
C46   C77   S    
C15   H67   S    
C35   C84   S    
C132  N7    S    
C98   C120  A    
C119  C123  S    
C61   C74   S    
C24   C56   S    
C25   O43   A    
C33   C38   A    
C111  N27   S    
C66   C70   S    
O22   Zn12  S    
H9    N28   S    
C133  N8    S    
C13   C70   S    
C2    I10   S    
C24   C43   S    
C105  I29   S    
C31   C36   A    
C52   C91   T    
C35   I5    S    
C25   O35   A    
C26   O36   A    
C123  C132  S    
C82   N18   S    
C33   C104  S    
H54   N18   S    
O46   Zn9   S    
C121  C130  S    
H14   N30   S    
H49   N16   S    
C72   C85   S    
C24   I13   S    
C95   C117  A    
C81   I14   S    
O4    Zn8   S    
C123  H23   S    
C64   C68   S    
C13   C35   S    
C51   C90   T    
H31   N7    S    
H36   N9    S    
C130  N32   S    
C3    C136  A    
C118  C122  S    
C121  H1    S    
O17   Zn8   S    
C122  N29   S    
C93   N19   S    
C60   O7    A    
C108  N1    S    
C21   O40   A    
H61   N21   S    
C2    C69   S    
C110  C114  A    
O30   Zn4   S    
C114  C119  A    
C79   O20   A    
C14   H56   S    
O2    Zn6   S    
O27   Zn16  S    
H5    N23   S    
C55   I22   S    
C45   C83   S    
C130  N5    S    
C8    I32   S    
C2    C45   S    
O49   Zn9   S    
C30   C34   A    
C34   C39   A    
H30   N6    S    
O36   Zn5   S    
C115  N17   S    
C77   O18   A    
H37   N9    S    
O52   Zn5   S    
C116  C120  A    
C47   C87   T    
O33   Zn14  S    
C97   C119  A    
H21   N2    S    
C5    C9    A    
C131  N6    S    
C11   I4    S    
C42   I27   S    
C58   C65   S    
C9    I2    S    
C63   C89   S    
C22   O41   A    
C48   C88   T    
C102  C107  A    
C32   C37   A    
H28   N5    S    
C66   N25   S    
C110  N23   S    
H2    N1    S    
C96   C131  S    
O23   Zn7   S    
C116  C125  S    
O48   Zn11  S    
C85   I17   S    
H26   N4    S    
C16   C136  S    
C122  C131  S    
C24   C72   S    
C4    C134  A    
O45   Zn1   S    
C101  C106  A    
C5    C135  A    
C105  C109  A    
H51   N17   S    
O12   Zn13  S    
C107  C111  A    
H29   N6    S    
C50   C80   S    
C134  C135  A    
O3    Zn7   S    
C72   C94   S    
O20   Zn10  S    
C28   C37   S    
O25   Zn14  S    
H70   N26   S    
C64   C75   S    
C127  O49   A    
H33   N8    S    
C37   C41   A    
C10   C11   A    
H43   N13   S    
C80   O21   A    
H32   N7    S    
C28   O38   A    
C47   C78   S    
C77   O9    A    
C69   C91   S    
C43   I6    S    
C18   O2    A    
C17   O27   A    
O7    Zn14  S    
C18   O28   A    
C41   C42   A    
H3    N12   S    
H4    N12   S    
H65   N24   S    
C16   H71   S    
O34   Zn11  S    
H63   N22   S    
C125  O22   A    
C128  O25   A    
C113  C128  S    
H68   N25   S    
C98   C133  S    
C31   C82   S    
H53   N18   S    
C48   C79   S    
H60   N21   S    
C129  O51   A    
C3    C7    A    
C133  N4    S    
C112  C117  A    
C64   N22   S    
H16   N31   S    
O32   Zn13  S    
C35   C59   S    
C104  N20   S    
O34   Zn4   S    
C125  O45   A    
C27   O37   A    
O28   Zn2   S    
C111  C116  A    
H55   N19   S    
C82   C93   S    
O31   Zn12  S    
O16   Zn7   S    
O34   Zn15  S    
H19   N32   S    
C28   O47   A    
O51   Zn11  S    
C84   I16   S    
C67   N26   S    
H44   N14   S    
O15   Zn6   S    
C107  I31   S    
C108  C112  A    
C23   O42   A    
O23   Zn10  S    
O34   Zn8   S    
C104  C115  S    
C50   C89   T    
C80   O13   A    
H10   N28   S    
C17   C99   S    
O18   Zn1   S    
C23   O33   A    
O35   Zn15  S    
C55   C66   S    
O11   Zn3   S    
C70   C92   S    
O26   Zn15  S    
O23   Zn14  S    
C58   I26   S    
C131  N2    S    
C6    C10   A    
C2    C58   S    
H15   N30   S    
C38   C42   A    
C14   N10   S    
C27   C36   S    
C7    C25   S    
H35   N8    S    
C32   C33   A    
C29   O48   A    
H13   N29   S    
H11   N29   S    
C114  C127  S    
C65   C69   S    
H57   N19   S    
H58   N20   S    
H22   N3    S    
C32   C115  S    
C1    C52   S    
O38   Zn7   S    
C10   I3    S    
H69   N26   S    
C106  I30   S    
C76   I21   S    
C56   C61   S    
C82   N14   S    
C29   O39   A    
C127  O24   A    
C13   C55   S    
O47   Zn10  S    
C109  N12   S    
O1    Zn1   S    
C27   O46   A    
O29   Zn3   S    
C44   I7    S    
H59   N20   S    
C4    C8    A    
H40   N11   S    
C57   C62   S    
C54   C60   S    
C7    C11   A    
C44   C126  S    
C100  C105  A    
O44   Zn1   S    
C96   C118  A    
C75   I20   S    
C67   C72   S    
C30   C93   S    
H64   N24   S    
C20   C102  S    
C15   C16   S    
H41   N11   S    
C96   C100  A    
C129  O26   A    
C45   I8    S    
C56   I24   S    
C117  C121  S    
C78   O10   A    
H25   N4    S    
C6    C136  A    
C26   C34   S    
C19   O3    A    
C5    C22   S    
C8    C9    A    
C19   O29   A    
C103  C108  A    
O41   Zn2   S    
C61   C87   S    
C73   C84   S    
C126  I9    S    
C109  C113  A    
C74   C85   S    
O1    Zn5   S    
C18   C100  S    
C121  N28   S    
O40   Zn16  S    
O50   Zn10  S    
O6    Zn13  S    
C36   C40   A    
C57   C126  S    
H62   N22   S    
C75   C81   S    
C14   C134  S    
C44   C62   S    
C66   C73   S    
C26   O44   A    
C45   C63   S    
O1    Zn12  S    
C29   C38   S    
H50   N16   S    
C74   I19   S    
C69   C83   S    
C95   C130  S    
H46   N14   S    
C132  N3    S    
C30   C31   A    
C53   C92   T    
C13   I11   S    
O12   Zn9   S    
C12   C14   S    
C68   C126  S    
C3    C15   S    
C57   C64   S    
C106  C110  A    
C58   C63   S    
C49   O15   A    
O23   Zn3   S    
O12   Zn2   S    
C57   I25   S    
C56   C67   S    
C71   O8    A    
C104  N16   S    
O1    Zn16  S    
C59   C86   S    
C4    C21   S    
C19   C101  S    
C15   N11   S    
C49   O6    A    
C6    C23   S    
O5    Zn12  S    
C128  O50   A    
H7    N27   S    
H24   N3    S    
H66   N25   S    
C54   C94   T    
C113  C118  A    
H8    N27   S    
O9    Zn16  S    
C124  H34   S    
C71   O17   A    
C97   C101  A    
C120  C124  S    
C46   C86   T    
