data_mof_unit_36774.cif
_audit_creation_date              2012-12-11T15:06:39-0500
_audit_creation_method            fapswitch 2.2
_symmetry_space_group_name_H-M    P1
_symmetry_Int_Tables_number       1
_space_group_crystal_system       triclinic
_cell_length_a                    7.254574
_cell_length_b                    15.373616
_cell_length_c                    22.188393
_cell_angle_alpha                 90.000043
_cell_angle_beta                  89.999438
_cell_angle_gamma                 90.000014
_cell_volume                      2474.65005759

loop_
_atom_site_label
_atom_site_type_symbol
_atom_type_description
_atom_site_fract_x
_atom_site_fract_y
_atom_site_fract_z
_atom_type_partial_charge
O1    O     O_R   0.390810 0.844810 0.447340 -0.532993
O2    O     O_R   0.109190 0.155190 0.947340 -0.532992
O3    O     O_R   0.890810 0.655190 0.552660 -0.532993
O4    O     O_R   0.609190 0.344810 0.052660 -0.532993
O5    O     O_R   0.720550 0.655820 0.440420 -0.541696
O6    O     O_R   0.779450 0.344180 0.940420 -0.541696
O7    O     O_R   0.220550 0.844180 0.559580 -0.541696
O8    O     O_R   0.279450 0.155820 0.059580 -0.541696
C1    C     C_R   0.551752 0.628880 0.425595 0.704782
C2    C     C_R   0.948248 0.371120 0.925595 0.704783
C3    C     C_R   0.051752 0.871120 0.574405 0.704783
C4    C     C_R   0.448248 0.128881 0.074405 0.704783
O9    O     O_R   0.720530 0.844130 0.440420 -0.541969
O10   O     O_R   0.779470 0.155870 0.940420 -0.541969
O11   O     O_R   0.220530 0.655870 0.559580 -0.541969
O12   O     O_R   0.279470 0.344130 0.059580 -0.541969
O13   O     O_R   0.890830 0.844810 0.552660 -0.535312
O14   O     O_R   0.609170 0.155190 0.052660 -0.535312
O15   O     O_R   0.390830 0.655190 0.447340 -0.535312
O16   O     O_R   0.109170 0.344810 0.947340 -0.535312
C5    C     C_R   0.551616 0.872380 0.426203 0.672923
C6    C     C_R   0.948385 0.127620 0.926203 0.672921
C7    C     C_R   0.051615 0.627619 0.573797 0.672922
C8    C     C_R   0.448384 0.372380 0.073797 0.672922
O17   O     O_3   0.557310 0.749980 0.536820 -0.376634
O18   O     O_3   0.942690 0.250020 0.036820 -0.376634
O19   O     O_3   0.057310 0.750020 0.463180 -0.376634
O20   O     O_3   0.442690 0.249980 0.963180 -0.376634
V1    V     V_3+5 0.832160 0.749980 0.493170 1.421533
V2    V     V_3+5 0.667840 0.250020 0.993170 1.421530
V3    V     V_3+5 0.332160 0.750020 0.506830 1.421531
V4    V     V_3+5 0.167840 0.249980 0.006830 1.421532
C9    C     C_R   0.066035 0.592798 0.869768 0.422798
C10   C     C_R   0.433966 0.407203 0.369768 0.422794
C11   C     C_R   0.566026 0.907203 0.130232 0.422799
C12   C     C_R   0.933950 0.092797 0.630231 0.422796
H1    H     H_    0.005108 0.531750 0.955413 0.110516
H2    H     H_    0.494903 0.468250 0.455413 0.110515
H3    H     H_    0.505088 0.968249 0.044588 0.110515
H4    H     H_    0.994857 0.031745 0.544585 0.110515
H5    H     H_    0.160063 0.710399 0.786197 0.152345
H6    H     H_    0.339924 0.289604 0.286199 0.152342
H7    H     H_    0.660053 0.789601 0.213801 0.152344
H8    H     H_    0.839918 0.210397 0.713802 0.152346
C13   C     C_R   0.962510 0.444141 0.883701 -0.085006
C14   C     C_R   0.537492 0.555859 0.383701 -0.085008
C15   C     C_R   0.462507 0.055860 0.116300 -0.085008
C16   C     C_R   0.037489 0.944142 0.616298 -0.085003
C17   C     C_R   0.972926 0.475031 0.590249 -0.176989
C18   C     C_R   0.527068 0.524970 0.090248 -0.176989
C19   C     C_R   0.472948 0.024972 0.409753 -0.177003
C20   C     C_R   0.027080 0.975032 0.909750 -0.176984
C21   C     C_R   0.922092 0.406070 0.626873 -0.125555
C22   C     C_R   0.577901 0.593930 0.126873 -0.125551
C23   C     C_R   0.422130 0.093935 0.373129 -0.125553
C24   C     C_R   0.077922 0.906073 0.873125 -0.125551
C25   C     C_R   0.932989 0.413280 0.689211 -0.141446
C26   C     C_R   0.567006 0.586721 0.189210 -0.141447
C27   C     C_R   0.433022 0.086726 0.310791 -0.141444
C28   C     C_R   0.067028 0.913283 0.810788 -0.141448
C29   C     C_R   0.996965 0.490379 0.717021 0.099194
C30   C     C_R   0.503031 0.509621 0.217020 0.099195
C31   C     C_R   0.496979 0.009623 0.282980 0.099194
C32   C     C_R   0.003044 0.990382 0.782979 0.099194
C33   C     C_R   0.048865 0.561449 0.679076 0.073934
C34   C     C_R   0.451130 0.438551 0.179076 0.073933
C35   C     C_R   0.548870 0.938551 0.320924 0.073934
C36   C     C_R   0.951136 0.061450 0.820923 0.073933
C37   C     C_R   0.004016 0.500020 0.781215 0.021391
C38   C     C_R   0.495980 0.499981 0.281215 0.021392
C39   C     C_R   0.504022 0.999982 0.218785 0.021392
C40   C     C_R   0.995990 0.000022 0.718784 0.021391
C41   C     C_R   0.060053 0.581205 0.806385 0.054333
C42   C     C_R   0.439943 0.418796 0.306385 0.054335
C43   C     C_R   0.560051 0.918796 0.193615 0.054331
C44   C     C_R   0.939941 0.081205 0.693615 0.054338
C45   C     C_R   0.112559 0.649216 0.767969 -0.169609
C46   C     C_R   0.387433 0.350786 0.267970 -0.169612
C47   C     C_R   0.612553 0.850784 0.232030 -0.169610
C48   C     C_R   0.887431 0.149215 0.732031 -0.169609
C49   C     C_R   0.106612 0.639789 0.705600 -0.220743
C50   C     C_R   0.393380 0.360212 0.205600 -0.220743
C51   C     C_R   0.606608 0.860211 0.294400 -0.220741
C52   C     C_R   0.893381 0.139788 0.794400 -0.220747
C53   C     C_R   0.960094 0.431246 0.821431 -0.229876
C54   C     C_R   0.539903 0.568755 0.321431 -0.229877
C55   C     C_R   0.460101 0.068756 0.178570 -0.229876
C56   C     C_R   0.039918 0.931249 0.678568 -0.229876
C57   C     C_R   0.009143 0.524502 0.907196 -0.250299
C58   C     C_R   0.490862 0.475498 0.407196 -0.250286
C59   C     C_R   0.509132 0.975498 0.092805 -0.250291
C60   C     C_R   0.990838 0.024500 0.592803 -0.250304
C61   C     C_R   0.035811 0.553063 0.615302 -0.073388
C62   C     C_R   0.464185 0.446937 0.115302 -0.073389
C63   C     C_R   0.535818 0.946937 0.384698 -0.073385
C64   C     C_R   0.964190 0.053064 0.884698 -0.073390
H9    H     H_    0.929916 0.366249 0.806218 0.104204
H10   H     H_    0.570078 0.633752 0.306218 0.104204
H11   H     H_    0.429927 0.133753 0.193782 0.104204
H12   H     H_    0.070107 0.866253 0.693781 0.104204
H13   H     H_    0.956649 0.468600 0.541875 0.105831
H14   H     H_    0.543345 0.531400 0.041875 0.105831
H15   H     H_    0.456674 0.031402 0.458126 0.105828
H16   H     H_    0.043357 0.968602 0.958124 0.105832
H17   H     H_    0.884767 0.358186 0.714366 0.106003
H18   H     H_    0.615230 0.641813 0.214365 0.106001
H19   H     H_    0.384813 0.141822 0.285636 0.106003
H20   H     H_    0.115259 0.858192 0.785633 0.106000
H21   H     H_    0.868059 0.347312 0.606804 0.155210
H22   H     H_    0.631932 0.652688 0.106803 0.155202
H23   H     H_    0.368113 0.152695 0.393199 0.155215
H24   H     H_    0.131959 0.847316 0.893195 0.155199
H25   H     H_    0.147634 0.694748 0.678198 0.112337
H26   H     H_    0.352356 0.305254 0.178199 0.112338
H27   H     H_    0.647625 0.805250 0.321800 0.112334
H28   H     H_    0.852355 0.194746 0.821801 0.112340
O21   O     O_3   0.115155 0.672960 0.894097 -0.590679
C65   C     C_3   0.255903 0.664696 0.938309 0.056281
H29   H     H_    0.345526 0.722910 0.934228 0.155987
H30   H     H_    0.349220 0.608323 0.929613 0.095309
C66   C     C_3   0.175568 0.659086 0.002829 -0.358525
H31   H     H_    0.023124 0.661684 0.002135 0.208820
H32   H     H_    0.214613 0.595686 0.023201 0.176719
C67   C     C_3   0.243758 0.731099 0.044181 -0.775113
H33   H     H_    0.394504 0.724811 0.049835 0.267474
H34   H     H_    0.178309 0.724570 0.089193 0.229101
H35   H     H_    0.208461 0.795913 0.025280 0.218816
O22   O     O_3   0.384852 0.327040 0.394098 -0.590690
C68   C     C_3   0.244101 0.335303 0.438310 0.056262
H36   H     H_    0.154487 0.277085 0.434230 0.155998
H37   H     H_    0.150777 0.391673 0.429613 0.095317
C69   C     C_3   0.324432 0.340917 0.502830 -0.358510
H38   H     H_    0.476875 0.338318 0.502137 0.208818
H39   H     H_    0.285387 0.404319 0.523200 0.176719
C70   C     C_3   0.256239 0.268907 0.544185 -0.775120
H40   H     H_    0.105492 0.275194 0.549837 0.267472
H41   H     H_    0.321682 0.275441 0.589197 0.229100
H42   H     H_    0.291541 0.204092 0.525287 0.218816
O23   O     O_3   0.615140 0.827039 0.105902 -0.590683
C71   C     C_3   0.755896 0.835302 0.061692 0.056272
H43   H     H_    0.845508 0.777084 0.065773 0.155988
H44   H     H_    0.849220 0.891672 0.070391 0.095315
C72   C     C_3   0.675573 0.840918 0.997171 -0.358526
H45   H     H_    0.523129 0.838317 0.997862 0.208819
H46   H     H_    0.714616 0.904322 0.976803 0.176720
C73   C     C_3   0.743776 0.768912 0.955816 -0.775107
H47   H     H_    0.894523 0.775201 0.950166 0.267471
H48   H     H_    0.678339 0.775447 0.910803 0.229104
H49   H     H_    0.708475 0.704095 0.974712 0.218815
O24   O     O_3   0.884819 0.172958 0.605902 -0.590678
C74   C     C_3   0.744088 0.164690 0.561684 0.056285
H50   H     H_    0.654445 0.222897 0.565766 0.155995
H51   H     H_    0.650784 0.108309 0.570374 0.095298
C75   C     C_3   0.824447 0.159094 0.497167 -0.358497
H52   H     H_    0.976892 0.161680 0.497868 0.208816
H53   H     H_    0.785391 0.095701 0.476784 0.176714
C76   C     C_3   0.756297 0.231124 0.455821 -0.775124
H54   H     H_    0.605555 0.224840 0.450153 0.267480
H55   H     H_    0.821780 0.224610 0.410813 0.229081
H56   H     H_    0.791587 0.295931 0.474737 0.218813

loop_
_geom_bond_atom_site_label_1
_geom_bond_atom_site_label_2
_ccdc_geom_bond_type
O17   V3    S    
C70   H42   S    
C25   H17   S    
C26   C30   A    
C76   H54   S    
C23   C27   A    
O19   V1    S    
O13   V1    S    
O3    C7    A    
C71   C72   S    
C48   C52   A    
O15   V3    S    
O22   C68   S    
C14   C54   A    
C70   H40   S    
O1    C5    A    
C11   C43   A    
C36   C64   A    
C32   C36   A    
O9    V1    S    
C71   H44   S    
C68   H36   S    
C8    C62   S    
C17   H13   S    
O4    C8    A    
C17   C21   A    
H7    C47   S    
C72   H45   S    
C72   H46   S    
O1    V3    S    
C30   C38   A    
O2    V4    S    
C74   C75   S    
O3    V1    S    
C65   H29   S    
C66   C67   S    
C12   C44   A    
C11   O23   S    
C1    O15   A    
C20   H16   S    
C2    O16   A    
C69   H38   S    
C47   C51   A    
C19   C63   A    
C38   C42   A    
C74   H50   S    
C16   C56   A    
C37   C41   A    
O14   V2    S    
C13   C57   A    
O5    V1    S    
C28   H20   S    
C40   C44   A    
C34   C62   A    
C68   C69   S    
C12   C60   A    
O11   C7    A    
C1    C14   S    
O12   C8    A    
C74   H51   S    
C35   C63   A    
C3    C16   S    
C15   C59   A    
O10   V2    S    
C4    C15   S    
H3    C59   S    
C40   C56   A    
O16   V4    S    
C73   H48   S    
C9    O21   S    
C31   C35   A    
C39   C43   A    
O7    V3    S    
C30   C34   A    
O8    V4    S    
C51   H27   S    
H8    C48   S    
C71   H43   S    
C50   H26   S    
C75   C76   S    
C72   C73   S    
C21   C25   A    
O18   V4    S    
C18   C62   A    
C5    C63   S    
C27   H19   S    
C7    C61   S    
C26   H18   S    
C22   H22   S    
C36   C52   A    
C75   H53   S    
O7    C3    A    
C10   C58   A    
O5    C1    A    
C9    C57   A    
C34   C50   A    
C73   H49   S    
C46   C50   A    
C33   C49   A    
C45   C49   A    
O8    C4    A    
C2    C13   S    
C75   H52   S    
O9    C5    A    
C18   C22   A    
C35   C51   A    
H4    C60   S    
C25   C29   A    
C66   H31   S    
C56   H12   S    
C10   C42   A    
C67   H35   S    
C39   C55   A    
C9    C41   A    
O6    V2    S    
C31   C39   A    
C18   H14   S    
C76   H56   S    
C16   C60   A    
C52   H28   S    
C4    O14   A    
C38   C54   A    
C37   C53   A    
H6    C46   S    
C67   H34   S    
C73   H47   S    
C22   C26   A    
C29   C37   A    
C70   H41   S    
C3    O13   A    
C23   H23   S    
C6    C64   S    
C44   C48   A    
O6    C2    A    
O23   C71   S    
C10   O22   S    
O11   V3    S    
C14   C58   A    
O12   V4    S    
H2    C58   S    
C27   C31   A    
H1    C57   S    
C13   C53   A    
C28   C32   A    
O10   C6    A    
O20   V2    S    
O2    C6    A    
H5    C45   S    
C12   O24   S    
C19   H15   S    
C69   C70   S    
C69   H39   S    
C33   C61   A    
C24   H24   S    
C20   C64   A    
C19   C23   A    
C32   C40   A    
C54   H10   S    
C65   H30   S    
C66   H32   S    
C53   H9    S    
C55   H11   S    
C29   C33   A    
C24   C28   A    
C76   H55   S    
C42   C46   A    
C49   H25   S    
C41   C45   A    
O24   C74   S    
C21   H21   S    
C17   C61   A    
O21   C65   S    
C43   C47   A    
C65   C66   S    
O4    V2    S    
C20   C24   A    
C15   C55   A    
C67   H33   S    
C68   H37   S    
C11   C59   A    
