data_mof_unit_27389.cif
_audit_creation_date              2012-12-10T16:59:23-0500
_audit_creation_method            fapswitch 2.2
_symmetry_space_group_name_H-M    P1
_symmetry_Int_Tables_number       1
_space_group_crystal_system       triclinic
_cell_length_a                    19.321608
_cell_length_b                    10.929947
_cell_length_c                    9.664042
_cell_angle_alpha                 90.979973
_cell_angle_beta                  89.137358
_cell_angle_gamma                 90.131956
_cell_volume                      2040.35844728

loop_
_atom_site_label
_atom_site_type_symbol
_atom_type_description
_atom_site_fract_x
_atom_site_fract_y
_atom_site_fract_z
_atom_type_partial_charge
C1    C     C_R   0.497938 0.265103 0.498497 0.926616
C2    C     C_R   0.291152 0.498575 0.504948 -0.023350
C3    C     C_R   0.929160 0.476556 0.525700 0.574342
C4    C     C_R   0.069248 0.489216 0.518538 0.412692
C5    C     C_R   0.814564 0.542726 0.619896 0.419990
C6    C     C_R   0.742978 0.550159 0.605484 -0.315372
C7    C     C_R   0.709145 0.488548 0.497698 -0.245613
C8    C     C_R   0.748046 0.414724 0.401621 0.328146
C9    C     C_R   0.818948 0.393270 0.429042 0.264504
C10   C     C_R   0.853096 0.468745 0.527041 -0.216005
C11   C     C_2   0.482359 0.929973 0.391090 -0.200360
C12   C     C_R   0.367311 0.499804 0.501178 0.806842
C13   C     C_2   0.490923 0.866516 0.506610 -0.362948
C14   C     C_2   0.471143 0.062505 0.393794 0.440483
C15   C     C_2   0.499719 0.132560 0.494693 -0.396838
C16   C     C_2   0.454252 0.441448 0.922280 -0.039086
C17   C     C_2   0.451542 0.448856 0.078089 0.005709
C18   C     C_R   0.498346 0.734808 0.501379 0.876082
C19   C     C_R   0.632737 0.496231 0.498452 0.894802
C20   C     C_R   0.255310 0.498297 0.632514 -0.173623
C21   C     C_R   0.183233 0.495868 0.636960 -0.136348
C22   C     C_R   0.145528 0.493700 0.513924 0.056329
C23   C     C_R   0.181423 0.494512 0.386270 -0.132248
C24   C     C_R   0.253578 0.496843 0.381835 -0.133850
Cu1   Cu    Cu3+1 0.500010 0.500020 0.638630 0.973823
Cu2   Cu    Cu3+1 0.499990 0.499980 0.361370 1.043088
H1    H     H_    0.282894 0.499578 0.729271 0.154320
H2    H     H_    0.488065 0.910047 0.608269 0.160755
H3    H     H_    0.529266 0.091811 0.576458 0.136015
H4    H     H_    0.415135 0.386504 0.871004 0.164320
H5    H     H_    0.533632 0.556867 0.894250 0.200653
H6    H     H_    0.407355 0.407424 0.129542 0.197959
H7    H     H_    0.542878 0.532080 0.105116 0.222302
H8    H     H_    0.157173 0.495353 0.736930 0.160303
H9    H     H_    0.153879 0.492749 0.289509 0.161219
H10   H     H_    0.279852 0.496856 0.282036 0.155067
H11   H     H_    0.713665 0.609071 0.675931 0.182733
H12   H     H_    0.480540 0.882922 0.291285 0.187345
N1    N     N_R   0.032775 0.489053 0.399705 -0.221428
N2    N     N_R   0.964080 0.483048 0.403260 -0.185261
N3    N     N_R   0.965359 0.477757 0.644863 -0.184419
N4    N     N_R   0.034172 0.483855 0.641253 -0.234472
N5    N     N_2   0.499250 0.498660 0.846910 -0.282902
N6    N     N_2   0.499230 0.498630 0.153040 -0.281073
O1    O     O_R   0.500010 0.321960 0.617040 -0.580484
O2    O     O_R   0.499990 0.321920 0.382900 -0.495793
O3    O     O_R   0.400160 0.500010 0.617110 -0.595948
O4    O     O_R   0.400130 0.499970 0.382960 -0.577992
O5    O     O_R   0.500010 0.678080 0.617100 -0.583677
O6    O     O_R   0.499990 0.678040 0.382960 -0.580730
O7    O     O_R   0.599870 0.500030 0.617040 -0.586941
O8    O     O_R   0.599840 0.499990 0.382890 -0.511666
S1    S     S_3+6 0.419661 0.120810 0.259460 0.012232
O9    O     O_2   0.372043 0.219041 0.315192 -0.283828
O10   O     O_2   0.466067 0.173363 0.149178 -0.319558
O11   O     O_3   0.371443 0.007889 0.189502 -0.505123
H13   H     H_    0.400651 0.971328 0.114577 0.347767
O12   O     O_3   0.847844 0.614393 0.718313 -0.584618
C25   C     C_3   0.829849 0.573277 0.852175 0.097906
H14   H     H_    0.837266 0.472372 0.859847 0.176098
H15   H     H_    0.775073 0.596471 0.878089 0.158471
C26   C     C_3   0.876214 0.636826 0.958233 -0.327772
H16   H     H_    0.931043 0.611244 0.936852 0.245100
H17   H     H_    0.871326 0.737664 0.948976 0.243824
C27   C     C_3   0.856514 0.600901 0.105711 -0.787396
H18   H     H_    0.802644 0.629710 0.131093 0.268309
H19   H     H_    0.891962 0.646429 0.179972 0.261275
H20   H     H_    0.860755 0.500440 0.117345 0.308055
S2    S     S_3+6 0.709868 0.359059 0.244812 0.047944
O13   O     O_2   0.680276 0.465343 0.168852 -0.334952
O14   O     O_2   0.760666 0.296437 0.148454 -0.207738
O15   O     O_3   0.646071 0.260264 0.284747 -0.508316
H21   H     H_    0.619036 0.250617 0.198948 0.390164
S3    S     S_3+6 0.861920 0.258473 0.365838 0.072217
O16   O     O_2   0.916249 0.219873 0.465887 -0.275979
O17   O     O_2   0.810855 0.155358 0.349886 -0.206599
O18   O     O_3   0.900312 0.286336 0.212252 -0.501094
H22   H     H_    0.922219 0.207870 0.183682 0.385601

loop_
_geom_bond_atom_site_label_1
_geom_bond_atom_site_label_2
_ccdc_geom_bond_type
C11   H12   S    
N3    N4    A    
C12   O4    A    
C2    C12   S    
Cu1   N5    S    
Cu2   N6    S    
C7    C8    A    
O18   H22   S    
C8    S2    S    
C24   H10   S    
S3    O17   D    
C5    O12   S    
Cu2   O6    S    
C5    C6    A    
C11   C14   S    
C1    O2    A    
C16   H4    S    
O11   H13   S    
S2    O14   D    
C26   H17   S    
C19   O8    A    
C16   C17   S    
C27   H19   S    
S3    O18   S    
C23   C24   A    
C13   H2    S    
C1    C15   S    
C9    C10   A    
Cu1   O3    S    
Cu2   O4    S    
C25   H14   S    
C21   C22   A    
C12   O3    A    
C15   H3    S    
S1    O10   D    
C25   H15   S    
S3    O16   D    
C2    C20   A    
N1    N2    A    
C8    C9    A    
C21   H8    S    
Cu1   Cu2   S    
S1    O9    D    
S2    O15   S    
Cu1   O7    S    
C26   H16   S    
Cu2   O8    S    
C4    C22   S    
C4    N1    A    
C27   H20   S    
C6    H11   S    
C16   N5    D    
H5    N5    S    
C13   C18   S    
C3    N2    A    
C7    C19   S    
C2    C24   A    
C9    S3    S    
Cu1   O1    S    
C18   O6    A    
S1    O11   S    
C3    N3    A    
C25   C26   S    
C26   C27   S    
C22   C23   A    
H7    N6    S    
O15   H21   S    
C6    C7    A    
C20   H1    S    
C23   H9    S    
O12   C25   S    
C17   N6    D    
C5    C10   A    
C3    C10   S    
C11   C13   D    
C1    O1    A    
C4    N4    A    
S2    O13   D    
Cu1   O5    S    
Cu2   O2    S    
C19   O7    A    
C14   S1    S    
C20   C21   A    
C27   H18   S    
C17   H6    S    
C14   C15   D    
C18   O5    A    
