data_mof_unit_23054.cif
_audit_creation_date              2013-03-05T15:40:34-0500
_audit_creation_method            fapswitch 2.2
_symmetry_space_group_name_H-M    P1
_symmetry_Int_Tables_number       1
_space_group_crystal_system       triclinic
_cell_length_a                    7.905359
_cell_length_b                    8.54694
_cell_length_c                    10.587904
_cell_angle_alpha                 91.204626
_cell_angle_beta                  86.866584
_cell_angle_gamma                 93.221257
_cell_volume                      713.075176644

loop_
_atom_site_label
_atom_site_type_symbol
_atom_site_description
_atom_site_fract_x
_atom_site_fract_y
_atom_site_fract_z
_atom_type_partial_charge
O1    O     O_R   0.389250 0.738570 0.508280 -0.603898
O2    O     O_R   0.610750 0.261430 0.491720 -0.593875
O3    O     O_R   0.678390 0.711630 0.486650 -0.576317
O4    O     O_R   0.321610 0.288370 0.513350 -0.566928
C1    C     C_R   0.544908 0.793934 0.497695 0.974511
C2    C     C_R   0.455144 0.206145 0.502054 0.954454
O5    O     O_R   0.355430 0.513480 0.694040 -0.622811
O6    O     O_R   0.644570 0.486520 0.305960 -0.618752
O7    O     O_R   0.644570 0.486540 0.672410 -0.625148
O8    O     O_R   0.355430 0.513460 0.327590 -0.612282
C3    C     C_R   0.507246 0.516259 0.740213 0.878768
C4    C     C_R   0.501025 0.524681 0.262429 0.879321
Zn1   Zn    Zn3+2 0.306940 0.517990 0.514440 1.058263
Zn2   Zn    Zn3+2 0.693060 0.482010 0.485560 1.060725
H1    H     H_    0.059989 0.477784 0.935227 0.167476
H2    H     H_    0.058791 0.857169 0.105360 0.183736
C5    C     C_R   0.257460 0.708412 0.878488 0.247241
C6    C     C_R   0.806896 0.662342 0.129161 0.217794
C7    C     C_R   0.095750 0.721244 0.940099 -0.133118
C8    C     C_R   0.967804 0.622381 0.082477 -0.146512
C9    C     C_R   0.095552 0.741837 0.073375 -0.193887
C10   C     C_R   0.989057 0.582526 0.953785 -0.181692
C11   C     C_R   0.240896 0.708957 0.136361 -0.193996
C12   C     C_R   0.844606 0.559557 0.881365 -0.143307
C13   C     C_R   0.369907 0.628543 0.071899 0.034877
C14   C     C_R   0.678355 0.570583 0.937449 0.025872
C15   C     C_R   0.378837 0.625305 0.939106 0.031237
C16   C     C_R   0.665759 0.600130 0.067836 0.052719
C17   C     C_R   0.508788 0.582240 0.133028 -0.194568
C18   C     C_R   0.523457 0.565539 0.873080 -0.186139
H3    H     H_    0.030999 0.814034 0.896403 0.185212
H4    H     H_    0.996094 0.524476 0.141054 0.190501
H5    H     H_    0.251034 0.747275 0.233962 0.199444
H6    H     H_    0.870019 0.519689 0.786069 0.219648
C19   C     C_2   0.568385 0.957615 0.498087 -0.354177
C20   C     C_2   0.431910 0.042513 0.500588 -0.387166
H7    H     H_    0.697864 0.007734 0.496799 0.245351
H8    H     H_    0.302652 0.992737 0.503373 0.254923
N1    N     N_2   0.950330 0.457950 0.466250 0.025908
N2    N     N_2   0.049670 0.542050 0.533750 0.019185
N3    N     N_2   0.314848 0.818292 0.783670 -0.287200
H9    H     H_    0.220745 0.854449 0.729256 0.277517
C21   C     C_3   0.419282 0.949176 0.831107 -0.786944
H10   H     H_    0.455582 0.032279 0.754278 0.246677
H11   H     H_    0.537574 0.907810 0.867895 0.258860
H12   H     H_    0.348127 0.012996 0.907616 0.236544
N4    N     N_2   0.786537 0.777629 0.227753 -0.296003
H13   H     H_    0.890152 0.797008 0.281547 0.284926
C22   C     C_3   0.717597 0.921648 0.188574 -0.777371
H14   H     H_    0.729079 0.012532 0.264330 0.270180
H15   H     H_    0.581392 0.901689 0.169633 0.241623
H16   H     H_    0.787964 0.967318 0.102096 0.238747
N5    N     N_R   0.999558 0.306125 0.446545 0.307783
O9    O     O_R   0.972709 0.205267 0.536768 -0.383484
O10   O     O_R   0.033223 0.255859 0.331667 -0.415706
N6    N     N_R   0.004536 0.696261 0.545615 0.289366
O11   O     O_R   0.931433 0.746536 0.650357 -0.444191
O12   O     O_R   0.063215 0.797347 0.462150 -0.433917

loop_
_geom_bond_atom_site_label_1
_geom_bond_atom_site_label_2
_geom_bond_distance
_ccdc_geom_bond_type
O7    Zn2   1.994455 S    
H2    C9    1.085462 S    
C4    C17   1.462422 S    
C13   C15   1.403679 A    
C21   H11   1.110840 S    
N3    H9    1.030051 S    
N5    O10   1.300126 A    
C14   C16   1.397383 A    
C19   C20   1.332384 D    
O6    C4    1.308283 A    
C22   H16   1.111359 S    
C7    H3    1.091767 S    
C6    N4    1.429241 S    
C7    C10   1.421116 A    
C20   H8    1.083688 S    
N4    C22   1.451149 S    
N2    N6    1.386110 S    
N1    N5    1.383959 S    
N5    O9    1.300989 A    
N6    O11   1.298577 A    
C15   C18   1.421251 A    
O5    C3    1.319242 A    
N3    C21   1.450230 S    
O2    C2    1.292507 A    
O3    Zn2   1.972222 S    
O8    C4    1.309009 A    
C21   H10   1.106533 S    
O1    C1    1.293212 A    
C1    C19   1.400800 S    
C16   C17   1.388939 A    
C19   H7    1.086664 S    
C2    C20   1.400166 S    
C14   C18   1.431736 A    
C5    N3    1.427461 S    
O7    C3    1.302507 A    
C9    C11   1.404229 A    
C13   C17   1.384994 A    
O2    Zn2   1.960767 S    
C21   H12   1.111868 S    
C10   C12   1.412342 A    
O1    Zn1   1.960767 S    
C8    C10   1.400997 A    
C5    C15   1.414309 A    
N4    H13   1.026921 S    
O5    Zn1   1.961861 S    
C11   C13   1.400471 A    
C6    C16   1.395423 A    
C8    C9    1.396139 A    
C11   H5    1.083260 S    
C6    C8    1.397152 A    
O4    C2    1.299463 A    
C22   H14   1.108522 S    
C8    H4    1.092201 S    
N1    N2    1.272982 D    
C5    C7    1.411875 A    
Zn1   N2    2.054327 S    
O6    Zn2   1.961861 S    
O3    C1    1.299421 A    
Zn2   N1    2.054327 S    
C7    C9    1.418297 A    
N6    O12   1.298009 A    
H1    C10   1.091526 S    
C12   H6    1.070323 S    
O4    Zn1   1.972222 S    
C3    C18   1.470239 S    
C12   C14   1.419525 A    
C22   H15   1.109162 S    
O8    Zn1   1.994455 S    
