data_mof_unit_34467.cif
_audit_creation_date              2012-12-10T17:07:49-0500
_audit_creation_method            fapswitch 2.2
_symmetry_space_group_name_H-M    P1
_symmetry_Int_Tables_number       1
_space_group_crystal_system       triclinic
_cell_length_a                    10.867574
_cell_length_b                    10.803967
_cell_length_c                    10.052175
_cell_angle_alpha                 90.277903
_cell_angle_beta                  89.42233
_cell_angle_gamma                 88.011918
_cell_volume                      1179.46877136

loop_
_atom_site_label
_atom_site_type_symbol
_atom_type_description
_atom_site_fract_x
_atom_site_fract_y
_atom_site_fract_z
_atom_type_partial_charge
C1    C     C_R   0.512269 0.263614 0.499511 0.842911
C2    C     C_3   0.877257 0.494963 0.500981 -0.267192
C3    C     C_3   0.923648 0.612722 0.424238 0.140064
C4    C     C_3   0.928117 0.379960 0.418521 0.263189
C5    C     C_2   0.496615 0.937130 0.392561 0.434975
C6    C     C_2   0.482037 0.869817 0.504441 0.291453
C7    C     C_2   0.481703 0.070053 0.400943 -0.373528
C8    C     C_2   0.539613 0.132475 0.494503 0.356532
C9    C     C_2   0.514875 0.597359 0.929873 -0.059087
C10   C     C_2   0.484769 0.598417 0.075904 -0.106240
C11   C     C_R   0.257551 0.495497 0.500564 1.024057
C12   C     C_R   0.496520 0.737478 0.500510 0.891965
C13   C     C_R   0.741681 0.497195 0.499764 0.925516
C14   C     C_3   0.068781 0.503405 0.655907 -0.271065
C15   C     C_3   0.925260 0.488049 0.648804 -0.297987
C16   C     C_3   0.068384 0.610145 0.413049 0.232512
C17   C     C_3   0.073071 0.366035 0.432560 0.338385
C18   C     C_3   0.119860 0.494239 0.501649 -0.340069
H1    H     H_    0.905769 0.402404 0.313344 0.099058
H2    H     H_    0.892348 0.593728 0.321803 0.172511
H3    H     H_    0.417444 0.114542 0.332798 0.179668
H4    H     H_    0.455976 0.684857 0.123758 0.234898
H5    H     H_    0.549270 0.427253 0.105115 0.173591
H6    H     H_    0.878934 0.567639 0.699291 0.203641
N1    N     N_2   0.501360 0.501330 0.852150 -0.178442
N2    N     N_2   0.501390 0.501360 0.147810 -0.182611
O1    O     O_R   0.499980 0.319060 0.613040 -0.603441
O2    O     O_R   0.500020 0.319100 0.386900 -0.631089
O3    O     O_R   0.314770 0.499960 0.613070 -0.586932
O4    O     O_R   0.314820 0.500000 0.386930 -0.520528
O5    O     O_R   0.499980 0.680900 0.613100 -0.589571
O6    O     O_R   0.500020 0.680940 0.386960 -0.573078
O7    O     O_R   0.685180 0.500000 0.613070 -0.612676
O8    O     O_R   0.685230 0.500040 0.386930 -0.641894
Zn1   Zn    Zn3+2 0.499970 0.499970 0.650990 1.060500
Zn2   Zn    Zn3+2 0.500030 0.500030 0.349010 1.029488
C19   C     C_2   0.095647 0.627081 0.728081 0.891276
O9    O     O_2   0.025652 0.666954 0.815801 -0.629664
O10   O     O_R   0.207937 0.684605 0.712079 -0.783624
H7    H     H_    0.218189 0.755113 0.777485 0.349958
O11   O     O_3   0.103891 0.584304 0.277580 -0.613821
C20   C     C_3   0.064882 0.674205 0.182527 -0.092287
H8    H     H_    0.146991 0.707507 0.128846 0.209584
H9    H     H_    0.013036 0.755983 0.224900 0.129545
H10   H     H_    0.005479 0.629377 0.108607 0.215124
O12   O     O_3   0.513225 0.881874 0.268469 -0.604764
C21   C     C_3   0.625831 0.919004 0.212947 -0.243745
H11   H     H_    0.703034 0.908659 0.284684 0.176037
H12   H     H_    0.617568 0.015873 0.176357 0.163448
H13   H     H_    0.649733 0.858146 0.126837 0.200926
O13   O     O_3   0.467696 0.923501 0.629988 -0.602787
C22   C     C_3   0.343962 0.961152 0.653998 -0.317284
H14   H     H_    0.327690 0.963665 0.763071 0.220304
H15   H     H_    0.277476 0.897257 0.611068 0.196147
H16   H     H_    0.326085 0.056457 0.617364 0.175954
O14   O     O_3   0.640306 0.075912 0.558419 -0.633803
C23   C     C_3   0.651476 0.116483 0.690708 -0.108998
H17   H     H_    0.563552 0.108936 0.746602 0.217508
H18   H     H_    0.685053 0.211943 0.694475 0.204272
H19   H     H_    0.720580 0.055241 0.740599 0.149304
C24   C     C_2   0.572032 0.709112 0.879609 0.989150
O15   O     O_2   0.669912 0.699990 0.819351 -0.634098
O16   O     O_R   0.518626 0.825634 0.909119 -0.808979
H20   H     H_    0.569733 0.895624 0.874782 0.347208
C25   C     C_2   0.429933 0.402315 0.900176 1.028497
O17   O     O_2   0.330260 0.423675 0.954701 -0.606097
O18   O     O_R   0.476061 0.280770 0.887905 -0.841873
H21   H     H_    0.419536 0.218582 0.929282 0.314243
C26   C     C_2   0.125650 0.407220 0.755305 1.089425
O19   O     O_2   0.090929 0.410661 0.871786 -0.556038
O20   O     O_R   0.215337 0.317026 0.718626 -0.734301
H22   H     H_    0.233273 0.254831 0.791642 0.337336
C27   C     C_2   0.877672 0.378076 0.729559 1.058109
O21   O     O_2   0.805904 0.397918 0.822555 -0.612610
O22   O     O_R   0.922871 0.257161 0.706161 -0.725012
H23   H     H_    0.894285 0.196490 0.775523 0.318161
C28   C     C_2   0.127034 0.733458 0.448642 0.945721
O23   O     O_2   0.075937 0.810270 0.521569 -0.668091
O24   O     O_R   0.235891 0.763840 0.383281 -0.787015
H24   H     H_    0.252383 0.855296 0.389671 0.303564
O25   O     O_3   0.865951 0.733235 0.437909 -0.637755
C29   C     C_3   0.821769 0.767800 0.564788 -0.129620
H25   H     H_    0.892121 0.758255 0.642095 0.218691
H26   H     H_    0.737342 0.719944 0.589378 0.186149
H27   H     H_    0.795171 0.867708 0.561918 0.209501
C30   C     C_2   0.135465 0.338463 0.294740 0.917937
O26   O     O_2   0.078657 0.350695 0.190817 -0.585066
O27   O     O_R   0.256512 0.290614 0.288736 -0.795370
H28   H     H_    0.286671 0.274459 0.194240 0.357420
O28   O     O_3   0.101209 0.265910 0.520657 -0.549405
C31   C     C_3   0.103327 0.144189 0.466203 -0.055229
H29   H     H_    0.199519 0.113602 0.443267 0.122630
H30   H     H_    0.048661 0.134084 0.374941 0.126607
H31   H     H_    0.066773 0.080378 0.541894 0.217423
O29   O     O_3   0.867949 0.270168 0.456215 -0.548167
C32   C     C_3   0.815758 0.210706 0.345293 -0.302084
H32   H     H_    0.880379 0.202546 0.258919 0.156493
H33   H     H_    0.730155 0.260975 0.314450 0.183413
H34   H     H_    0.793177 0.115171 0.373474 0.221041

loop_
_geom_bond_atom_site_label_1
_geom_bond_atom_site_label_2
_ccdc_geom_bond_type
C11   C18   S    
C1    C8    S    
O11   C20   S    
C14   C18   S    
O29   C32   S    
C8    O14   S    
O25   C29   S    
O28   C31   S    
C9    N1    D    
C7    C8    D    
C21   H12   S    
C28   O23   D    
C10   H4    S    
C9    C24   S    
O6    Zn2   S    
C6    C12   S    
C5    C6    D    
C30   O27   S    
C23   H18   S    
C32   H34   S    
O14   C23   S    
C24   O16   S    
C16   C28   S    
C27   O21   D    
H5    N2    S    
C26   O20   S    
C2    C13   S    
C4    H1    S    
C11   O4    A    
C25   O18   S    
C32   H33   S    
C3    O25   S    
C1    O2    A    
C6    O13   S    
C9    C10   S    
C22   H16   S    
C10   N2    D    
C12   O6    A    
C27   O22   S    
C26   O19   D    
C20   H9    S    
C22   H15   S    
C21   H13   S    
C28   O24   S    
C17   C30   S    
N1    C25   S    
O24   H24   S    
C31   H29   S    
C5    C7    S    
C30   O26   D    
C23   H19   S    
O1    Zn1   S    
C7    H3    S    
O18   H21   S    
C20   H10   S    
C2    C4    S    
O22   H23   S    
C13   O7    A    
C19   O9    D    
C31   H30   S    
C4    O29   S    
C21   H11   S    
C32   H32   S    
C17   C18   S    
C3    H2    S    
C2    C15   S    
O2    Zn2   S    
N1    Zn1   S    
C4    C17   S    
N2    Zn2   S    
C15   H6    S    
C15   C27   S    
C29   H25   S    
C29   H26   S    
C12   O5    A    
C14   C26   S    
O5    Zn1   S    
C20   H8    S    
O10   H7    S    
C22   H14   S    
O12   C21   S    
C17   O28   S    
C29   H27   S    
C5    O12   S    
O3    Zn1   S    
O4    Zn2   S    
C2    C3    S    
O13   C22   S    
C19   O10   S    
C14   C19   S    
C23   H17   S    
O7    Zn1   S    
O8    Zn2   S    
C24   O15   D    
O16   H20   S    
C13   O8    A    
O20   H22   S    
O27   H28   S    
C11   O3    A    
C16   C18   S    
C25   O17   D    
C1    O1    A    
C14   C15   S    
C16   O11   S    
C3    C16   S    
C31   H31   S    
