data_mof_unit_50374.cif
_audit_creation_date              2013-03-05T15:48:51-0500
_audit_creation_method            fapswitch 2.2
_symmetry_space_group_name_H-M    P1
_symmetry_Int_Tables_number       1
_space_group_crystal_system       triclinic
_cell_length_a                    18.008875
_cell_length_b                    24.64507
_cell_length_c                    15.077819
_cell_angle_alpha                 90.07505
_cell_angle_beta                  125.741388
_cell_angle_gamma                 89.929395
_cell_volume                      5431.62554629

loop_
_atom_site_label
_atom_site_type_symbol
_atom_site_description
_atom_site_fract_x
_atom_site_fract_y
_atom_site_fract_z
_atom_type_partial_charge
C1    C     C_R   0.945525 0.849435 0.093911 0.334086
C2    C     C_R   0.946174 0.150843 0.093803 0.327480
C3    C     C_R   0.445375 0.349486 0.093923 0.334017
C4    C     C_R   0.446336 0.650910 0.093762 0.327186
N1    N     N_R   0.950530 0.896220 0.057200 -0.063252
N2    N     N_R   0.950530 0.103780 0.057200 -0.063119
N3    N     N_R   0.450530 0.396220 0.057200 -0.063226
N4    N     N_R   0.450530 0.603780 0.057200 -0.063179
C5    C     C_R   0.852073 0.151213 0.910873 -0.165706
C6    C     C_R   0.851710 0.848866 0.910864 -0.172260
C7    C     C_R   0.352238 0.651264 0.910857 -0.165182
C8    C     C_R   0.351566 0.348915 0.910857 -0.172630
H1    H     H_    0.806731 0.164365 0.826856 0.173880
H2    H     H_    0.806436 0.835616 0.826841 0.179163
H3    H     H_    0.306988 0.664417 0.826828 0.173783
H4    H     H_    0.306243 0.335668 0.826838 0.179201
N5    N     N_R   0.893330 0.103780 0.942800 -0.060913
N6    N     N_R   0.893330 0.896220 0.942800 -0.062858
N7    N     N_R   0.393330 0.603780 0.942800 -0.060912
N8    N     N_R   0.393330 0.396220 0.942800 -0.062763
C9    C     C_R   0.734847 0.955103 0.755093 -0.016885
C10   C     C_R   0.734509 0.045674 0.749711 -0.064066
C11   C     C_R   0.234839 0.455098 0.754998 -0.017022
C12   C     C_R   0.234485 0.545673 0.749545 -0.063470
H5    H     H_    0.717736 0.913740 0.756859 0.152916
H6    H     H_    0.717584 0.087737 0.738376 0.165647
H7    H     H_    0.217737 0.413738 0.756772 0.153102
H8    H     H_    0.217569 0.587740 0.738122 0.165296
N9    N     N_R   0.818150 0.971400 0.792440 -0.048551
N10   N     N_R   0.818150 0.028600 0.792440 -0.046468
N11   N     N_R   0.318150 0.471400 0.792440 -0.048545
N12   N     N_R   0.318150 0.528600 0.792440 -0.046618
C13   C     C_R   0.046955 0.044808 0.303614 -0.062048
C14   C     C_R   0.047406 0.955537 0.304005 -0.063836
C15   C     C_R   0.546985 0.544806 0.303627 -0.062380
C16   C     C_R   0.547442 0.455539 0.304029 -0.063856
H9    H     H_    0.070299 0.085093 0.332815 0.175902
H10   H     H_    0.071678 0.915435 0.333991 0.176317
H11   H     H_    0.570361 0.585087 0.332816 0.175917
H12   H     H_    0.571687 0.415432 0.334011 0.176361
N13   N     N_R   0.025710 0.028600 0.207560 -0.066353
N14   N     N_R   0.025710 0.971400 0.207560 -0.066550
N15   N     N_R   0.525710 0.528600 0.207560 -0.066401
N16   N     N_R   0.525710 0.471400 0.207560 -0.066483
C17   C     C_R   0.875716 0.821545 0.003715 0.086066
C18   C     C_R   0.876785 0.178868 0.003783 0.079931
C19   C     C_R   0.375442 0.321668 0.003714 0.086175
C20   C     C_R   0.377124 0.679031 0.003732 0.079302
C21   C     C_R   0.677630 0.000253 0.714188 -0.021214
C22   C     C_R   0.177621 0.500237 0.713988 -0.021137
C23   C     C_R   0.054143 0.000284 0.365078 0.190666
C24   C     C_R   0.554205 0.500286 0.365121 0.190750
C25   C     C_R   0.264723 0.954866 0.284281 -0.128805
C26   C     C_R   0.264517 0.045305 0.284432 -0.115824
C27   C     C_R   0.764713 0.454815 0.284111 -0.126967
C28   C     C_R   0.764552 0.545254 0.284477 -0.117672
H13   H     H_    0.276685 0.915094 0.318976 0.114143
H14   H     H_    0.275422 0.084923 0.319015 0.120872
H15   H     H_    0.776612 0.415027 0.318708 0.113565
H16   H     H_    0.775555 0.584845 0.319221 0.121485
N17   N     N_R   0.181850 0.971400 0.207560 -0.051733
N18   N     N_R   0.181850 0.028600 0.207560 -0.053998
N19   N     N_R   0.681850 0.471400 0.207560 -0.051694
N20   N     N_R   0.681850 0.528600 0.207560 -0.054012
C29   C     C_R   0.930099 0.044868 0.689107 0.292766
C30   C     C_R   0.930645 0.955483 0.688943 0.280949
C31   C     C_R   0.430162 0.544900 0.689151 0.292478
C32   C     C_R   0.430564 0.455517 0.688893 0.281348
N21   N     N_R   0.974290 0.028600 0.792440 -0.122753
N22   N     N_R   0.974290 0.971400 0.792440 -0.122128
N23   N     N_R   0.474290 0.528600 0.792440 -0.122814
N24   N     N_R   0.474290 0.471400 0.792440 -0.121974
C33   C     C_R   0.083493 0.863434 0.906618 -0.111230
C34   C     C_R   0.083050 0.136852 0.906696 -0.113549
C35   C     C_R   0.582693 0.362737 0.906684 -0.111086
C36   C     C_R   0.583662 0.636332 0.906666 -0.113711
H17   H     H_    0.053010 0.856714 0.821499 0.177723
H18   H     H_    0.052445 0.143699 0.821617 0.180036
H19   H     H_    0.551942 0.355743 0.821579 0.177999
H20   H     H_    0.553238 0.643008 0.821580 0.179848
N25   N     N_R   0.049470 0.896220 0.942800 -0.044181
N26   N     N_R   0.049470 0.103780 0.942800 -0.044699
N27   N     N_R   0.549470 0.396220 0.942800 -0.044313
N28   N     N_R   0.549470 0.603780 0.942800 -0.044587
C37   C     C_R   0.174753 0.136587 0.091131 0.036908
C38   C     C_R   0.175063 0.863638 0.091070 0.039248
C39   C     C_R   0.675372 0.636067 0.091075 0.037718
C40   C     C_R   0.674291 0.363003 0.091156 0.038388
H21   H     H_    0.228865 0.142889 0.176011 0.112553
H22   H     H_    0.229061 0.857263 0.175930 0.111462
H23   H     H_    0.729620 0.642289 0.175914 0.112261
H24   H     H_    0.728149 0.356583 0.176067 0.111870
N29   N     N_R   0.106670 0.103780 0.057200 -0.075880
N30   N     N_R   0.106670 0.896220 0.057200 -0.075422
N31   N     N_R   0.606670 0.603780 0.057200 -0.075840
N32   N     N_R   0.606670 0.396220 0.057200 -0.075440
Ni1   Ni    Ni4+2 0.065600 0.934400 0.131190 0.236542
Ni2   Ni    Ni4+2 0.065600 0.065600 0.131190 0.237078
Ni3   Ni    Ni4+2 0.565600 0.434400 0.131190 0.236336
Ni4   Ni    Ni4+2 0.565600 0.565600 0.131190 0.237268
Ni5   Ni    Ni4+2 0.934400 0.065600 0.868810 0.310613
Ni6   Ni    Ni4+2 0.934400 0.934400 0.868810 0.316449
Ni7   Ni    Ni4+2 0.434400 0.565600 0.868810 0.310663
Ni8   Ni    Ni4+2 0.434400 0.434400 0.868810 0.316350
C41   C     C_R   0.321855 0.000167 0.324236 0.152011
C42   C     C_R   0.821864 0.500096 0.324106 0.152110
C43   C     C_R   0.912579 0.000297 0.622439 -0.115104
C44   C     C_R   0.412576 0.500346 0.622433 -0.115288
C45   C     C_R   0.159263 0.839684 0.998109 0.164403
C46   C     C_R   0.158536 0.160763 0.998202 0.167461
C47   C     C_R   0.658152 0.338806 0.998224 0.164671
C48   C     C_R   0.659412 0.660084 0.998154 0.167257
C49   C     C_3   0.959087 0.053042 0.412411 0.022637
C50   C     C_3   0.957544 0.948582 0.410819 0.025659
C51   C     C_3   0.459347 0.553130 0.412676 0.023130
C52   C     C_3   0.457407 0.448666 0.410635 0.025117
H25   H     H_    0.903564 0.045700 0.324703 0.130713
H26   H     H_    0.902156 0.957002 0.323685 0.124180
H27   H     H_    0.403748 0.545857 0.324976 0.130212
H28   H     H_    0.402129 0.457141 0.323479 0.124635
C53   C     C_3   0.915584 0.055253 0.476978 0.356347
C54   C     C_3   0.914876 0.946002 0.476271 0.359186
C55   C     C_3   0.415967 0.555411 0.477375 0.356413
C56   C     C_3   0.414556 0.446168 0.475895 0.359170
H29   H     H_    0.080396 0.033657 0.688925 0.229688
H30   H     H_    0.080996 0.968144 0.690592 0.230734
H31   H     H_    0.580637 0.533316 0.689278 0.229582
H32   H     H_    0.580755 0.467796 0.690292 0.230901
C57   C     C_3   0.104787 0.000025 0.569636 0.641164
C58   C     C_3   0.604828 0.499843 0.569694 0.641032
C59   C     C_3   0.024368 0.000454 0.441997 -0.347573
C60   C     C_3   0.524428 0.500455 0.442045 -0.347481
C61   C     C_3   0.946368 0.000510 0.549934 -0.134308
C62   C     C_3   0.446384 0.500556 0.549940 -0.134286
C63   C     C_3   0.055558 0.000511 0.629395 -0.568182
C64   C     C_3   0.555573 0.500302 0.629425 -0.568209
C65   C     C_3   0.710881 0.205724 0.910026 -0.016315
C66   C     C_3   0.709814 0.793837 0.909240 -0.003821
C67   C     C_3   0.211456 0.706403 0.909757 -0.016363
C68   C     C_3   0.209355 0.294308 0.909257 -0.003912
H33   H     H_    0.699097 0.215424 0.830778 0.181578
H34   H     H_    0.698334 0.784278 0.830070 0.177112
H35   H     H_    0.199905 0.716097 0.830629 0.181126
H36   H     H_    0.197769 0.284699 0.830050 0.177298
C69   C     C_3   0.151824 0.745405 0.924251 -0.022684
C70   C     C_3   0.150257 0.255235 0.924477 -0.015371
C71   C     C_3   0.651129 0.244535 0.924705 -0.022462
C72   C     C_3   0.650849 0.754605 0.924368 -0.015747
H37   H     H_    0.633143 0.223265 0.974082 0.260113
H38   H     H_    0.632879 0.775814 0.974009 0.258018
H39   H     H_    0.133433 0.724233 0.973307 0.260292
H40   H     H_    0.132484 0.276547 0.974219 0.258010
H41   H     H_    0.334640 0.767663 0.900210 0.124880
H42   H     H_    0.332694 0.233149 0.899535 0.126178
H43   H     H_    0.833534 0.267330 0.899976 0.124896
H44   H     H_    0.833437 0.732950 0.899638 0.126265
C73   C     C_3   0.341973 0.774068 0.978391 -0.004254
C74   C     C_3   0.340220 0.226746 0.977801 -0.006925
C75   C     C_3   0.840915 0.273722 0.978187 -0.004415
C76   C     C_3   0.840985 0.726508 0.977909 -0.007010
C77   C     C_3   0.826604 0.218012 0.115417 0.166872
C78   C     C_3   0.825493 0.782077 0.114741 0.165810
C79   C     C_3   0.327040 0.718506 0.115222 0.166520
C80   C     C_3   0.325055 0.282480 0.114755 0.165971
C81   C     C_3   0.815603 0.217930 0.003999 -0.157388
C82   C     C_3   0.814769 0.782162 0.003515 -0.156108
C83   C     C_3   0.316203 0.718353 0.003915 -0.157560
C84   C     C_3   0.314285 0.282474 0.003496 -0.156125
H45   H     H_    0.898709 0.222484 0.185303 0.137930
H46   H     H_    0.897621 0.778219 0.184799 0.137391
H47   H     H_    0.399142 0.722883 0.185182 0.137897
H48   H     H_    0.397172 0.278541 0.184795 0.137468
C85   C     C_3   0.213551 0.795507 0.997799 -0.086774
C86   C     C_3   0.212340 0.205123 0.997752 -0.088956
C87   C     C_3   0.712583 0.294766 0.997925 -0.087045
C88   C     C_3   0.713127 0.704556 0.997746 -0.088757
C89   C     C_3   0.274215 0.819767 0.959817 0.281363
C90   C     C_3   0.272798 0.180973 0.959314 0.280286
C91   C     C_3   0.772871 0.319216 0.959526 0.281890
C92   C     C_3   0.773784 0.680578 0.959483 0.279705
C93   C     C_3   0.281181 0.770752 0.118608 -0.050350
C94   C     C_3   0.280067 0.229925 0.118495 -0.053950
C95   C     C_3   0.780554 0.270170 0.118798 -0.050721
C96   C     C_3   0.780703 0.729422 0.118479 -0.053756
H49   H     H_    0.336355 0.801020 0.166577 0.158023
H50   H     H_    0.335715 0.199895 0.166104 0.160974
H51   H     H_    0.835588 0.300535 0.166517 0.158420
H52   H     H_    0.836465 0.699456 0.166133 0.160734
C97   C     C_3   0.476713 0.951655 0.418427 -0.149499
C98   C     C_3   0.475201 0.052208 0.429698 -0.127139
C99   C     C_3   0.976652 0.451467 0.418354 -0.149612
C100  C     C_3   0.975251 0.552040 0.429372 -0.127299
H53   H     H_    0.486893 0.961156 0.353966 0.172138
H54   H     H_    0.499508 0.044662 0.377696 0.154086
H55   H     H_    0.986743 0.460853 0.353779 0.172203
H56   H     H_    0.999538 0.544391 0.377378 0.154078
C101  C     C_3   0.573662 0.951910 0.529407 0.187140
C102  C     C_3   0.562257 0.055773 0.547229 0.160607
C103  C     C_3   0.073657 0.451792 0.529274 0.187135
C104  C     C_3   0.062313 0.555658 0.546879 0.160546
H57   H     H_    0.623101 0.962462 0.510364 0.113337
H58   H     H_    0.619109 0.063597 0.539412 0.133324
H59   H     H_    0.123011 0.462338 0.510100 0.113359
H60   H     H_    0.119168 0.563400 0.539029 0.133254
H61   H     H_    0.376544 0.956594 0.513241 0.191051
H62   H     H_    0.378279 0.028657 0.525341 0.229077
H63   H     H_    0.876477 0.456677 0.513171 0.191008
H64   H     H_    0.878402 0.528753 0.525160 0.229061
H65   H     H_    0.519896 0.950118 0.670125 0.208441
H66   H     H_    0.518449 0.018811 0.691567 0.217976
H67   H     H_    0.019871 0.450119 0.669926 0.208328
H68   H     H_    0.018516 0.518830 0.691390 0.218145
C105  C     C_3   0.415611 0.993641 0.522022 -0.314233
C106  C     C_3   0.915632 0.493666 0.521874 -0.314612
C107  C     C_3   0.418924 0.999775 0.420762 0.130063
C108  C     C_3   0.918933 0.499667 0.420593 0.130093
C109  C     C_3   0.583069 0.999145 0.608900 -0.070069
C110  C     C_3   0.083086 0.499084 0.608689 -0.069928
C111  C     C_3   0.510990 0.989710 0.630772 -0.277486
C112  C     C_3   0.011012 0.489711 0.630592 -0.277575
C113  C     C_3   0.027691 0.826897 0.198566 -0.835587
H69   H     H_    0.018751 0.828827 0.265099 0.269593
H70   H     H_    0.042716 0.785105 0.188123 0.315770
H71   H     H_    0.089338 0.851074 0.224758 0.220611
C114  C     C_3   0.028526 0.173411 0.198261 -0.823969
H72   H     H_    0.043017 0.215298 0.187756 0.315395
H73   H     H_    0.019870 0.171507 0.265023 0.268835
H74   H     H_    0.090201 0.149297 0.224080 0.220408
C115  C     C_3   0.527481 0.326876 0.198540 -0.836278
H75   H     H_    0.518597 0.328874 0.265113 0.269721
H76   H     H_    0.542320 0.285045 0.188053 0.315887
H77   H     H_    0.589208 0.350959 0.224704 0.220495
C116  C     C_3   0.528725 0.673377 0.198314 -0.822947
H78   H     H_    0.543471 0.715214 0.187908 0.315248
H79   H     H_    0.519936 0.671549 0.264976 0.268852
H80   H     H_    0.590310 0.649145 0.224213 0.220413
C117  C     C_3   0.809143 0.061321 0.390693 -0.748665
H81   H     H_    0.789330 0.103374 0.359171 0.320675
H82   H     H_    0.780424 0.039250 0.313808 0.205303
H83   H     H_    0.770972 0.050040 0.424106 0.268575
C118  C     C_3   0.807579 0.940736 0.391430 -0.717266
H84   H     H_    0.782987 0.898377 0.370105 0.320182
H85   H     H_    0.770363 0.960198 0.420425 0.254575
H86   H     H_    0.779531 0.956421 0.309081 0.205526
C119  C     C_3   0.309533 0.561771 0.391280 -0.747437
H87   H     H_    0.289872 0.603941 0.360474 0.320467
H88   H     H_    0.280596 0.540077 0.313955 0.205401
H89   H     H_    0.271350 0.550219 0.424535 0.268091
C120  C     C_3   0.307268 0.441189 0.390816 -0.718234
H90   H     H_    0.282550 0.398880 0.368609 0.320242
H91   H     H_    0.270062 0.460374 0.420083 0.255078
H92   H     H_    0.279430 0.457310 0.308836 0.205086
N33   N     N_R   0.947586 0.105807 0.546126 0.273169
O1    O     O_R   0.033801 0.115955 0.618517 -0.387160
O2    O     O_R   0.891721 0.145944 0.522988 -0.259286
N34   N     N_R   0.948092 0.895235 0.544998 0.273766
O3    O     O_R   0.034435 0.886160 0.618691 -0.388208
O4    O     O_R   0.894059 0.853961 0.520504 -0.252760
N35   N     N_R   0.448476 0.605843 0.546914 0.272855
O5    O     O_R   0.534799 0.615734 0.619202 -0.387921
O6    O     O_R   0.393000 0.646145 0.524195 -0.260260
N36   N     N_R   0.447247 0.395289 0.544260 0.273999
O7    O     O_R   0.533494 0.385930 0.617968 -0.387193
O8    O     O_R   0.392786 0.354211 0.519450 -0.251898
N37   N     N_R   0.166853 0.046729 0.603477 0.280111
O9    O     O_R   0.206302 0.054751 0.554617 -0.337698
O10   O     O_R   0.209255 0.065287 0.702592 -0.329626
N38   N     N_R   0.165180 0.952494 0.602547 0.280780
O11   O     O_R   0.208363 0.934541 0.702107 -0.332728
O12   O     O_R   0.203692 0.943477 0.552844 -0.347705
N39   N     N_R   0.667072 0.546472 0.603804 0.280189
O13   O     O_R   0.709781 0.564731 0.703166 -0.330006
O14   O     O_R   0.706462 0.554552 0.554891 -0.337432
N40   N     N_R   0.665045 0.452237 0.602365 0.280705
O15   O     O_R   0.703708 0.443304 0.552812 -0.347734
O16   O     O_R   0.707803 0.433936 0.701638 -0.331937
C121  C     C_3   0.678360 0.145707 0.898284 -0.739452
H93   H     H_    0.635549 0.134165 0.811117 0.261970
H94   H     H_    0.734771 0.115948 0.941095 0.256949
H95   H     H_    0.635316 0.139160 0.927790 0.280342
C122  C     C_3   0.675492 0.853513 0.896834 -0.773349
H96   H     H_    0.624330 0.862871 0.809354 0.252958
H97   H     H_    0.640385 0.860778 0.936329 0.284612
H98   H     H_    0.729980 0.884337 0.929694 0.255811
C123  C     C_3   0.178526 0.646459 0.897737 -0.738425
H99   H     H_    0.137178 0.634649 0.810724 0.261101
H100  H     H_    0.234804 0.616698 0.942160 0.257601
H101  H     H_    0.133967 0.640234 0.925232 0.280063
C124  C     C_3   0.175317 0.354047 0.896906 -0.773131
H102  H     H_    0.123869 0.363362 0.809473 0.252865
H103  H     H_    0.140622 0.361490 0.936842 0.284614
H104  H     H_    0.229886 0.384787 0.929339 0.255583
C125  C     C_3   0.055455 0.752509 0.815700 -0.773956
H105  H     H_    0.053654 0.776887 0.753311 0.273029
H106  H     H_    0.026894 0.712213 0.777908 0.284477
H107  H     H_    0.006915 0.769473 0.831268 0.263538
C126  C     C_3   0.053481 0.247972 0.816664 -0.790835
H108  H     H_    0.051311 0.223981 0.753506 0.274566
H109  H     H_    0.005820 0.230520 0.833081 0.265764
H110  H     H_    0.023984 0.288208 0.779527 0.272660
C127  C     C_3   0.554538 0.251463 0.816445 -0.773701
H111  H     H_    0.552353 0.275681 0.753628 0.272474
H112  H     H_    0.525984 0.211093 0.779100 0.284431
H113  H     H_    0.506246 0.268536 0.832318 0.263104
C128  C     C_3   0.554179 0.747257 0.816410 -0.790639
H114  H     H_    0.552211 0.723202 0.753451 0.274945
H115  H     H_    0.506398 0.729847 0.832669 0.265926
H116  H     H_    0.524658 0.787457 0.779068 0.272682
C129  C     C_3   0.216437 0.835691 0.836963 -0.752692
H117  H     H_    0.176480 0.802175 0.780831 0.229098
H118  H     H_    0.173122 0.871471 0.820193 0.269074
H119  H     H_    0.262624 0.847900 0.814278 0.295514
C130  C     C_3   0.214808 0.165041 0.836375 -0.750409
H120  H     H_    0.172306 0.128926 0.819893 0.268016
H121  H     H_    0.173975 0.198418 0.780450 0.228805
H122  H     H_    0.260808 0.153253 0.813090 0.296649
C131  C     C_3   0.714822 0.334983 0.836541 -0.754080
H123  H     H_    0.674748 0.301432 0.780618 0.229278
H124  H     H_    0.671602 0.370823 0.819699 0.268966
H125  H     H_    0.760824 0.347095 0.813527 0.295570
C132  C     C_3   0.715922 0.664573 0.836619 -0.749010
H126  H     H_    0.673398 0.628482 0.820218 0.268173
H127  H     H_    0.675114 0.697935 0.780608 0.228675
H128  H     H_    0.762002 0.652753 0.813466 0.296591
N41   N     N_R   0.793186 0.166107 0.132201 0.280075
O17   O     O_R   0.837251 0.121061 0.149222 -0.413744
O18   O     O_R   0.718822 0.162630 0.127290 -0.291163
N42   N     N_R   0.790643 0.833791 0.130412 0.280747
O19   O     O_R   0.830589 0.879618 0.140562 -0.409247
O20   O     O_R   0.719336 0.836281 0.132059 -0.283155
N43   N     N_R   0.293359 0.666701 0.131937 0.280253
O21   O     O_R   0.337687 0.621659 0.149949 -0.413360
O22   O     O_R   0.218340 0.663277 0.125584 -0.290828
N44   N     N_R   0.290413 0.334282 0.130430 0.280612
O23   O     O_R   0.330423 0.380050 0.140342 -0.409532
O24   O     O_R   0.219303 0.336902 0.132458 -0.283797
N45   N     N_R   0.743575 0.261084 0.182987 0.264050
O25   O     O_R   0.800270 0.255366 0.288451 -0.293687
O26   O     O_R   0.656203 0.257819 0.137735 -0.342632
N46   N     N_R   0.743791 0.737772 0.182935 0.264598
O27   O     O_R   0.800505 0.743154 0.288490 -0.290593
O28   O     O_R   0.656407 0.740906 0.137742 -0.344019
N47   N     N_R   0.243912 0.761687 0.182497 0.263932
O29   O     O_R   0.300407 0.755842 0.287950 -0.294321
O30   O     O_R   0.156485 0.758546 0.136990 -0.343016
N48   N     N_R   0.243216 0.238376 0.182990 0.264685
O31   O     O_R   0.299968 0.243749 0.288543 -0.290015
O32   O     O_R   0.155843 0.241573 0.137833 -0.343722
N49   N     N_R   0.438516 0.789127 0.059510 0.268507
O33   O     O_R   0.491260 0.795451 0.027596 -0.295261
O34   O     O_R   0.469431 0.802913 0.158881 -0.359242
N50   N     N_R   0.436844 0.211741 0.058679 0.268449
O35   O     O_R   0.489421 0.205437 0.026488 -0.293656
O36   O     O_R   0.467992 0.197959 0.158077 -0.361235
N51   N     N_R   0.937374 0.289025 0.059132 0.268578
O37   O     O_R   0.989980 0.295498 0.027059 -0.295498
O38   O     O_R   0.968332 0.302812 0.158515 -0.359159
N52   N     N_R   0.937681 0.711672 0.058835 0.268402
O39   O     O_R   0.990317 0.705529 0.026691 -0.292897
O40   O     O_R   0.968861 0.697861 0.158229 -0.361517
N53   N     N_R   0.326178 0.869946 0.019109 0.287277
O41   O     O_R   0.372970 0.894875 0.990535 -0.255376
O42   O     O_R   0.326919 0.890881 0.098639 -0.424284
N54   N     N_R   0.325066 0.130819 0.018365 0.287393
O43   O     O_R   0.371338 0.105805 0.989005 -0.253113
O44   O     O_R   0.327094 0.110201 0.098926 -0.422925
N55   N     N_R   0.824516 0.369534 0.018456 0.287121
O45   O     O_R   0.870761 0.394656 0.989319 -0.255244
O46   O     O_R   0.825776 0.390301 0.098463 -0.424321
N56   N     N_R   0.826291 0.630514 0.018700 0.287510
O47   O     O_R   0.872961 0.605690 0.989697 -0.253026
O48   O     O_R   0.827876 0.609685 0.098810 -0.422918
C133  C     C_3   0.435017 0.894060 0.380952 -0.641828
H129  H     H_    0.380503 0.893214 0.292377 0.230250
H130  H     H_    0.485831 0.864988 0.389165 0.288747
H131  H     H_    0.410263 0.878427 0.428259 0.261930
C134  C     C_3   0.432044 0.108779 0.384327 -0.666487
H132  H     H_    0.382576 0.107766 0.294469 0.237525
H133  H     H_    0.401213 0.126132 0.423664 0.277157
H134  H     H_    0.485606 0.137687 0.399331 0.281252
C135  C     C_3   0.934932 0.393856 0.381189 -0.641586
H135  H     H_    0.880421 0.392889 0.292606 0.230505
H136  H     H_    0.985716 0.364714 0.389537 0.288822
H137  H     H_    0.910181 0.378372 0.428600 0.261696
C136  C     C_3   0.932126 0.608597 0.383840 -0.666540
H138  H     H_    0.882564 0.607492 0.294013 0.237287
H139  H     H_    0.901430 0.626066 0.423246 0.277250
H140  H     H_    0.985677 0.637446 0.398607 0.281249
N57   N     N_R   0.597571 0.896845 0.577512 0.237769
O49   O     O_R   0.553483 0.873764 0.611416 -0.441724
O50   O     O_R   0.653902 0.867231 0.570705 -0.299670
N58   N     N_R   0.557307 0.102880 0.604931 0.232128
O51   O     O_R   0.494337 0.106193 0.621772 -0.407479
O52   O     O_R   0.599820 0.147374 0.612834 -0.392745
N59   N     N_R   0.097688 0.396757 0.577507 0.237760
O53   O     O_R   0.053739 0.373694 0.611615 -0.441957
O54   O     O_R   0.154005 0.367149 0.570663 -0.299299
N60   N     N_R   0.057432 0.602850 0.604453 0.232153
O55   O     O_R   0.994656 0.606213 0.621607 -0.406974
O56   O     O_R   0.099848 0.647328 0.612023 -0.392251
N61   N     N_R   0.863827 0.087525 0.652555 0.265345
O57   O     O_R   0.885095 0.131529 0.710239 -0.395774
O58   O     O_R   0.777834 0.077757 0.577642 -0.412963
N62   N     N_R   0.865762 0.912113 0.651414 0.270024
O59   O     O_R   0.781570 0.919658 0.568311 -0.365151
O60   O     O_R   0.885010 0.869477 0.711920 -0.386725
N63   N     N_R   0.364032 0.587636 0.652676 0.265319
O61   O     O_R   0.385488 0.631633 0.710425 -0.395695
O62   O     O_R   0.277989 0.577944 0.577870 -0.413044
N64   N     N_R   0.365502 0.412243 0.651291 0.270137
O63   O     O_R   0.281392 0.419857 0.568037 -0.365147
O64   O     O_R   0.384494 0.369635 0.711780 -0.386816
N65   N     N_R   0.991054 0.108207 0.409666 0.261309
O65   O     O_R   0.929721 0.145844 0.356362 -0.296352
O66   O     O_R   0.074786 0.124461 0.478129 -0.294138
N66   N     N_R   0.987585 0.893287 0.405233 0.258994
O67   O     O_R   0.070212 0.875506 0.474743 -0.295908
O68   O     O_R   0.924730 0.856773 0.349408 -0.296091
N67   N     N_R   0.491491 0.608256 0.410044 0.261381
O69   O     O_R   0.430294 0.645990 0.356977 -0.295875
O70   O     O_R   0.575314 0.624376 0.478445 -0.294132
N68   N     N_R   0.487297 0.393329 0.405000 0.259032
O71   O     O_R   0.569871 0.375461 0.474456 -0.296032
O72   O     O_R   0.424340 0.356874 0.349136 -0.296292

loop_
_geom_bond_atom_site_label_1
_geom_bond_atom_site_label_2
_geom_bond_distance
_ccdc_geom_bond_type
N36   O8    1.303677 A    
C41   C107  1.483882 S    
C27   H15   1.072272 S    
C104  C110  1.596023 S    
C37   N29   1.298971 A    
C14   N14   1.325698 A    
C25   C41   1.394614 A    
N45   O25   1.301697 A    
C105  C111  1.535603 S    
C127  H111  1.101231 S    
C122  H98   1.103787 S    
H67   C112  1.104470 S    
C50   N66   1.485920 S    
N3    Ni3   1.930165 S    
H42   C74   1.117775 S    
C39   H23   1.074310 S    
N16   Ni3   1.906704 S    
C45   C85   1.464217 S    
N39   O13   1.300568 A    
N32   Ni3   1.906963 S    
C114  H74   1.110056 S    
C1    C113  1.503503 S    
N40   O15   1.303235 A    
C50   C59   1.626305 S    
C5    H1    1.081006 S    
C134  H134  1.111554 S    
C103  N59   1.479620 S    
C68   C124  1.563050 S    
C7    H3    1.081023 S    
N52   O39   1.300978 A    
C92   C132  1.554721 S    
C8    H4    1.081305 S    
C89   N53   1.492269 S    
C76   C82   1.569456 S    
H29   C63   1.096812 S    
C46   C86   1.464394 S    
C5    C18   1.376567 A    
N65   O66   1.296835 A    
C119  H87   1.108783 S    
C36   N28   1.309154 A    
C7    C20   1.376661 A    
C103  C110  1.606347 S    
C8    C19   1.376403 A    
C33   N25   1.309217 A    
C94   N48   1.477336 S    
C105  C107  1.569879 S    
C51   C55   1.566891 S    
C55   C62   1.620699 S    
C24   C60   1.536050 S    
C80   C84   1.572152 S    
H31   C64   1.096935 S    
N58   O52   1.303055 A    
C37   C46   1.388250 A    
C38   H22   1.074256 S    
C133  H131  1.108411 S    
C55   C119  1.573733 S    
C23   C59   1.535938 S    
C39   C48   1.388238 A    
H68   C112  1.107886 S    
N30   Ni1   1.906963 S    
C55   N35   1.506037 S    
C9    N9    1.320216 A    
C21   C109  1.504209 S    
C11   N11   1.320036 A    
C131  H125  1.110209 S    
C73   N49   1.473998 S    
N15   N16   1.409698 A    
C12   N12   1.313862 A    
C115  H75   1.105905 S    
C99   C108  1.590751 S    
C95   N45   1.477931 S    
N51   O37   1.301020 A    
C77   N41   1.497753 S    
C32   N24   1.331817 A    
N50   O35   1.300996 A    
C8    N8    1.316940 A    
C67   C83   1.591319 S    
C28   C42   1.392612 A    
C10   C21   1.396244 A    
N38   O12   1.303239 A    
C32   N64   1.434271 S    
N57   O49   1.300509 A    
C115  H76   1.098871 S    
C16   N16   1.325799 A    
C100  H56   1.114182 S    
C87   C95   1.606903 S    
C127  H113  1.110256 S    
C97   C101  1.560542 S    
C88   C96   1.606610 S    
C26   C41   1.392418 A    
C71   H37   1.103232 S    
C30   N62   1.434239 S    
N35   O6    1.304092 A    
C34   C46   1.381125 A    
C74   N50   1.473885 S    
C53   N33   1.505935 S    
C72   C128  1.550036 S    
N21   Ni5   1.906702 S    
C125  H107  1.110226 S    
C42   C108  1.483703 S    
N66   O67   1.297051 A    
C133  H130  1.110082 S    
C74   C90   1.559405 S    
C123  H100  1.104618 S    
C106  C112  1.535442 S    
C54   N34   1.508128 S    
C30   N22   1.331567 A    
C6    N6    1.317078 A    
C70   C86   1.597819 S    
C66   C122  1.563137 S    
N9    Ni6   1.929266 S    
C99   C135  1.550216 S    
C100  C104  1.536214 S    
N21   N22   1.409698 A    
C31   N63   1.436424 S    
C126  H108  1.101404 S    
C75   C81   1.568477 S    
C93   N47   1.478041 S    
C132  H126  1.103905 S    
C119  H89   1.099523 S    
C61   C63   1.596803 S    
C33   H17   1.073555 S    
C90   C130  1.555110 S    
C35   H19   1.073521 S    
C77   C81   1.572455 S    
C116  H78   1.099126 S    
C136  H139  1.107451 S    
C104  N60   1.483335 S    
C71   C127  1.549943 S    
N49   O33   1.301000 A    
C18   C81   1.463679 S    
C92   N56   1.492453 S    
C79   C93   1.545649 S    
N67   O69   1.299568 A    
C30   C43   1.397138 A    
C35   N27   1.309089 A    
C86   C94   1.606373 S    
C9    C21   1.391686 A    
N61   O57   1.299481 A    
C65   C121  1.562841 S    
C14   C23   1.394988 A    
C113  H69   1.105926 S    
C89   C129  1.554725 S    
C72   H38   1.104389 S    
C115  H77   1.110104 S    
N33   O1    1.298070 A    
C106  C108  1.569749 S    
C130  H121  1.097426 S    
N54   O43   1.303602 A    
C118  H84   1.105996 S    
N6    Ni6   1.909304 S    
N41   O18   1.300279 A    
C76   C92   1.559765 S    
N19   Ni3   1.930277 S    
C57   C63   1.590969 S    
C40   C47   1.387799 A    
C67   H35   1.111071 S    
C66   C72   1.549394 S    
C128  H115  1.110082 S    
C27   N19   1.309075 A    
C102  H58   1.113950 S    
C135  H137  1.108466 S    
C28   N20   1.309215 A    
C56   N36   1.507999 S    
C15   N15   1.324744 A    
C98   C107  1.599485 S    
C16   C24   1.395011 A    
C77   H45   1.100084 S    
C117  H81   1.108879 S    
C126  H109  1.110115 S    
C54   C118  1.580965 S    
C51   C60   1.626806 S    
C129  H118  1.103835 S    
C12   C22   1.396377 A    
N25   N30   1.400219 A    
N4    N7    1.400219 A    
H43   C75   1.117833 S    
H65   C111  1.104451 S    
H44   C76   1.117800 S    
N62   O59   1.297655 A    
C6    H2    1.081319 S    
N44   O23   1.299813 A    
C101  N57   1.479675 S    
N13   Ni2   1.908992 S    
H63   C106  1.112935 S    
H66   C111  1.107869 S    
C52   H28   1.110598 S    
C39   N31   1.299198 A    
N28   N31   1.400219 A    
C62   C64   1.596802 S    
C125  H105  1.101222 S    
N43   O22   1.300242 A    
N48   O32   1.301491 A    
N11   N12   1.409698 A    
C52   C60   1.626190 S    
C104  H60   1.113951 S    
C132  H128  1.110380 S    
C6    C17   1.376559 A    
C124  H102  1.105617 S    
C69   H39   1.103027 S    
N52   O40   1.301873 A    
N37   O10   1.300593 A    
N64   O63   1.297666 A    
C57   N38   1.472817 S    
C49   H25   1.111949 S    
N51   O38   1.301857 A    
N1    Ni1   1.930165 S    
N3    N8    1.400219 A    
C51   H27   1.111876 S    
N47   O30   1.301448 A    
C10   H6    1.065640 S    
N68   O71   1.297022 A    
N60   O56   1.303067 A    
C80   H48   1.099572 S    
C97   C133  1.550099 S    
C135  H136  1.110058 S    
N2    N5    1.400219 A    
C9    H5    1.070177 S    
C120  H92   1.101793 S    
C10   N10   1.313936 A    
C48   C88   1.465128 S    
C36   H20   1.073455 S    
N42   O19   1.299792 A    
C25   H13   1.072372 S    
N36   O7    1.297668 A    
C122  H97   1.107112 S    
C56   C62   1.619263 S    
C66   C82   1.592748 S    
C118  H86   1.101964 S    
N11   Ni8   1.929266 S    
C121  H94   1.104511 S    
N4    Ni4   1.929098 S    
N23   N24   1.409698 A    
C58   N39   1.472999 S    
C1    C17   1.380127 A    
C20   C83   1.464154 S    
N27   N32   1.400219 A    
C3    C19   1.380081 A    
C114  H73   1.106007 S    
N40   O16   1.300480 A    
N63   O62   1.299501 A    
N17   N18   1.409698 A    
C116  H80   1.110037 S    
C99   H55   1.114433 S    
C134  H133  1.107450 S    
H61   C105  1.112922 S    
N19   N20   1.409698 A    
C78   N42   1.498171 S    
C88   C92   1.615245 S    
C49   C53   1.566944 S    
C121  H95   1.108265 S    
C29   C43   1.394291 A    
C40   N32   1.298267 A    
N65   O65   1.299488 A    
N13   N14   1.409698 A    
C73   C83   1.568591 S    
C65   C81   1.591635 S    
C74   C84   1.569367 S    
C102  N58   1.483381 S    
N53   O42   1.297700 A    
C7    N7    1.316063 A    
C1    N1    1.305446 A    
N2    Ni2   1.929098 S    
N67   O70   1.296858 A    
N46   O28   1.301493 A    
C113  H71   1.110097 S    
C3    N3    1.305275 A    
H32   C64   1.097514 S    
C4    C20   1.378509 A    
C71   C87   1.596424 S    
C31   C44   1.394165 A    
C70   C126  1.549917 S    
C29   N61   1.436436 S    
C124  H104  1.103750 S    
C94   H50   1.107477 S    
C131  H124  1.103857 S    
N23   Ni7   1.906702 S    
C97   C107  1.590696 S    
C78   C82   1.572074 S    
N50   O36   1.301862 A    
C58   N40   1.472923 S    
N9    N10   1.409698 A    
C79   H47   1.100129 S    
C86   C90   1.615638 S    
C85   C93   1.607128 S    
N26   N29   1.400219 A    
C103  H59   1.114487 S    
C79   N43   1.497617 S    
C34   N26   1.308960 A    
C101  C109  1.606250 S    
N45   O26   1.301442 A    
N56   O47   1.303556 A    
C127  H112  1.110346 S    
C27   C42   1.394392 A    
C12   H8    1.065685 S    
C38   C45   1.387949 A    
N15   Ni4   1.908992 S    
C66   H34   1.110982 S    
C68   C70   1.549552 S    
C37   H21   1.074492 S    
N31   Ni4   1.909302 S    
C11   C22   1.391514 A    
N24   Ni8   1.908990 S    
C13   H9    1.067675 S    
C28   H16   1.069388 S    
N66   O68   1.298869 A    
C77   C95   1.545743 S    
C58   C60   1.595436 S    
N43   O21   1.299462 A    
C44   C62   1.530665 S    
C123  H99   1.103932 S    
C75   N51   1.474088 S    
C78   H46   1.099590 S    
C120  H90   1.106145 S    
N12   Ni7   1.930278 S    
N55   O46   1.297731 A    
C72   C88   1.598101 S    
N46   O27   1.301726 A    
C90   N54   1.492472 S    
H62   C105  1.112193 S    
H30   C63   1.097618 S    
C96   N46   1.477362 S    
C119  H88   1.098164 S    
N14   Ni1   1.906704 S    
C102  C109  1.596163 S    
C57   N37   1.473064 S    
C100  C136  1.547318 S    
C98   C102  1.536301 S    
C136  H138  1.104308 S    
C65   H33   1.110994 S    
H64   C106  1.112197 S    
C52   C56   1.566810 S    
C65   C71   1.548196 S    
N17   Ni1   1.930277 S    
C68   H36   1.110921 S    
C75   C91   1.559651 S    
N58   O51   1.301248 A    
N56   O48   1.297935 A    
N59   O53   1.300518 A    
N22   Ni6   1.908990 S    
C33   C45   1.381529 A    
N1    N6    1.400219 A    
C13   C23   1.393485 A    
C26   N18   1.309060 A    
C35   C47   1.381480 A    
C110  C112  1.532612 S    
C13   N13   1.324765 A    
C43   C61   1.530566 S    
C52   N68   1.486004 S    
C130  H120  1.103940 S    
C29   N21   1.331854 A    
N10   Ni5   1.930278 S    
N54   O44   1.297973 A    
C31   N23   1.331651 A    
H41   C73   1.117859 S    
N41   O17   1.299503 A    
C80   C94   1.547040 S    
N20   Ni4   1.929264 S    
N38   O11   1.300412 A    
C113  H70   1.098860 S    
C128  H114  1.101415 S    
C34   H18   1.073388 S    
C15   C24   1.393537 A    
N57   O50   1.300735 A    
C2    C114  1.503442 S    
C68   C84   1.593055 S    
N47   O29   1.301681 A    
C19   C84   1.464387 S    
C4    C116  1.503442 S    
C15   H11   1.067623 S    
N55   O45   1.303595 A    
C4    N4    1.305938 A    
C80   N44   1.498154 S    
C129  H117  1.097505 S    
C2    C18   1.378284 A    
C78   C96   1.547176 S    
C47   C87   1.463375 S    
C99   C103  1.560669 S    
C123  H101  1.108353 S    
C95   H51   1.107841 S    
N44   O24   1.300221 A    
C67   C123  1.562991 S    
N5    Ni5   1.906963 S    
C38   N30   1.298630 A    
N18   Ni2   1.929264 S    
N7    Ni7   1.906963 S    
C98   C134  1.547427 S    
C40   H24   1.074402 S    
C132  H127  1.097531 S    
N63   O61   1.299498 A    
C101  H57   1.114526 S    
C11   H7    1.070068 S    
N37   O9    1.303330 A    
N64   O64   1.299486 A    
C91   C131  1.555189 S    
C136  H140  1.111558 S    
N49   O34   1.301880 A    
N68   O72   1.298833 A    
C2    N2    1.305664 A    
C25   N17   1.309359 A    
C17   C82   1.464742 S    
N61   O58   1.299514 A    
N25   Ni6   1.929099 S    
C51   N67   1.487066 S    
C120  H91   1.100620 S    
N27   Ni8   1.929099 S    
C16   H12   1.068422 S    
N42   O20   1.300184 A    
N33   O2    1.304127 A    
C93   H49   1.108006 S    
C130  H122  1.110339 S    
C87   C91   1.616786 S    
C49   N65   1.487085 S    
C122  H96   1.105616 S    
C22   C110  1.504052 S    
C96   H52   1.107578 S    
N34   O4    1.303660 A    
C118  H85   1.100612 S    
C79   C83   1.572260 S    
C54   C61   1.619228 S    
C56   C120  1.580633 S    
C97   H53   1.114427 S    
C85   C89   1.616281 S    
C36   C48   1.381270 A    
C128  H116  1.109812 S    
N34   O3    1.297625 A    
C114  H72   1.099196 S    
C73   C89   1.560164 S    
C116  H79   1.106035 S    
C134  H132  1.104451 S    
C50   H26   1.110545 S    
C70   H40   1.104454 S    
C5    N5    1.315977 A    
C69   C85   1.596797 S    
C117  H82   1.098102 S    
C126  H110  1.109818 S    
C117  H83   1.099577 S    
N35   O5    1.298017 A    
C26   H14   1.069269 S    
C129  H119  1.110241 S    
N39   O14   1.303343 A    
C67   C69   1.547907 S    
C49   C59   1.626610 S    
C14   H10   1.068403 S    
C58   C64   1.590998 S    
N8    Ni8   1.909304 S    
C109  C111  1.532594 S    
N53   O41   1.303558 A    
N62   O60   1.299510 A    
C125  H106  1.110360 S    
C69   C125  1.550155 S    
C133  H129  1.102768 S    
N59   O54   1.300746 A    
N48   O31   1.301733 A    
C135  H135  1.102898 S    
C53   C117  1.573440 S    
C124  H103  1.107064 S    
N26   Ni5   1.930164 S    
C131  H123  1.097375 S    
C76   N52   1.473856 S    
C3    C115  1.503489 S    
C98   H54   1.114163 S    
C50   C54   1.566717 S    
N28   Ni7   1.930164 S    
N60   O55   1.301221 A    
C91   N55   1.492267 S    
C32   C44   1.397316 A    
C53   C61   1.620852 S    
C121  H93   1.103842 S    
N29   Ni2   1.909302 S    
C100  C108  1.599419 S    
C57   C59   1.595367 S    
