data_mof_unit_6242.cif
_audit_creation_date              2012-12-10T17:34:57-0500
_audit_creation_method            fapswitch 2.2
_symmetry_space_group_name_H-M    P1
_symmetry_Int_Tables_number       1
_space_group_crystal_system       triclinic
_cell_length_a                    12.349949
_cell_length_b                    13.157213
_cell_length_c                    13.856419
_cell_angle_alpha                 105.074977
_cell_angle_beta                  73.987872
_cell_angle_gamma                 116.585833
_cell_volume                      1910.75232224

loop_
_atom_site_label
_atom_site_type_symbol
_atom_type_description
_atom_site_fract_x
_atom_site_fract_y
_atom_site_fract_z
_atom_type_partial_charge
C1    C     C_R   0.144455 0.713657 0.508132 0.772478
C2    C     C_1   0.982620 0.515164 0.791780 -0.161232
C3    C     C_R   0.738468 0.973601 0.367830 0.376408
C4    C     C_R   0.775100 0.164207 0.464309 -0.117426
C5    C     C_R   0.178985 0.917638 0.569933 -0.177612
C6    C     C_R   0.256251 0.033310 0.587613 -0.146899
C7    C     C_R   0.382533 0.069599 0.552602 -0.167231
C8    C     C_R   0.434360 0.990413 0.495239 0.105724
C9    C     C_R   0.353293 0.875019 0.466795 0.084927
C10   C     C_R   0.563777 0.022219 0.464315 0.029752
C11   C     C_R   0.609930 0.942229 0.397570 0.074376
C12   C     C_R   0.985473 0.505633 0.686406 0.807260
C13   C     C_R   0.526847 0.833909 0.360287 -0.182719
C14   C     C_R   0.401077 0.801660 0.392932 -0.215308
C15   C     C_R   0.648792 0.131133 0.499173 -0.237656
C16   C     C_R   0.819986 0.084614 0.400661 -0.225932
C17   C     C_R   0.226276 0.836929 0.511912 -0.100897
C18   C     C_R   0.645406 0.682006 0.652379 -0.289058
C19   C     C_R   0.245343 0.347064 0.367845 -0.003479
C20   C     C_R   0.341852 0.312569 0.335854 -0.315954
C21   C     C_R   0.448555 0.373260 0.377915 0.463087
C22   C     C_R   0.453107 0.463900 0.462473 -0.121254
C23   C     C_R   0.856174 0.286144 0.485259 0.822593
C24   C     C_R   0.349612 0.495075 0.492541 0.227035
C25   C     C_R   0.553314 0.525385 0.518657 -0.018163
C26   C     C_R   0.549285 0.618393 0.597607 0.175605
C27   C     C_R   0.448319 0.646617 0.623600 -0.266049
C28   C     C_R   0.349868 0.584780 0.573845 -0.135118
C29   C     C_R   0.656862 0.498836 0.503028 0.032037
C30   C     C_R   0.745453 0.653205 0.630487 0.087131
C31   C     C_R   0.015742 0.495944 0.313700 0.831032
C32   C     C_1   0.024649 0.492574 0.208386 -0.182534
C33   C     C_2   0.044013 0.481894 0.011328 0.488073
C34   C     C_2   0.986302 0.532671 0.984638 -0.249096
C35   C     C_1   0.983496 0.523871 0.879960 0.086415
C36   C     C_1   0.033558 0.488384 0.119156 -0.157203
Cu1   Cu    Cu3+1 0.899780 0.525060 0.522890 0.947282
Cu2   Cu    Cu3+1 0.100220 0.474940 0.477110 0.931348
H1    H     H_    0.936741 0.578499 0.041949 0.134772
H2    H     H_    0.342187 0.719280 0.356921 0.178329
H3    H     H_    0.820677 0.702442 0.671696 0.122562
H4    H     H_    0.443973 0.716131 0.684978 0.151206
H5    H     H_    0.642947 0.753469 0.712004 0.139176
H6    H     H_    0.667311 0.427205 0.449977 0.192004
H7    H     H_    0.165350 0.301380 0.331907 0.153360
H8    H     H_    0.334987 0.239526 0.275874 0.164061
H9    H     H_    0.274582 0.609823 0.602602 0.203094
H10   H     H_    0.918119 0.109729 0.373557 0.180852
H11   H     H_    0.557971 0.772779 0.305359 0.197330
H12   H     H_    0.619325 0.193083 0.553468 0.157383
H13   H     H_    0.082145 0.891074 0.603684 0.155511
H14   H     H_    0.436319 0.160669 0.569771 0.134682
H15   H     H_    0.218469 0.095020 0.631517 0.147078
N1    N     N_R   0.748810 0.563010 0.557590 -0.193858
N2    N     N_R   0.250540 0.437620 0.443020 -0.200369
O1    O     O_R   0.025040 0.682470 0.528790 -0.575642
O2    O     O_R   0.194310 0.640150 0.490130 -0.606082
O3    O     O_R   0.903380 0.524130 0.659910 -0.576661
O4    O     O_R   0.072660 0.481800 0.621240 -0.579480
O5    O     O_R   0.805690 0.359850 0.509870 -0.588539
O6    O     O_R   0.974960 0.317530 0.471210 -0.585295
O7    O     O_R   0.927340 0.518200 0.378760 -0.574289
O8    O     O_R   0.096620 0.475870 0.340090 -0.586368
O9    O     O_3   0.544148 0.338594 0.336196 -0.636520
C37   C     C_3   0.621731 0.398742 0.254677 0.047171
H16   H     H_    0.715567 0.404165 0.249381 0.181943
H17   H     H_    0.630800 0.489411 0.267662 0.144835
C38   C     C_3   0.578243 0.333514 0.153751 -0.363047
H18   H     H_    0.555206 0.240443 0.147771 0.240160
H19   H     H_    0.494619 0.343433 0.150880 0.212224
C39   C     C_3   0.676577 0.378933 0.062743 -0.896038
H20   H     H_    0.703032 0.472489 0.068018 0.260534
H21   H     H_    0.640138 0.333194 0.991495 0.258461
H22   H     H_    0.758762 0.363414 0.059784 0.260580
O10   O     O_3   0.108934 0.425537 0.935082 -0.601115
C40   C     C_3   0.163535 0.372475 0.972304 0.078339
H23   H     H_    0.179690 0.305088 0.910132 0.160495
H24   H     H_    0.101220 0.325982 0.036427 0.141011
C41   C     C_3   0.288760 0.459464 0.999613 -0.341217
H25   H     H_    0.351908 0.494213 0.930300 0.225200
H26   H     H_    0.278186 0.532680 0.056868 0.223602
C42   C     C_3   0.346333 0.403590 0.042607 -0.922786
H27   H     H_    0.286104 0.371044 0.113609 0.256855
H28   H     H_    0.437179 0.468203 0.060530 0.263454
H29   H     H_    0.360262 0.331127 0.986244 0.255647
Cl1   Cl    Cl    0.802091 0.878056 0.287366 -0.666350

loop_
_geom_bond_atom_site_label_1
_geom_bond_atom_site_label_2
_ccdc_geom_bond_type
C2    C35   T    
C28   H9    S    
C19   C20   A    
C18   C26   A    
C40   C41   S    
C9    C14   A    
C2    C12   S    
C16   H10   S    
Cu1   O7    S    
C7    C8    A    
C24   N2    A    
C30   N1    A    
C26   C27   A    
C32   C36   T    
C1    O1    A    
C40   H24   S    
C7    H14   S    
C10   C15   A    
C5    C6    A    
C5    C17   A    
C29   N1    A    
C33   C36   S    
C34   C35   S    
C15   H12   S    
C21   O9    S    
C12   O4    A    
C33   O10   S    
Cu2   N2    S    
C8    C9    A    
C37   H17   S    
C22   C25   A    
C30   H3    S    
C18   C30   A    
Cu1   O3    S    
Cu2   O6    S    
C12   O3    A    
C13   C14   A    
C3    Cl1   S    
Cu1   O1    S    
C31   O7    A    
C25   C29   A    
C23   O5    A    
C34   H1    S    
C31   O8    A    
C40   H23   S    
C39   H21   S    
C4    C23   S    
C38   H18   S    
C25   C26   A    
Cu2   O4    S    
C4    C16   A    
O10   C40   S    
Cu1   Cu2   S    
C1    O2    A    
C41   C42   S    
Cu2   O2    S    
C31   C32   S    
C37   C38   S    
C33   C34   D    
C13   H11   S    
Cu1   N1    S    
C9    C17   A    
C42   H27   S    
C42   H28   S    
C29   H6    S    
C22   C24   A    
C6    H15   S    
C41   H26   S    
Cu2   O8    S    
C19   N2    A    
C24   C28   A    
C39   H22   S    
C19   H7    S    
C6    C7    A    
C42   H29   S    
C1    C17   S    
O9    C37   S    
C4    C15   A    
C39   H20   S    
C18   H5    S    
C11   C13   A    
C27   H4    S    
C38   C39   S    
Cu1   O5    S    
C3    C11   A    
C10   C11   A    
C14   H2    S    
C41   H25   S    
C23   O6    A    
C20   C21   A    
C8    C10   A    
C37   H16   S    
C27   C28   A    
C38   H19   S    
C5    H13   S    
C21   C22   A    
C20   H8    S    
C3    C16   A    
