data_mof_unit_26151.cif
_audit_creation_date              2013-03-05T15:45:47-0500
_audit_creation_method            fapswitch 2.2
_symmetry_space_group_name_H-M    P1
_symmetry_Int_Tables_number       1
_space_group_crystal_system       triclinic
_cell_length_a                    9.898959
_cell_length_b                    11.081027
_cell_length_c                    15.672743
_cell_angle_alpha                 95.186576
_cell_angle_beta                  79.945284
_cell_angle_gamma                 111.903155
_cell_volume                      1569.95852438

loop_
_atom_site_label
_atom_site_type_symbol
_atom_site_description
_atom_site_fract_x
_atom_site_fract_y
_atom_site_fract_z
_atom_type_partial_charge
O1    O     O_R   0.426810 0.668300 0.492040 -0.562735
O2    O     O_R   0.573190 0.331700 0.507960 -0.573433
O3    O     O_R   0.658240 0.703130 0.517240 -0.514711
O4    O     O_R   0.341760 0.296870 0.482760 -0.509455
C1    C     C_R   0.557119 0.745778 0.506291 0.748713
C2    C     C_R   0.442627 0.254283 0.494002 0.757139
O5    O     O_R   0.319390 0.472820 0.610170 -0.495289
O6    O     O_R   0.680610 0.527180 0.389830 -0.486686
O7    O     O_R   0.550820 0.507640 0.635370 -0.566609
O8    O     O_R   0.449180 0.492360 0.364630 -0.579244
C3    C     C_R   0.411404 0.483195 0.663026 0.838307
C4    C     C_R   0.586943 0.510466 0.336619 0.827926
Cu1   Cu    Cu3+1 0.362980 0.479380 0.485080 1.171928
Cu2   Cu    Cu3+1 0.637020 0.520620 0.514920 1.174254
C5    C     C_R   0.354529 0.454935 0.755571 -0.216020
C6    C     C_R   0.632625 0.498850 0.242142 -0.208602
C7    C     C_R   0.151677 0.382752 0.873890 -0.211768
C8    C     C_R   0.808979 0.478210 0.118788 -0.217488
C9    C     C_R   0.203363 0.417568 0.787748 0.686294
C10   C     C_R   0.774936 0.502834 0.207110 0.681823
C11   C     C_R   0.451379 0.454475 0.811034 -0.206355
C12   C     C_R   0.526978 0.471955 0.186726 -0.214626
C13   C     C_R   0.399084 0.410463 0.896421 0.108264
C14   C     C_R   0.555558 0.436090 0.098906 0.103058
C15   C     C_R   0.248689 0.382437 0.928969 -0.012592
C16   C     C_R   0.701038 0.445641 0.064573 -0.008636
C17   C     C_R   0.494215 0.401568 0.951863 -0.051762
C18   C     C_R   0.446504 0.399211 0.042966 -0.056113
C19   C     C_R   0.292059 0.358858 0.073252 0.312653
C20   C     C_R   0.634267 0.393292 0.920160 0.313756
C21   C     C_R   0.195958 0.351948 0.015732 -0.204218
C22   C     C_R   0.736907 0.419554 0.976754 -0.196898
H1    H     H_    0.078708 0.321709 0.038916 0.180985
H2    H     H_    0.845091 0.417697 0.952384 0.168464
H3    H     H_    0.422784 0.481002 0.212810 0.215717
H4    H     H_    0.568226 0.490026 0.787304 0.220436
H5    H     H_    0.035209 0.354661 0.897380 0.171925
H6    H     H_    0.919858 0.483272 0.092835 0.170795
H7    H     H_    0.628009 0.136845 0.490114 0.237922
H8    H     H_    0.379788 0.861409 0.486514 0.244020
C23   C     C_2   0.590738 0.886288 0.510747 0.146015
C24   C     C_2   0.407032 0.113724 0.490958 0.160410
C25   C     C_2   0.487330 0.930311 0.496827 -0.182484
C26   C     C_2   0.515366 0.068798 0.491666 -0.175793
N1    N     N_2   0.842890 0.551600 0.537350 -0.117368
N2    N     N_2   0.157110 0.448400 0.462650 -0.127240
C27   C     C_2   0.926595 0.496513 0.489088 0.662107
C28   C     C_2   0.083410 0.520154 0.500310 0.660974
F1    F     F_    0.881534 0.530450 0.257633 -0.578907
F2    F     F_    0.105013 0.414264 0.736338 -0.559024
N3    N     N_R   0.228157 0.306143 0.157658 0.121300
O9    O     O_R   0.275247 0.226004 0.187989 -0.284188
O10   O     O_R   0.107800 0.320144 0.197515 -0.275664
N4    N     N_R   0.665568 0.339501 0.835201 0.122470
O11   O     O_R   0.561875 0.245162 0.802528 -0.305697
O12   O     O_R   0.801103 0.366868 0.797684 -0.239464
N5    N     N_R   0.256708 0.027786 0.489939 0.159874
O13   O     O_R   0.152066 0.047012 0.545470 -0.213425
O14   O     O_R   0.222317 0.946486 0.424886 -0.280317
N6    N     N_R   0.731026 0.972998 0.531906 0.162622
O15   O     O_R   0.851152 0.955506 0.495484 -0.198910
O16   O     O_R   0.736351 0.054967 0.597334 -0.241467
F3    F     F_    0.155927 0.629235 0.544986 -0.623629
F4    F     F_    0.873852 0.422183 0.419799 -0.596919
N7    N     N_R   0.077484 0.323173 0.434193 0.255440
O17   O     O_R   0.962460 0.248550 0.484124 -0.257845
O18   O     O_R   0.139027 0.269658 0.369791 -0.191279
N8    N     N_R   0.885357 0.615973 0.614380 0.237874
O19   O     O_R   0.849887 0.716263 0.641107 -0.242515
O20   O     O_R   0.925725 0.559537 0.669267 -0.238089

loop_
_geom_bond_atom_site_label_1
_geom_bond_atom_site_label_2
_geom_bond_distance
_ccdc_geom_bond_type
C15   C21   1.392615 A    
O5    Cu1   1.934433 S    
O5    C3    1.302778 A    
O7    Cu2   1.925508 S    
C21   H1    1.084450 S    
C16   C22   1.392109 A    
H7    C26   1.085839 S    
C13   C17   1.421972 A    
C23   C25   1.342807 D    
C27   C28   1.514206 S    
C8    C16   1.402786 A    
C6    C10   1.405650 A    
O6    C4    1.305160 A    
C17   C18   1.422861 A    
C7    C15   1.399964 A    
C20   N4    1.440325 S    
N1    N8    1.393146 S    
C13   C15   1.411224 A    
C8    H6    1.084249 S    
C19   C21   1.398619 A    
C11   H4    1.080603 S    
O2    C2    1.300679 A    
Cu1   Cu2   2.695519 S    
C17   C20   1.422460 A    
C20   C22   1.396843 A    
C12   H3    1.078647 S    
O7    C3    1.303573 A    
C9    F2    1.356593 S    
N5    O13   1.300831 A    
C10   F1    1.356881 S    
O3    Cu2   1.951400 S    
C24   C26   1.342179 D    
O1    C1    1.300216 A    
O8    C4    1.302096 A    
C24   N5    1.438648 S    
N6    O16   1.301574 A    
C18   C19   1.427424 A    
C7    C9    1.392501 A    
C14   C16   1.414440 A    
Cu2   N1    2.025054 S    
C8    C10   1.393411 A    
C11   C13   1.408721 A    
C25   C26   1.461296 S    
C2    C24   1.461279 S    
Cu1   N2    2.025053 S    
O2    Cu2   1.946663 S    
C14   C18   1.427443 A    
N4    O12   1.300373 A    
N5    O14   1.301278 A    
O4    C2    1.295646 A    
O1    Cu1   1.946661 S    
N3    O9    1.301679 A    
N2    C28   1.307822 D    
C4    C6    1.479441 S    
C5    C11   1.403633 A    
C23   N6    1.438528 S    
N2    N7    1.393048 S    
N8    O20   1.301731 A    
N7    O17   1.302312 A    
C19   N3    1.436387 S    
N1    C27   1.306273 D    
C27   F4    1.358570 S    
C1    C23   1.463466 S    
N4    O11   1.301849 A    
N6    O15   1.300907 A    
C28   F3    1.357103 S    
C7    H5    1.080002 S    
N7    O18   1.299300 A    
O6    Cu2   1.934431 S    
N3    O10   1.301631 A    
C5    C9    1.406030 A    
C3    C5    1.477910 S    
H8    C25   1.083381 S    
O4    Cu1   1.951401 S    
C12   C14   1.407637 A    
C6    C12   1.405221 A    
N8    O19   1.299749 A    
O3    C1    1.297058 A    
O8    Cu1   1.925505 S    
C22   H2    1.079521 S    
